data_str_m1_o1_o1_pcu_sym.1
_audit_creation_date              2020-01-03
_audit_creation_method            'Materials Studio'
_symmetry_space_group_name_H-M    'P1'
_symmetry_Int_Tables_number       1
_symmetry_cell_setting            triclinic
loop_
_symmetry_equiv_pos_as_xyz
  x,y,z
_cell_length_a                    26.2815
_cell_length_b                    26.2561
_cell_length_c                    26.3035
_cell_angle_alpha                 89.9272
_cell_angle_beta                  89.9841
_cell_angle_gamma                 90.1268
loop_
_atom_site_label
_atom_site_type_symbol
_atom_site_fract_x
_atom_site_fract_y
_atom_site_fract_z
_atom_site_U_iso_or_equiv
_atom_site_adp_type
_atom_site_occupancy
C1     C     0.39015   0.25145   0.24859   0.00000  Uiso   1.00
C2     C     0.60992   0.25034   0.24961   0.00000  Uiso   1.00
C3     C     0.97317   0.70929   0.22288   0.00000  Uiso   1.00
C4     C     0.02683   0.77365   0.71015   0.00000  Uiso   1.00
C5     C     0.97341   0.21641   0.28494   0.00000  Uiso   1.00
C6     C     0.02680   0.70659   0.22899   0.00000  Uiso   1.00
C7     C     0.97308   0.26705   0.79475   0.00000  Uiso   1.00
C8     C     0.78960   0.72844   0.02680   0.00000  Uiso   1.00
C9     C     0.22454   0.28839   0.97331   0.00000  Uiso   1.00
C10    C     0.71983   0.21434   0.02648   0.00000  Uiso   1.00
C11    C     0.29387   0.76674   0.97336   0.00000  Uiso   1.00
C12    C     0.22793   0.28957   0.02672   0.00000  Uiso   1.00
C13    C     0.25032   0.75041   0.39024   0.00000  Uiso   1.00
C14    C     0.79030   0.73045   0.97341   0.00000  Uiso   1.00
C15    C     0.29505   0.76385   0.02705   0.00000  Uiso   1.00
C16    C     0.72695   0.20955   0.97346   0.00000  Uiso   1.00
C17    C     0.21274   0.72015   0.97351   0.00000  Uiso   1.00
C18    C     0.78349   0.28310   0.02680   0.00000  Uiso   1.00
C19    C     0.26952   0.20603   0.97278   0.00000  Uiso   1.00
C20    C     0.70703   0.77292   0.02656   0.00000  Uiso   1.00
C21    C     0.77647   0.28852   0.97341   0.00000  Uiso   1.00
C22    C     0.21048   0.72461   0.02710   0.00000  Uiso   1.00
C23    C     0.70483   0.76730   0.97277   0.00000  Uiso   1.00
C24    C     0.75064   0.25025   0.60989   0.00000  Uiso   1.00
C25    C     0.26673   0.20466   0.02665   0.00000  Uiso   1.00
C26    C     0.72515   0.47388   0.71058   0.00000  Uiso   1.00
C27    C     0.29730   0.52683   0.26495   0.00000  Uiso   1.00
C28    C     0.70926   0.47321   0.27709   0.00000  Uiso   1.00
C29    C     0.27749   0.52637   0.71006   0.00000  Uiso   1.00
C30    C     0.29873   0.47291   0.26063   0.00000  Uiso   1.00
C31    C     0.72913   0.52727   0.70883   0.00000  Uiso   1.00
C32    C     0.27099   0.47277   0.70465   0.00000  Uiso   1.00
C33    C     0.70573   0.52694   0.27073   0.00000  Uiso   1.00
C34    C     0.47363   0.29081   0.27512   0.00000  Uiso   1.00
C35    C     0.60991   0.74992   0.25009   0.00000  Uiso   1.00
C36    C     0.52647   0.73094   0.70528   0.00000  Uiso   1.00
C37    C     0.47333   0.72331   0.29081   0.00000  Uiso   1.00
C38    C     0.52709   0.29451   0.72780   0.00000  Uiso   1.00
C39    C     0.47281   0.73574   0.70346   0.00000  Uiso   1.00
C40    C     0.52741   0.29258   0.27187   0.00000  Uiso   1.00
C41    C     0.47303   0.29663   0.73139   0.00000  Uiso   1.00
C42    C     0.52706   0.72850   0.29310   0.00000  Uiso   1.00
C43    C     0.29093   0.72492   0.52698   0.00000  Uiso   1.00
C44    C     0.71836   0.28291   0.47384   0.00000  Uiso   1.00
C45    C     0.71833   0.71532   0.52657   0.00000  Uiso   1.00
C46    C     0.39012   0.25184   0.75171   0.00000  Uiso   1.00
C47    C     0.28460   0.28083   0.47416   0.00000  Uiso   1.00
C48    C     0.72704   0.28911   0.52644   0.00000  Uiso   1.00
C49    C     0.29165   0.72683   0.47317   0.00000  Uiso   1.00
C50    C     0.29141   0.27332   0.52708   0.00000  Uiso   1.00
C51    C     0.72531   0.71021   0.47322   0.00000  Uiso   1.00
C52    C     0.25794   0.55375   0.24072   0.00000  Uiso   1.00
C53    C     0.75437   0.44669   0.74650   0.00000  Uiso   1.00
C54    C     0.24378   0.55295   0.74292   0.00000  Uiso   1.00
C55    C     0.74628   0.44677   0.24774   0.00000  Uiso   1.00
C56    C     0.75244   0.55375   0.74879   0.00000  Uiso   1.00
C57    C     0.75030   0.74969   0.60981   0.00000  Uiso   1.00
C58    C     0.25580   0.44680   0.24163   0.00000  Uiso   1.00
C59    C     0.74676   0.55367   0.24799   0.00000  Uiso   1.00
C60    C     0.24160   0.44600   0.74072   0.00000  Uiso   1.00
C61    C     0.55353   0.75750   0.74324   0.00000  Uiso   1.00
C62    C     0.44661   0.25567   0.24437   0.00000  Uiso   1.00
C63    C     0.55329   0.25736   0.75711   0.00000  Uiso   1.00
C64    C     0.44670   0.75279   0.25409   0.00000  Uiso   1.00
C65    C     0.55359   0.25342   0.24627   0.00000  Uiso   1.00
C66    C     0.44671   0.75736   0.74497   0.00000  Uiso   1.00
C67    C     0.55351   0.75179   0.25229   0.00000  Uiso   1.00
C68    C     0.25046   0.24937   0.39038   0.00000  Uiso   1.00
C69    C     0.44633   0.25794   0.75762   0.00000  Uiso   1.00
C70    C     0.75174   0.25113   0.44661   0.00000  Uiso   1.00
C71    C     0.25690   0.75680   0.55370   0.00000  Uiso   1.00
C72    C     0.25419   0.24540   0.44705   0.00000  Uiso   1.00
C73    C     0.75249   0.74736   0.55330   0.00000  Uiso   1.00
C74    C     0.25371   0.75398   0.44677   0.00000  Uiso   1.00
C75    C     0.75366   0.25158   0.55346   0.00000  Uiso   1.00
C76    C     0.75296   0.74797   0.44656   0.00000  Uiso   1.00
C77    C     0.25690   0.24262   0.55394   0.00000  Uiso   1.00
C78    C     0.75108   0.05387   0.25077   0.00000  Uiso   1.00
C79    C     0.24788   0.39000   0.74768   0.00000  Uiso   1.00
C80    C     0.24837   0.94628   0.75056   0.00000  Uiso   1.00
C81    C     0.25036   0.05356   0.25084   0.00000  Uiso   1.00
C82    C     0.74554   0.94668   0.74750   0.00000  Uiso   1.00
C83    C     0.24875   0.05336   0.75060   0.00000  Uiso   1.00
C84    C     0.75217   0.94700   0.25060   0.00000  Uiso   1.00
C85    C     0.74347   0.05352   0.74563   0.00000  Uiso   1.00
C86    C     0.25029   0.94664   0.25121   0.00000  Uiso   1.00
C87    C     0.05367   0.74884   0.24951   0.00000  Uiso   1.00
C88    C     0.94627   0.24895   0.75161   0.00000  Uiso   1.00
C89    C     0.05365   0.74819   0.74894   0.00000  Uiso   1.00
C90    C     0.74952   0.60996   0.24987   0.00000  Uiso   1.00
C91    C     0.94647   0.25245   0.25475   0.00000  Uiso   1.00
C92    C     0.05329   0.24832   0.75169   0.00000  Uiso   1.00
C93    C     0.94671   0.74965   0.24779   0.00000  Uiso   1.00
C94    C     0.05325   0.25255   0.25467   0.00000  Uiso   1.00
C95    C     0.94690   0.74916   0.74982   0.00000  Uiso   1.00
C96    C     0.74782   0.74836   0.94632   0.00000  Uiso   1.00
C97    C     0.24806   0.24764   0.05359   0.00000  Uiso   1.00
C98    C     0.75149   0.24913   0.94644   0.00000  Uiso   1.00
C99    C     0.25177   0.74654   0.05382   0.00000  Uiso   1.00
C100   C     0.24795   0.24801   0.94661   0.00000  Uiso   1.00
C101   C     0.25180   0.60988   0.24811   0.00000  Uiso   1.00
C102   C     0.74846   0.75044   0.05325   0.00000  Uiso   1.00
C103   C     0.25230   0.74560   0.94689   0.00000  Uiso   1.00
C104   C     0.75082   0.24928   0.05329   0.00000  Uiso   1.00
C105   C     0.14965   0.45888   0.15655   0.00000  Uiso   1.00
C106   C     0.09691   0.48170   0.16647   0.00000  Uiso   1.00
C107   C     0.08041   0.51910   0.12538   0.00000  Uiso   1.00
C108   C     0.83812   0.54641   0.85174   0.00000  Uiso   1.00
C109   C     0.83529   0.51358   0.89962   0.00000  Uiso   1.00
C110   C     0.88755   0.49906   0.91972   0.00000  Uiso   1.00
C111   C     0.14269   0.45730   0.83339   0.00000  Uiso   1.00
C112   C     0.60985   0.75146   0.74850   0.00000  Uiso   1.00
C113   C     0.75111   0.39015   0.74902   0.00000  Uiso   1.00
C114   C     0.18083   0.47233   0.87491   0.00000  Uiso   1.00
C115   C     0.15268   0.50122   0.91610   0.00000  Uiso   1.00
C116   C     0.85696   0.54672   0.17200   0.00000  Uiso   1.00
C117   C     0.90740   0.51893   0.18009   0.00000  Uiso   1.00
C118   C     0.93318   0.50352   0.13077   0.00000  Uiso   1.00
C119   C     0.87090   0.44939   0.77820   0.00000  Uiso   1.00
C120   C     0.88362   0.39762   0.75519   0.00000  Uiso   1.00
C121   C     0.93275   0.39937   0.72454   0.00000  Uiso   1.00
C122   C     0.22472   0.56772   0.12692   0.00000  Uiso   1.00
C123   C     0.27516   0.59811   0.13188   0.00000  Uiso   1.00
C124   C     0.75003   0.60998   0.75020   0.00000  Uiso   1.00
C125   C     0.29868   0.60936   0.08003   0.00000  Uiso   1.00
C126   C     0.78336   0.45120   0.13196   0.00000  Uiso   1.00
C127   C     0.75087   0.40382   0.12247   0.00000  Uiso   1.00
C128   C     0.72366   0.40643   0.07156   0.00000  Uiso   1.00
C129   C     0.12117   0.55541   0.75510   0.00000  Uiso   1.00
C130   C     0.11817   0.60861   0.73254   0.00000  Uiso   1.00
C131   C     0.07042   0.61696   0.70092   0.00000  Uiso   1.00
C132   C     0.46326   0.84643   0.85053   0.00000  Uiso   1.00
C133   C     0.48907   0.82771   0.89907   0.00000  Uiso   1.00
C134   C     0.51883   0.86968   0.92501   0.00000  Uiso   1.00
C135   C     0.25102   0.39032   0.24861   0.00000  Uiso   1.00
C136   C     0.54375   0.15072   0.15816   0.00000  Uiso   1.00
C137   C     0.51239   0.10233   0.16554   0.00000  Uiso   1.00
C138   C     0.49371   0.07993   0.11581   0.00000  Uiso   1.00
C139   C     0.45528   0.15940   0.85029   0.00000  Uiso   1.00
C140   C     0.46562   0.12007   0.80845   0.00000  Uiso   1.00
C141   C     0.48684   0.07228   0.83315   0.00000  Uiso   1.00
C142   C     0.54043   0.83416   0.14375   0.00000  Uiso   1.00
C143   C     0.51022   0.82075   0.09579   0.00000  Uiso   1.00
C144   C     0.48981   0.86734   0.06818   0.00000  Uiso   1.00
C145   C     0.44677   0.22744   0.12697   0.00000  Uiso   1.00
C146   C     0.74934   0.39018   0.24959   0.00000  Uiso   1.00
C147   C     0.39358   0.24764   0.11554   0.00000  Uiso   1.00
C148   C     0.39265   0.28031   0.06771   0.00000  Uiso   1.00
C149   C     0.56461   0.87330   0.77220   0.00000  Uiso   1.00
C150   C     0.59848   0.86850   0.72430   0.00000  Uiso   1.00
C151   C     0.60717   0.91974   0.69829   0.00000  Uiso   1.00
C152   C     0.44968   0.86946   0.22376   0.00000  Uiso   1.00
C153   C     0.40134   0.87753   0.25468   0.00000  Uiso   1.00
C154   C     0.40223   0.92812   0.28255   0.00000  Uiso   1.00
C155   C     0.55533   0.23526   0.87738   0.00000  Uiso   1.00
C156   C     0.61068   0.24797   0.88850   0.00000  Uiso   1.00
C157   C     0.24879   0.60963   0.74878   0.00000  Uiso   1.00
C158   C     0.61689   0.27493   0.93937   0.00000  Uiso   1.00
C159   C     0.84571   0.14991   0.53836   0.00000  Uiso   1.00
C160   C     0.83230   0.10003   0.51123   0.00000  Uiso   1.00
C161   C     0.87371   0.08359   0.47455   0.00000  Uiso   1.00
C162   C     0.15619   0.84875   0.45898   0.00000  Uiso   1.00
C163   C     0.10904   0.84281   0.49259   0.00000  Uiso   1.00
C164   C     0.08242   0.89340   0.50179   0.00000  Uiso   1.00
C165   C     0.16385   0.14461   0.54511   0.00000  Uiso   1.00
C166   C     0.12257   0.18448   0.53539   0.00000  Uiso   1.00
C167   C     0.07335   0.15721   0.52143   0.00000  Uiso   1.00
C168   C     0.89014   0.75000   0.24953   0.00000  Uiso   1.00
C169   C     0.84442   0.85121   0.46259   0.00000  Uiso   1.00
C170   C     0.83093   0.89788   0.49524   0.00000  Uiso   1.00
C171   C     0.87697   0.92071   0.52232   0.00000  Uiso   1.00
C172   C     0.23627   0.87552   0.55517   0.00000  Uiso   1.00
C173   C     0.25348   0.88612   0.60952   0.00000  Uiso   1.00
C174   C     0.28768   0.93291   0.61270   0.00000  Uiso   1.00
C175   C     0.86741   0.24606   0.44582   0.00000  Uiso   1.00
C176   C     0.88196   0.26040   0.39155   0.00000  Uiso   1.00
C177   C     0.92413   0.30059   0.39050   0.00000  Uiso   1.00
C178   C     0.87189   0.76785   0.55332   0.00000  Uiso   1.00
C179   C     0.10987   0.24953   0.75046   0.00000  Uiso   1.00
C180   C     0.87979   0.74379   0.60530   0.00000  Uiso   1.00
C181   C     0.92908   0.71393   0.60755   0.00000  Uiso   1.00
C182   C     0.23758   0.12144   0.44573   0.00000  Uiso   1.00
C183   C     0.26169   0.11665   0.39352   0.00000  Uiso   1.00
C184   C     0.28819   0.06574   0.38618   0.00000  Uiso   1.00
C185   C     0.67380   0.96041   0.14032   0.00000  Uiso   1.00
C186   C     0.62800   0.97380   0.17408   0.00000  Uiso   1.00
C187   C     0.58329   0.98921   0.14042   0.00000  Uiso   1.00
C188   C     0.35329   0.03991   0.83561   0.00000  Uiso   1.00
C189   C     0.31660   0.02208   0.87771   0.00000  Uiso   1.00
C190   C     0.25033   0.74945   0.10999   0.00000  Uiso   1.00
C191   C     0.34751   0.00552   0.92401   0.00000  Uiso   1.00
C192   C     0.14835   0.95457   0.33919   0.00000  Uiso   1.00
C193   C     0.14235   0.98745   0.38731   0.00000  Uiso   1.00
C194   C     0.09193   0.01631   0.38939   0.00000  Uiso   1.00
C195   C     0.83193   0.04010   0.64360   0.00000  Uiso   1.00
C196   C     0.87356   0.02103   0.68004   0.00000  Uiso   1.00
C197   C     0.90698   0.98355   0.65162   0.00000  Uiso   1.00
C198   C     0.37269   0.94843   0.74987   0.00000  Uiso   1.00
C199   C     0.38371   0.89459   0.73149   0.00000  Uiso   1.00
C200   C     0.43207   0.89357   0.69970   0.00000  Uiso   1.00
C201   C     0.75051   0.24957   0.89009   0.00000  Uiso   1.00
C202   C     0.76174   0.05554   0.12802   0.00000  Uiso   1.00
C203   C     0.78997   0.10644   0.13180   0.00000  Uiso   1.00
C204   C     0.82107   0.11806   0.08438   0.00000  Uiso   1.00
C205   C     0.74830   0.94357   0.62432   0.00000  Uiso   1.00
C206   C     0.73074   0.88847   0.62002   0.00000  Uiso   1.00
C207   C     0.69688   0.87866   0.57402   0.00000  Uiso   1.00
C208   C     0.13195   0.05494   0.26115   0.00000  Uiso   1.00
C209   C     0.11743   0.10996   0.25058   0.00000  Uiso   1.00
C210   C     0.06773   0.11263   0.22147   0.00000  Uiso   1.00
C211   C     0.64291   0.03794   0.84070   0.00000  Uiso   1.00
C212   C     0.10996   0.74939   0.74954   0.00000  Uiso   1.00
C213   C     0.59957   0.00567   0.81990   0.00000  Uiso   1.00
C214   C     0.56983   0.98106   0.86311   0.00000  Uiso   1.00
C215   C     0.34379   0.96216   0.15146   0.00000  Uiso   1.00
C216   C     0.33009   0.99669   0.10690   0.00000  Uiso   1.00
C217   C     0.37737   0.01465   0.07905   0.00000  Uiso   1.00
C218   C     0.13855   0.04323   0.67051   0.00000  Uiso   1.00
C219   C     0.17048   0.02512   0.62506   0.00000  Uiso   1.00
C220   C     0.13495   0.00859   0.58212   0.00000  Uiso   1.00
C221   C     0.83290   0.96393   0.36377   0.00000  Uiso   1.00
C222   C     0.88238   0.97950   0.33702   0.00000  Uiso   1.00
C223   C     0.25166   0.24821   0.60998   0.00000  Uiso   1.00
C224   C     0.89012   0.25027   0.25069   0.00000  Uiso   1.00
C225   C     0.91992   0.00374   0.37468   0.00000  Uiso   1.00
C226   C     0.37065   0.05432   0.23977   0.00000  Uiso   1.00
C227   C     0.37777   0.10798   0.26043   0.00000  Uiso   1.00
C228   C     0.42485   0.11392   0.29374   0.00000  Uiso   1.00
C229   C     0.73256   0.94668   0.86832   0.00000  Uiso   1.00
C230   C     0.74611   0.89225   0.88328   0.00000  Uiso   1.00
C231   C     0.77810   0.89063   0.93155   0.00000  Uiso   1.00
C232   C     0.74985   0.05708   0.37493   0.00000  Uiso   1.00
C233   C     0.71898   0.10627   0.37225   0.00000  Uiso   1.00
C234   C     0.69572   0.12065   0.42329   0.00000  Uiso   1.00
C235   C     0.74937   0.74950   0.88999   0.00000  Uiso   1.00
C236   C     0.12350   0.94498   0.74788   0.00000  Uiso   1.00
C237   C     0.11595   0.89064   0.76625   0.00000  Uiso   1.00
C238   C     0.06770   0.88533   0.79795   0.00000  Uiso   1.00
C239   C     0.96092   0.85075   0.33672   0.00000  Uiso   1.00
C240   C     0.97392   0.81093   0.37778   0.00000  Uiso   1.00
C241   C     0.99324   0.83836   0.42500   0.00000  Uiso   1.00
C242   C     0.03929   0.16177   0.64770   0.00000  Uiso   1.00
C243   C     0.01986   0.11939   0.68327   0.00000  Uiso   1.00
C244   C     0.99965   0.07539   0.65125   0.00000  Uiso   1.00
C245   C     0.96226   0.65353   0.84982   0.00000  Uiso   1.00
C246   C     0.24955   0.24940   0.10994   0.00000  Uiso   1.00
C247   C     0.99309   0.60528   0.83905   0.00000  Uiso   1.00
C248   C     0.02299   0.58759   0.88533   0.00000  Uiso   1.00
C249   C     0.03957   0.34417   0.15535   0.00000  Uiso   1.00
C250   C     0.00427   0.33595   0.11027   0.00000  Uiso   1.00
C251   C     0.98430   0.38632   0.09033   0.00000  Uiso   1.00
C252   C     0.94819   0.24352   0.62661   0.00000  Uiso   1.00
C253   C     0.89882   0.27356   0.62298   0.00000  Uiso   1.00
C254   C     0.89368   0.29788   0.57093   0.00000  Uiso   1.00
C255   C     0.05343   0.87217   0.24525   0.00000  Uiso   1.00
C256   C     0.10653   0.87403   0.22122   0.00000  Uiso   1.00
C257   C     0.88999   0.24981   0.75038   0.00000  Uiso   1.00
C258   C     0.11461   0.92179   0.18960   0.00000  Uiso   1.00
C259   C     0.94612   0.37308   0.24041   0.00000  Uiso   1.00
C260   C     0.89603   0.37369   0.27001   0.00000  Uiso   1.00
C261   C     0.88787   0.42155   0.30181   0.00000  Uiso   1.00
C262   C     0.05399   0.74700   0.86666   0.00000  Uiso   1.00
C263   C     0.10831   0.76540   0.87427   0.00000  Uiso   1.00
C264   C     0.11431   0.79677   0.92244   0.00000  Uiso   1.00
C265   C     0.03712   0.16565   0.36441   0.00000  Uiso   1.00
C266   C     0.01488   0.19571   0.40884   0.00000  Uiso   1.00
C267   C     0.97789   0.16224   0.43888   0.00000  Uiso   1.00
C268   C     0.10998   0.74955   0.25012   0.00000  Uiso   1.00
C269   C     0.96575   0.85000   0.65614   0.00000  Uiso   1.00
C270   C     0.00326   0.89250   0.67038   0.00000  Uiso   1.00
C271   C     0.01792   0.92467   0.62418   0.00000  Uiso   1.00
C272   C     0.04130   0.32918   0.86168   0.00000  Uiso   1.00
C273   C     0.02216   0.37447   0.82985   0.00000  Uiso   1.00
C274   C     0.99434   0.41240   0.86385   0.00000  Uiso   1.00
C275   C     0.96672   0.64217   0.15919   0.00000  Uiso   1.00
C276   C     0.98931   0.67073   0.11357   0.00000  Uiso   1.00
C277   C     0.02407   0.63548   0.08297   0.00000  Uiso   1.00
C278   C     0.05593   0.75737   0.62885   0.00000  Uiso   1.00
C279   C     0.24952   0.24952   0.89011   0.00000  Uiso   1.00
C280   C     0.11116   0.74404   0.61781   0.00000  Uiso   1.00
C281   C     0.11722   0.71238   0.56973   0.00000  Uiso   1.00
C282   C     0.94759   0.13382   0.27170   0.00000  Uiso   1.00
C283   C     0.89416   0.11357   0.26131   0.00000  Uiso   1.00
C284   C     0.89618   0.06532   0.22916   0.00000  Uiso   1.00
C285   C     0.05603   0.62630   0.25008   0.00000  Uiso   1.00
C286   C     0.11086   0.62383   0.26955   0.00000  Uiso   1.00
C287   C     0.12262   0.57473   0.29825   0.00000  Uiso   1.00
C288   C     0.94439   0.25396   0.87675   0.00000  Uiso   1.00
C289   C     0.89500   0.22327   0.87497   0.00000  Uiso   1.00
C290   C     0.74967   0.75010   0.10986   0.00000  Uiso   1.00
C291   C     0.88528   0.19497   0.92471   0.00000  Uiso   1.00
C292   C     0.85299   0.66560   0.04283   0.00000  Uiso   1.00
C293   C     0.81466   0.62236   0.03209   0.00000  Uiso   1.00
C294   C     0.84399   0.57270   0.02334   0.00000  Uiso   1.00
C295   C     0.15990   0.35186   0.96057   0.00000  Uiso   1.00
C296   C     0.11713   0.31558   0.97751   0.00000  Uiso   1.00
C297   C     0.07091   0.34706   0.99324   0.00000  Uiso   1.00
C298   C     0.67108   0.14115   0.04653   0.00000  Uiso   1.00
C299   C     0.62117   0.12936   0.01794   0.00000  Uiso   1.00
C300   C     0.62472   0.08177   0.98426   0.00000  Uiso   1.00
C301   C     0.10983   0.25056   0.25098   0.00000  Uiso   1.00
C302   C     0.35848   0.82942   0.96139   0.00000  Uiso   1.00
C303   C     0.32344   0.87260   0.97911   0.00000  Uiso   1.00
C304   C     0.35465   0.91022   0.00985   0.00000  Uiso   1.00
C305   C     0.24478   0.37201   0.05089   0.00000  Uiso   1.00
C306   C     0.26809   0.38040   0.10324   0.00000  Uiso   1.00
C307   C     0.29482   0.43192   0.10531   0.00000  Uiso   1.00
C308   C     0.87052   0.75287   0.94727   0.00000  Uiso   1.00
C309   C     0.88071   0.76829   0.89226   0.00000  Uiso   1.00
C310   C     0.92881   0.80005   0.88807   0.00000  Uiso   1.00
C311   C     0.37421   0.74254   0.05778   0.00000  Uiso   1.00
C312   C     0.89022   0.74992   0.75000   0.00000  Uiso   1.00
C313   C     0.38141   0.72967   0.11376   0.00000  Uiso   1.00
C314   C     0.42494   0.69273   0.12318   0.00000  Uiso   1.00
C315   C     0.74870   0.13040   0.94378   0.00000  Uiso   1.00
C316   C     0.76043   0.11874   0.88830   0.00000  Uiso   1.00
C317   C     0.79514   0.07277   0.88327   0.00000  Uiso   1.00
C318   C     0.14900   0.65436   0.96202   0.00000  Uiso   1.00
C319   C     0.18238   0.61163   0.98330   0.00000  Uiso   1.00
C320   C     0.14949   0.57600   0.01549   0.00000  Uiso   1.00
C321   C     0.84895   0.34672   0.03634   0.00000  Uiso   1.00
C322   C     0.89341   0.33134   0.00233   0.00000  Uiso   1.00
C323   C     0.75007   0.24990   0.10982   0.00000  Uiso   1.00
C324   C     0.91342   0.37647   0.97205   0.00000  Uiso   1.00
C325   C     0.32777   0.13568   0.95964   0.00000  Uiso   1.00
C326   C     0.37473   0.16458   0.97905   0.00000  Uiso   1.00
C327   C     0.40954   0.12825   0.00823   0.00000  Uiso   1.00
C328   C     0.63840   0.83424   0.03351   0.00000  Uiso   1.00
C329   C     0.66707   0.88041   0.01216   0.00000  Uiso   1.00
C330   C     0.63025   0.91662   0.98550   0.00000  Uiso   1.00
C331   C     0.75906   0.37027   0.94605   0.00000  Uiso   1.00
C332   C     0.73591   0.37576   0.89323   0.00000  Uiso   1.00
C333   C     0.70470   0.42438   0.88687   0.00000  Uiso   1.00
C334   C     0.75041   0.74975   0.39014   0.00000  Uiso   1.00
C335   C     0.25064   0.74898   0.89024   0.00000  Uiso   1.00
C336   C     0.12913   0.74165   0.05466   0.00000  Uiso   1.00
C337   C     0.11451   0.75350   0.10935   0.00000  Uiso   1.00
C338   C     0.06761   0.78742   0.11184   0.00000  Uiso   1.00
C339   C     0.62511   0.74594   0.94239   0.00000  Uiso   1.00
C340   C     0.62632   0.72156   0.88993   0.00000  Uiso   1.00
C341   C     0.57727   0.69400   0.87603   0.00000  Uiso   1.00
C342   C     0.24875   0.12410   0.05698   0.00000  Uiso   1.00
C343   C     0.23049   0.12044   0.11162   0.00000  Uiso   1.00
C344   C     0.19809   0.07339   0.12103   0.00000  Uiso   1.00
C345   C     0.64918   0.46448   0.66325   0.00000  Uiso   1.00
C346   C     0.74941   0.89019   0.74968   0.00000  Uiso   1.00
C347   C     0.61554   0.47415   0.71060   0.00000  Uiso   1.00
C348   C     0.59635   0.52902   0.71072   0.00000  Uiso   1.00
C349   C     0.35629   0.53595   0.33289   0.00000  Uiso   1.00
C350   C     0.31726   0.51467   0.37091   0.00000  Uiso   1.00
C351   C     0.34558   0.48971   0.41425   0.00000  Uiso   1.00
C352   C     0.64699   0.46623   0.34524   0.00000  Uiso   1.00
C353   C     0.67807   0.48770   0.38946   0.00000  Uiso   1.00
C354   C     0.64513   0.52368   0.42071   0.00000  Uiso   1.00
C355   C     0.34714   0.53307   0.65042   0.00000  Uiso   1.00
C356   C     0.38844   0.49971   0.67421   0.00000  Uiso   1.00
C357   C     0.24988   0.10993   0.25002   0.00000  Uiso   1.00
C358   C     0.42083   0.47477   0.63318   0.00000  Uiso   1.00
C359   C     0.37956   0.44359   0.24637   0.00000  Uiso   1.00
C360   C     0.37928   0.39211   0.21955   0.00000  Uiso   1.00
C361   C     0.42671   0.38410   0.18744   0.00000  Uiso   1.00
C362   C     0.74581   0.55404   0.62806   0.00000  Uiso   1.00
C363   C     0.76392   0.60805   0.61819   0.00000  Uiso   1.00
C364   C     0.79520   0.61077   0.56980   0.00000  Uiso   1.00
C365   C     0.25793   0.44403   0.62304   0.00000  Uiso   1.00
C366   C     0.23348   0.39155   0.62094   0.00000  Uiso   1.00
C367   C     0.20510   0.38094   0.57161   0.00000  Uiso   1.00
C368   C     0.74998   0.11008   0.25036   0.00000  Uiso   1.00
C369   C     0.62685   0.55710   0.24785   0.00000  Uiso   1.00
C370   C     0.61973   0.61291   0.23225   0.00000  Uiso   1.00
C371   C     0.57794   0.61963   0.19233   0.00000  Uiso   1.00
C372   C     0.46399   0.33354   0.35457   0.00000  Uiso   1.00
C373   C     0.47967   0.28547   0.38472   0.00000  Uiso   1.00
C374   C     0.51633   0.30040   0.42699   0.00000  Uiso   1.00
C375   C     0.53434   0.66174   0.64668   0.00000  Uiso   1.00
C376   C     0.51200   0.62364   0.68511   0.00000  Uiso   1.00
C377   C     0.49063   0.57778   0.65670   0.00000  Uiso   1.00
C378   C     0.46530   0.65394   0.35142   0.00000  Uiso   1.00
C379   C     0.24949   0.88999   0.75027   0.00000  Uiso   1.00
C380   C     0.47982   0.61050   0.31529   0.00000  Uiso   1.00
C381   C     0.50194   0.56545   0.34505   0.00000  Uiso   1.00
C382   C     0.53570   0.35825   0.66183   0.00000  Uiso   1.00
C383   C     0.51333   0.32634   0.61859   0.00000  Uiso   1.00
C384   C     0.47421   0.35736   0.58954   0.00000  Uiso   1.00
C385   C     0.44418   0.74914   0.62224   0.00000  Uiso   1.00
C386   C     0.39402   0.77826   0.62285   0.00000  Uiso   1.00
C387   C     0.38669   0.81014   0.57517   0.00000  Uiso   1.00
C388   C     0.55609   0.37524   0.27706   0.00000  Uiso   1.00
C389   C     0.59090   0.37694   0.23010   0.00000  Uiso   1.00
C390   C     0.24965   0.10989   0.75022   0.00000  Uiso   1.00
C391   C     0.59576   0.43094   0.20980   0.00000  Uiso   1.00
C392   C     0.44322   0.37706   0.74769   0.00000  Uiso   1.00
C393   C     0.39276   0.37482   0.77616   0.00000  Uiso   1.00
C394   C     0.38205   0.42243   0.80721   0.00000  Uiso   1.00
C395   C     0.55588   0.74973   0.37272   0.00000  Uiso   1.00
C396   C     0.60775   0.77623   0.37200   0.00000  Uiso   1.00
C397   C     0.61915   0.80512   0.42124   0.00000  Uiso   1.00
C398   C     0.33418   0.64604   0.53948   0.00000  Uiso   1.00
C399   C     0.28623   0.61500   0.52533   0.00000  Uiso   1.00
C400   C     0.30031   0.57607   0.48541   0.00000  Uiso   1.00
C401   C     0.75033   0.89023   0.25015   0.00000  Uiso   1.00
C402   C     0.65504   0.34629   0.46249   0.00000  Uiso   1.00
C403   C     0.61161   0.34216   0.50167   0.00000  Uiso   1.00
C404   C     0.57917   0.39037   0.50300   0.00000  Uiso   1.00
C405   C     0.65053   0.65371   0.53584   0.00000  Uiso   1.00
C406   C     0.60267   0.67011   0.50685   0.00000  Uiso   1.00
C407   C     0.58591   0.63065   0.46803   0.00000  Uiso   1.00
C408   C     0.34384   0.34869   0.46355   0.00000  Uiso   1.00
C409   C     0.33441   0.39238   0.50125   0.00000  Uiso   1.00
C410   C     0.38213   0.42441   0.51015   0.00000  Uiso   1.00
C411   C     0.74850   0.36989   0.55061   0.00000  Uiso   1.00
C412   C     0.25017   0.89012   0.25037   0.00000  Uiso   1.00
C413   C     0.76896   0.37796   0.60423   0.00000  Uiso   1.00
C414   C     0.79602   0.42877   0.60855   0.00000  Uiso   1.00
C415   C     0.37397   0.71875   0.44547   0.00000  Uiso   1.00
C416   C     0.37800   0.76408   0.40891   0.00000  Uiso   1.00
C417   C     0.43158   0.78575   0.40920   0.00000  Uiso   1.00
C418   C     0.37283   0.25571   0.55340   0.00000  Uiso   1.00
C419   C     0.37572   0.23099   0.60587   0.00000  Uiso   1.00
C420   C     0.42230   0.19760   0.61308   0.00000  Uiso   1.00
C421   C     0.74574   0.63065   0.44384   0.00000  Uiso   1.00
C422   C     0.75788   0.61775   0.38868   0.00000  Uiso   1.00
C423   C     0.74822   0.10995   0.74861   0.00000  Uiso   1.00
C424   C     0.79312   0.57186   0.38394   0.00000  Uiso   1.00
C425   C     0.21904   0.47401   0.21286   0.00000  Uiso   1.00
C426   C     0.60975   0.25166   0.75169   0.00000  Uiso   1.00
C427   C     0.78024   0.52695   0.78598   0.00000  Uiso   1.00
C428   C     0.20337   0.47212   0.76731   0.00000  Uiso   1.00
C429   C     0.78572   0.52707   0.22314   0.00000  Uiso   1.00
C430   C     0.78691   0.47367   0.77986   0.00000  Uiso   1.00
C431   C     0.22597   0.52769   0.20626   0.00000  Uiso   1.00
C432   C     0.78026   0.47411   0.21614   0.00000  Uiso   1.00
C433   C     0.20272   0.52615   0.76580   0.00000  Uiso   1.00
C434   C     0.47376   0.78790   0.78052   0.00000  Uiso   1.00
C435   C     0.52685   0.21774   0.21641   0.00000  Uiso   1.00
C436   C     0.47240   0.22888   0.79426   0.00000  Uiso   1.00
C437   C     0.39017   0.75066   0.25092   0.00000  Uiso   1.00
C438   C     0.52685   0.77905   0.21472   0.00000  Uiso   1.00
C439   C     0.47354   0.22388   0.21023   0.00000  Uiso   1.00
C440   C     0.52759   0.79300   0.77420   0.00000  Uiso   1.00
C441   C     0.47367   0.78556   0.22089   0.00000  Uiso   1.00
C442   C     0.52628   0.23000   0.79506   0.00000  Uiso   1.00
C443   C     0.78409   0.21613   0.52680   0.00000  Uiso   1.00
C444   C     0.22025   0.78657   0.47361   0.00000  Uiso   1.00
C445   C     0.22998   0.20447   0.52770   0.00000  Uiso   1.00
C446   C     0.78372   0.78331   0.47323   0.00000  Uiso   1.00
C447   C     0.22741   0.79273   0.52686   0.00000  Uiso   1.00
C448   C     0.75000   0.24995   0.39015   0.00000  Uiso   1.00
C449   C     0.78854   0.22219   0.47314   0.00000  Uiso   1.00
C450   C     0.78919   0.77656   0.52657   0.00000  Uiso   1.00
C451   C     0.23126   0.20412   0.47376   0.00000  Uiso   1.00
C452   C     0.73278   0.97360   0.20801   0.00000  Uiso   1.00
C453   C     0.29009   0.02660   0.77180   0.00000  Uiso   1.00
C454   C     0.21770   0.97323   0.28467   0.00000  Uiso   1.00
C455   C     0.76738   0.02717   0.70593   0.00000  Uiso   1.00
C456   C     0.29105   0.97314   0.76880   0.00000  Uiso   1.00
C457   C     0.73615   0.02720   0.20696   0.00000  Uiso   1.00
C458   C     0.76484   0.97340   0.70492   0.00000  Uiso   1.00
C459   C     0.25189   0.75186   0.60998   0.00000  Uiso   1.00
C460   C     0.21259   0.02643   0.27805   0.00000  Uiso   1.00
C461   C     0.71207   0.02744   0.78060   0.00000  Uiso   1.00
C462   C     0.28262   0.97331   0.21764   0.00000  Uiso   1.00
C463   C     0.20651   0.02702   0.72982   0.00000  Uiso   1.00
C464   C     0.77407   0.97348   0.29258   0.00000  Uiso   1.00
C465   C     0.28864   0.02660   0.22457   0.00000  Uiso   1.00
C466   C     0.71871   0.97377   0.78596   0.00000  Uiso   1.00
C467   C     0.76943   0.02747   0.29429   0.00000  Uiso   1.00
C468   C     0.20534   0.97313   0.73222   0.00000  Uiso   1.00
C469   C     0.97348   0.79033   0.27049   0.00000  Uiso   1.00
C470   C     0.39025   0.75125   0.74915   0.00000  Uiso   1.00
C471   C     0.02648   0.22613   0.71080   0.00000  Uiso   1.00
C472   C     0.97323   0.71587   0.78312   0.00000  Uiso   1.00
C473   C     0.02644   0.28416   0.22097   0.00000  Uiso   1.00
C474   C     0.97302   0.22963   0.70938   0.00000  Uiso   1.00
C475   C     0.02684   0.79167   0.26715   0.00000  Uiso   1.00
C476   C     0.97351   0.29063   0.22836   0.00000  Uiso   1.00
C477   C     0.02663   0.72244   0.78775   0.00000  Uiso   1.00
C478   C     0.02725   0.22196   0.29098   0.00000  Uiso   1.00
C479   C     0.97391   0.78216   0.71677   0.00000  Uiso   1.00
C480   C     0.02703   0.26928   0.79372   0.00000  Uiso   1.00
H1     H     0.14445   0.42210   0.13658   0.00000  Uiso   1.00
H2     H     0.81383   0.53518   0.92876   0.00000  Uiso   1.00
H3     H     0.48375   0.87267   0.24890   0.00000  Uiso   1.00
H4     H     0.36910   0.87752   0.22787   0.00000  Uiso   1.00
H5     H     0.39641   0.84688   0.28327   0.00000  Uiso   1.00
H6     H     0.42740   0.92569   0.31627   0.00000  Uiso   1.00
H7     H     0.36309   0.93764   0.29523   0.00000  Uiso   1.00
H8     H     0.41652   0.95853   0.25705   0.00000  Uiso   1.00
H9     H     0.54100   0.21273   0.91010   0.00000  Uiso   1.00
H10    H     0.53249   0.27102   0.87579   0.00000  Uiso   1.00
H11    H     0.63220   0.21166   0.88940   0.00000  Uiso   1.00
H12    H     0.62597   0.27309   0.85816   0.00000  Uiso   1.00
H13    H     0.81368   0.47812   0.89250   0.00000  Uiso   1.00
H14    H     0.58971   0.30701   0.94259   0.00000  Uiso   1.00
H15    H     0.65599   0.29041   0.94236   0.00000  Uiso   1.00
H16    H     0.61059   0.24777   0.97106   0.00000  Uiso   1.00
H17    H     0.86800   0.14036   0.57287   0.00000  Uiso   1.00
H18    H     0.87208   0.17485   0.51760   0.00000  Uiso   1.00
H19    H     0.82607   0.06937   0.53968   0.00000  Uiso   1.00
H20    H     0.79623   0.10447   0.48998   0.00000  Uiso   1.00
H21    H     0.87380   0.10938   0.44103   0.00000  Uiso   1.00
H22    H     0.86504   0.04434   0.46149   0.00000  Uiso   1.00
H23    H     0.91171   0.08375   0.49317   0.00000  Uiso   1.00
H24    H     0.90423   0.46893   0.89545   0.00000  Uiso   1.00
H25    H     0.14361   0.86544   0.42233   0.00000  Uiso   1.00
H26    H     0.18467   0.87620   0.47300   0.00000  Uiso   1.00
H27    H     0.08293   0.81565   0.47370   0.00000  Uiso   1.00
H28    H     0.11833   0.82557   0.52978   0.00000  Uiso   1.00
H29    H     0.10558   0.91663   0.52825   0.00000  Uiso   1.00
H30    H     0.04445   0.88581   0.51877   0.00000  Uiso   1.00
H31    H     0.07683   0.91496   0.46591   0.00000  Uiso   1.00
H32    H     0.15136   0.12332   0.57923   0.00000  Uiso   1.00
H33    H     0.16516   0.11583   0.51470   0.00000  Uiso   1.00
H34    H     0.11691   0.20784   0.57007   0.00000  Uiso   1.00
H35    H     0.88314   0.48392   0.95882   0.00000  Uiso   1.00
H36    H     0.13273   0.21019   0.50350   0.00000  Uiso   1.00
H37    H     0.07713   0.14066   0.48282   0.00000  Uiso   1.00
H38    H     0.04158   0.18469   0.52290   0.00000  Uiso   1.00
H39    H     0.06483   0.12520   0.54758   0.00000  Uiso   1.00
H40    H     0.86496   0.86442   0.42836   0.00000  Uiso   1.00
H41    H     0.87279   0.82544   0.47886   0.00000  Uiso   1.00
H42    H     0.81294   0.92745   0.47093   0.00000  Uiso   1.00
H43    H     0.80262   0.88718   0.52439   0.00000  Uiso   1.00
H44    H     0.89039   0.89440   0.55260   0.00000  Uiso   1.00
H45    H     0.86557   0.95726   0.54035   0.00000  Uiso   1.00
H46    H     0.91355   0.53239   0.92067   0.00000  Uiso   1.00
H47    H     0.90838   0.92843   0.49511   0.00000  Uiso   1.00
H48    H     0.21331   0.90911   0.54359   0.00000  Uiso   1.00
H49    H     0.26983   0.87378   0.52917   0.00000  Uiso   1.00
H50    H     0.21893   0.89259   0.63277   0.00000  Uiso   1.00
H51    H     0.27515   0.85346   0.62493   0.00000  Uiso   1.00
H52    H     0.32377   0.92595   0.59201   0.00000  Uiso   1.00
H53    H     0.29672   0.94085   0.65310   0.00000  Uiso   1.00
H54    H     0.26854   0.96664   0.59613   0.00000  Uiso   1.00
H55    H     0.90236   0.23236   0.46449   0.00000  Uiso   1.00
H56    H     0.85558   0.28156   0.46594   0.00000  Uiso   1.00
H57    H     0.12258   0.42357   0.84870   0.00000  Uiso   1.00
H58    H     0.89447   0.22547   0.37165   0.00000  Uiso   1.00
H59    H     0.84907   0.27693   0.37126   0.00000  Uiso   1.00
H60    H     0.94923   0.29777   0.42426   0.00000  Uiso   1.00
H61    H     0.90728   0.33922   0.38969   0.00000  Uiso   1.00
H62    H     0.94751   0.29555   0.35583   0.00000  Uiso   1.00
H63    H     0.90565   0.79255   0.54653   0.00000  Uiso   1.00
H64    H     0.87195   0.73802   0.52310   0.00000  Uiso   1.00
H65    H     0.88179   0.77532   0.63288   0.00000  Uiso   1.00
H66    H     0.84812   0.71764   0.61501   0.00000  Uiso   1.00
H67    H     0.92589   0.67874   0.58455   0.00000  Uiso   1.00
H68    H     0.11234   0.48574   0.82779   0.00000  Uiso   1.00
H69    H     0.93749   0.70349   0.64756   0.00000  Uiso   1.00
H70    H     0.96043   0.73758   0.59238   0.00000  Uiso   1.00
H71    H     0.21225   0.08793   0.45093   0.00000  Uiso   1.00
H72    H     0.26720   0.11949   0.47602   0.00000  Uiso   1.00
H73    H     0.23050   0.11949   0.36579   0.00000  Uiso   1.00
H74    H     0.28934   0.14806   0.38729   0.00000  Uiso   1.00
H75    H     0.31826   0.06058   0.41525   0.00000  Uiso   1.00
H76    H     0.30577   0.06471   0.34791   0.00000  Uiso   1.00
H77    H     0.26033   0.03410   0.38881   0.00000  Uiso   1.00
H78    H     0.66140   0.92696   0.11798   0.00000  Uiso   1.00
H79    H     0.19834   0.43757   0.89128   0.00000  Uiso   1.00
H80    H     0.68180   0.99042   0.11183   0.00000  Uiso   1.00
H81    H     0.61708   0.94029   0.19746   0.00000  Uiso   1.00
H82    H     0.63660   0.00613   0.19986   0.00000  Uiso   1.00
H83    H     0.59124   0.02719   0.12333   0.00000  Uiso   1.00
H84    H     0.54802   0.99076   0.16344   0.00000  Uiso   1.00
H85    H     0.57717   0.96147   0.10915   0.00000  Uiso   1.00
H86    H     0.37239   0.07429   0.85063   0.00000  Uiso   1.00
H87    H     0.38435   0.01225   0.83029   0.00000  Uiso   1.00
H88    H     0.29037   0.05343   0.88804   0.00000  Uiso   1.00
H89    H     0.29301   0.98905   0.86611   0.00000  Uiso   1.00
H90    H     0.21215   0.49703   0.86099   0.00000  Uiso   1.00
H91    H     0.36020   0.96553   0.91865   0.00000  Uiso   1.00
H92    H     0.32359   0.00893   0.95849   0.00000  Uiso   1.00
H93    H     0.38214   0.02933   0.92936   0.00000  Uiso   1.00
H94    H     0.13182   0.91653   0.34750   0.00000  Uiso   1.00
H95    H     0.12583   0.96727   0.30631   0.00000  Uiso   1.00
H96    H     0.14532   0.96247   0.42127   0.00000  Uiso   1.00
H97    H     0.17377   0.01557   0.38994   0.00000  Uiso   1.00
H98    H     0.09419   0.05117   0.36558   0.00000  Uiso   1.00
H99    H     0.08450   0.02860   0.42919   0.00000  Uiso   1.00
H100   H     0.05977   0.99209   0.37633   0.00000  Uiso   1.00
H101   H     0.14368   0.54022   0.90210   0.00000  Uiso   1.00
H102   H     0.84866   0.07362   0.62426   0.00000  Uiso   1.00
H103   H     0.82386   0.01303   0.61244   0.00000  Uiso   1.00
H104   H     0.89672   0.05393   0.69339   0.00000  Uiso   1.00
H105   H     0.85912   0.00152   0.71462   0.00000  Uiso   1.00
H106   H     0.88570   0.94760   0.64420   0.00000  Uiso   1.00
H107   H     0.93977   0.97521   0.67585   0.00000  Uiso   1.00
H108   H     0.92061   0.99981   0.61488   0.00000  Uiso   1.00
H109   H     0.40758   0.96254   0.76934   0.00000  Uiso   1.00
H110   H     0.36569   0.97417   0.71656   0.00000  Uiso   1.00
H111   H     0.38877   0.86985   0.76530   0.00000  Uiso   1.00
H112   H     0.17274   0.48127   0.12954   0.00000  Uiso   1.00
H113   H     0.17736   0.50322   0.95004   0.00000  Uiso   1.00
H114   H     0.35126   0.87996   0.70857   0.00000  Uiso   1.00
H115   H     0.42449   0.90971   0.66148   0.00000  Uiso   1.00
H116   H     0.44614   0.85405   0.69602   0.00000  Uiso   1.00
H117   H     0.46224   0.91636   0.71819   0.00000  Uiso   1.00
H118   H     0.74425   0.05276   0.08967   0.00000  Uiso   1.00
H119   H     0.78910   0.02321   0.13122   0.00000  Uiso   1.00
H120   H     0.76198   0.13737   0.13633   0.00000  Uiso   1.00
H121   H     0.81533   0.10616   0.16549   0.00000  Uiso   1.00
H122   H     0.84822   0.08671   0.07647   0.00000  Uiso   1.00
H123   H     0.84248   0.15417   0.09024   0.00000  Uiso   1.00
H124   H     0.11640   0.48197   0.92660   0.00000  Uiso   1.00
H125   H     0.79527   0.12325   0.05139   0.00000  Uiso   1.00
H126   H     0.76759   0.95379   0.58804   0.00000  Uiso   1.00
H127   H     0.71492   0.96957   0.62857   0.00000  Uiso   1.00
H128   H     0.76549   0.86511   0.61651   0.00000  Uiso   1.00
H129   H     0.70954   0.87746   0.65490   0.00000  Uiso   1.00
H130   H     0.66899   0.90999   0.56895   0.00000  Uiso   1.00
H131   H     0.67608   0.84219   0.57998   0.00000  Uiso   1.00
H132   H     0.72015   0.87477   0.53903   0.00000  Uiso   1.00
H133   H     0.09752   0.03632   0.27685   0.00000  Uiso   1.00
H134   H     0.14063   0.03592   0.22440   0.00000  Uiso   1.00
H135   H     0.86359   0.58564   0.15742   0.00000  Uiso   1.00
H136   H     0.11318   0.12965   0.28755   0.00000  Uiso   1.00
H137   H     0.14678   0.12912   0.22712   0.00000  Uiso   1.00
H138   H     0.07123   0.09309   0.18428   0.00000  Uiso   1.00
H139   H     0.05726   0.15297   0.21483   0.00000  Uiso   1.00
H140   H     0.03784   0.09345   0.24398   0.00000  Uiso   1.00
H141   H     0.62518   0.07134   0.85940   0.00000  Uiso   1.00
H142   H     0.66527   0.02025   0.87103   0.00000  Uiso   1.00
H143   H     0.57463   0.02957   0.79590   0.00000  Uiso   1.00
H144   H     0.61477   0.97612   0.79478   0.00000  Uiso   1.00
H145   H     0.59470   0.95319   0.88238   0.00000  Uiso   1.00
H146   H     0.83378   0.52962   0.14164   0.00000  Uiso   1.00
H147   H     0.53571   0.96137   0.84784   0.00000  Uiso   1.00
H148   H     0.55747   0.00973   0.89145   0.00000  Uiso   1.00
H149   H     0.36240   0.92758   0.13593   0.00000  Uiso   1.00
H150   H     0.37236   0.97780   0.17776   0.00000  Uiso   1.00
H151   H     0.30401   0.97562   0.08151   0.00000  Uiso   1.00
H152   H     0.30867   0.03045   0.11946   0.00000  Uiso   1.00
H153   H     0.36642   0.03056   0.04163   0.00000  Uiso   1.00
H154   H     0.40486   0.98313   0.07315   0.00000  Uiso   1.00
H155   H     0.39534   0.04491   0.10196   0.00000  Uiso   1.00
H156   H     0.11978   0.07855   0.65769   0.00000  Uiso   1.00
H157   H     0.93350   0.54336   0.20294   0.00000  Uiso   1.00
H158   H     0.10671   0.01715   0.67841   0.00000  Uiso   1.00
H159   H     0.19591   0.05613   0.61183   0.00000  Uiso   1.00
H160   H     0.19428   0.99208   0.63494   0.00000  Uiso   1.00
H161   H     0.11426   0.97372   0.59404   0.00000  Uiso   1.00
H162   H     0.15694   0.00013   0.54719   0.00000  Uiso   1.00
H163   H     0.10650   0.03856   0.57338   0.00000  Uiso   1.00
H164   H     0.84373   0.93285   0.38943   0.00000  Uiso   1.00
H165   H     0.81889   0.99275   0.39035   0.00000  Uiso   1.00
H166   H     0.90020   0.94566   0.31919   0.00000  Uiso   1.00
H167   H     0.87387   0.00734   0.30711   0.00000  Uiso   1.00
H168   H     0.90012   0.48375   0.20215   0.00000  Uiso   1.00
H169   H     0.90892   0.04393   0.38189   0.00000  Uiso   1.00
H170   H     0.95907   0.00379   0.35880   0.00000  Uiso   1.00
H171   H     0.92065   0.98262   0.41144   0.00000  Uiso   1.00
H172   H     0.40611   0.04435   0.21905   0.00000  Uiso   1.00
H173   H     0.36621   0.02751   0.27223   0.00000  Uiso   1.00
H174   H     0.38109   0.13356   0.22732   0.00000  Uiso   1.00
H175   H     0.34450   0.11846   0.28395   0.00000  Uiso   1.00
H176   H     0.43008   0.08002   0.31851   0.00000  Uiso   1.00
H177   H     0.42011   0.14827   0.31803   0.00000  Uiso   1.00
H178   H     0.45929   0.11979   0.27012   0.00000  Uiso   1.00
H179   H     0.90825   0.47707   0.10913   0.00000  Uiso   1.00
H180   H     0.71314   0.96346   0.90181   0.00000  Uiso   1.00
H181   H     0.76847   0.96805   0.86138   0.00000  Uiso   1.00
H182   H     0.71021   0.87054   0.88897   0.00000  Uiso   1.00
H183   H     0.76931   0.87421   0.85320   0.00000  Uiso   1.00
H184   H     0.76371   0.91793   0.96030   0.00000  Uiso   1.00
H185   H     0.81822   0.90006   0.92256   0.00000  Uiso   1.00
H186   H     0.77683   0.85167   0.94778   0.00000  Uiso   1.00
H187   H     0.77094   0.05758   0.41152   0.00000  Uiso   1.00
H188   H     0.72429   0.02320   0.37595   0.00000  Uiso   1.00
H189   H     0.74451   0.13766   0.36169   0.00000  Uiso   1.00
H190   H     0.96904   0.48368   0.14035   0.00000  Uiso   1.00
H191   H     0.68879   0.10261   0.34300   0.00000  Uiso   1.00
H192   H     0.67461   0.08804   0.43995   0.00000  Uiso   1.00
H193   H     0.66964   0.15339   0.41796   0.00000  Uiso   1.00
H194   H     0.72608   0.13294   0.44988   0.00000  Uiso   1.00
H195   H     0.08804   0.95550   0.72758   0.00000  Uiso   1.00
H196   H     0.12769   0.97143   0.78080   0.00000  Uiso   1.00
H197   H     0.11272   0.86606   0.73230   0.00000  Uiso   1.00
H198   H     0.14923   0.87843   0.78913   0.00000  Uiso   1.00
H199   H     0.06711   0.91424   0.82871   0.00000  Uiso   1.00
H200   H     0.06641   0.84699   0.81498   0.00000  Uiso   1.00
H201   H     0.94230   0.53715   0.10715   0.00000  Uiso   1.00
H202   H     0.03338   0.88953   0.77388   0.00000  Uiso   1.00
H203   H     0.92803   0.87215   0.35197   0.00000  Uiso   1.00
H204   H     0.99147   0.87958   0.33225   0.00000  Uiso   1.00
H205   H     0.93953   0.78826   0.38747   0.00000  Uiso   1.00
H206   H     0.00428   0.78441   0.36520   0.00000  Uiso   1.00
H207   H     0.03066   0.85584   0.41573   0.00000  Uiso   1.00
H208   H     0.99743   0.81089   0.45689   0.00000  Uiso   1.00
H209   H     0.96677   0.86910   0.43694   0.00000  Uiso   1.00
H210   H     0.07372   0.14634   0.62937   0.00000  Uiso   1.00
H211   H     0.01268   0.16855   0.61607   0.00000  Uiso   1.00
H212   H     0.90190   0.45828   0.80539   0.00000  Uiso   1.00
H213   H     0.05124   0.10583   0.70791   0.00000  Uiso   1.00
H214   H     0.98851   0.13198   0.70834   0.00000  Uiso   1.00
H215   H     0.96258   0.08609   0.63386   0.00000  Uiso   1.00
H216   H     0.99459   0.04173   0.67594   0.00000  Uiso   1.00
H217   H     0.02639   0.06529   0.62016   0.00000  Uiso   1.00
H218   H     0.92803   0.64159   0.87153   0.00000  Uiso   1.00
H219   H     0.98048   0.68085   0.87568   0.00000  Uiso   1.00
H220   H     0.96670   0.57447   0.82683   0.00000  Uiso   1.00
H221   H     0.02029   0.61245   0.80782   0.00000  Uiso   1.00
H222   H     0.05365   0.61537   0.89360   0.00000  Uiso   1.00
H223   H     0.06827   0.45057   0.16967   0.00000  Uiso   1.00
H224   H     0.87223   0.47939   0.74810   0.00000  Uiso   1.00
H225   H     0.04066   0.55007   0.87708   0.00000  Uiso   1.00
H226   H     0.99788   0.58375   0.91906   0.00000  Uiso   1.00
H227   H     0.07537   0.36108   0.14058   0.00000  Uiso   1.00
H228   H     0.02561   0.37217   0.18345   0.00000  Uiso   1.00
H229   H     0.02583   0.31547   0.08067   0.00000  Uiso   1.00
H230   H     0.97193   0.31055   0.12005   0.00000  Uiso   1.00
H231   H     0.94842   0.39580   0.11034   0.00000  Uiso   1.00
H232   H     0.97719   0.38289   0.04936   0.00000  Uiso   1.00
H233   H     0.01249   0.41745   0.09532   0.00000  Uiso   1.00
H234   H     0.95111   0.21959   0.59193   0.00000  Uiso   1.00
H235   H     0.88773   0.36995   0.78677   0.00000  Uiso   1.00
H236   H     0.98164   0.26976   0.62646   0.00000  Uiso   1.00
H237   H     0.86674   0.24688   0.62810   0.00000  Uiso   1.00
H238   H     0.89727   0.30313   0.65307   0.00000  Uiso   1.00
H239   H     0.92422   0.32641   0.56471   0.00000  Uiso   1.00
H240   H     0.85609   0.31616   0.56683   0.00000  Uiso   1.00
H241   H     0.89643   0.26768   0.54196   0.00000  Uiso   1.00
H242   H     0.04574   0.90950   0.26420   0.00000  Uiso   1.00
H243   H     0.02362   0.86718   0.21492   0.00000  Uiso   1.00
H244   H     0.13489   0.87419   0.25248   0.00000  Uiso   1.00
H245   H     0.11283   0.83978   0.19691   0.00000  Uiso   1.00
H246   H     0.85317   0.38508   0.72892   0.00000  Uiso   1.00
H247   H     0.08612   0.92355   0.15799   0.00000  Uiso   1.00
H248   H     0.15403   0.92110   0.17346   0.00000  Uiso   1.00
H249   H     0.11062   0.95603   0.21446   0.00000  Uiso   1.00
H250   H     0.94797   0.40822   0.21695   0.00000  Uiso   1.00
H251   H     0.97911   0.37458   0.26705   0.00000  Uiso   1.00
H252   H     0.86501   0.37123   0.24216   0.00000  Uiso   1.00
H253   H     0.89425   0.34032   0.29559   0.00000  Uiso   1.00
H254   H     0.92355   0.43245   0.32217   0.00000  Uiso   1.00
H255   H     0.85710   0.41366   0.33018   0.00000  Uiso   1.00
H256   H     0.87455   0.45347   0.27726   0.00000  Uiso   1.00
H257   H     0.92619   0.41932   0.68796   0.00000  Uiso   1.00
H258   H     0.04038   0.73185   0.90365   0.00000  Uiso   1.00
H259   H     0.02997   0.78038   0.85686   0.00000  Uiso   1.00
H260   H     0.13187   0.73118   0.87606   0.00000  Uiso   1.00
H261   H     0.12178   0.78870   0.84197   0.00000  Uiso   1.00
H262   H     0.09180   0.83231   0.91949   0.00000  Uiso   1.00
H263   H     0.15500   0.80684   0.92783   0.00000  Uiso   1.00
H264   H     0.10105   0.77444   0.95556   0.00000  Uiso   1.00
H265   H     0.06893   0.14257   0.38001   0.00000  Uiso   1.00
H266   H     0.01191   0.13643   0.34866   0.00000  Uiso   1.00
H267   H     0.04634   0.20945   0.43345   0.00000  Uiso   1.00
H268   H     0.94552   0.35992   0.71648   0.00000  Uiso   1.00
H269   H     0.99511   0.22959   0.39454   0.00000  Uiso   1.00
H270   H     0.94253   0.15740   0.41660   0.00000  Uiso   1.00
H271   H     0.96861   0.18037   0.47587   0.00000  Uiso   1.00
H272   H     0.99441   0.12407   0.44651   0.00000  Uiso   1.00
H273   H     0.93221   0.86815   0.63815   0.00000  Uiso   1.00
H274   H     0.97965   0.82370   0.62672   0.00000  Uiso   1.00
H275   H     0.98641   0.91590   0.70109   0.00000  Uiso   1.00
H276   H     0.03856   0.87740   0.68703   0.00000  Uiso   1.00
H277   H     0.04873   0.90497   0.60323   0.00000  Uiso   1.00
H278   H     0.03228   0.96230   0.63697   0.00000  Uiso   1.00
H279   H     0.96303   0.41980   0.74564   0.00000  Uiso   1.00
H280   H     0.98515   0.93097   0.59811   0.00000  Uiso   1.00
H281   H     0.07567   0.34329   0.88128   0.00000  Uiso   1.00
H282   H     0.01526   0.31914   0.89296   0.00000  Uiso   1.00
H283   H     0.05442   0.39334   0.81050   0.00000  Uiso   1.00
H284   H     0.99563   0.36231   0.79997   0.00000  Uiso   1.00
H285   H     0.95625   0.39676   0.87341   0.00000  Uiso   1.00
H286   H     0.98918   0.44916   0.84379   0.00000  Uiso   1.00
H287   H     0.01566   0.41968   0.89963   0.00000  Uiso   1.00
H288   H     0.93637   0.61893   0.14243   0.00000  Uiso   1.00
H289   H     0.99183   0.61305   0.17553   0.00000  Uiso   1.00
H290   H     0.19923   0.59140   0.10367   0.00000  Uiso   1.00
H291   H     0.95813   0.68447   0.08850   0.00000  Uiso   1.00
H292   H     0.01136   0.70390   0.12635   0.00000  Uiso   1.00
H293   H     0.05981   0.62874   0.10442   0.00000  Uiso   1.00
H294   H     0.03369   0.65296   0.04581   0.00000  Uiso   1.00
H295   H     0.00522   0.59830   0.07556   0.00000  Uiso   1.00
H296   H     0.04078   0.77580   0.59401   0.00000  Uiso   1.00
H297   H     0.03408   0.72168   0.63583   0.00000  Uiso   1.00
H298   H     0.13242   0.78021   0.61338   0.00000  Uiso   1.00
H299   H     0.12703   0.72168   0.64978   0.00000  Uiso   1.00
H300   H     0.08851   0.68136   0.56862   0.00000  Uiso   1.00
H301   H     0.23206   0.53305   0.10498   0.00000  Uiso   1.00
H302   H     0.15578   0.69518   0.56937   0.00000  Uiso   1.00
H303   H     0.11318   0.73668   0.53551   0.00000  Uiso   1.00
H304   H     0.96829   0.10211   0.29015   0.00000  Uiso   1.00
H305   H     0.96571   0.14221   0.23425   0.00000  Uiso   1.00
H306   H     0.87471   0.10577   0.29807   0.00000  Uiso   1.00
H307   H     0.87204   0.14161   0.23914   0.00000  Uiso   1.00
H308   H     0.92530   0.03850   0.24386   0.00000  Uiso   1.00
H309   H     0.90565   0.07507   0.18924   0.00000  Uiso   1.00
H310   H     0.85845   0.04635   0.22970   0.00000  Uiso   1.00
H311   H     0.04740   0.58879   0.23160   0.00000  Uiso   1.00
H312   H     0.26900   0.63582   0.14887   0.00000  Uiso   1.00
H313   H     0.02825   0.63122   0.28242   0.00000  Uiso   1.00
H314   H     0.13538   0.62501   0.23507   0.00000  Uiso   1.00
H315   H     0.11918   0.65724   0.29482   0.00000  Uiso   1.00
H316   H     0.09244   0.56630   0.32702   0.00000  Uiso   1.00
H317   H     0.16007   0.57934   0.31767   0.00000  Uiso   1.00
H318   H     0.12617   0.54234   0.27110   0.00000  Uiso   1.00
H319   H     0.94372   0.27761   0.91197   0.00000  Uiso   1.00
H320   H     0.97832   0.22834   0.87949   0.00000  Uiso   1.00
H321   H     0.86330   0.25023   0.86891   0.00000  Uiso   1.00
H322   H     0.89622   0.19562   0.84274   0.00000  Uiso   1.00
H323   H     0.30345   0.57683   0.15455   0.00000  Uiso   1.00
H324   H     0.92087   0.17706   0.93884   0.00000  Uiso   1.00
H325   H     0.85653   0.16493   0.91794   0.00000  Uiso   1.00
H326   H     0.86965   0.22117   0.95395   0.00000  Uiso   1.00
H327   H     0.87482   0.65371   0.07690   0.00000  Uiso   1.00
H328   H     0.88153   0.66857   0.01198   0.00000  Uiso   1.00
H329   H     0.78811   0.61779   0.06484   0.00000  Uiso   1.00
H330   H     0.79205   0.63064   0.99716   0.00000  Uiso   1.00
H331   H     0.86942   0.57723   0.98949   0.00000  Uiso   1.00
H332   H     0.81648   0.54086   0.01715   0.00000  Uiso   1.00
H333   H     0.86805   0.56298   0.05702   0.00000  Uiso   1.00
H334   H     0.09684   0.50211   0.20337   0.00000  Uiso   1.00
H335   H     0.30265   0.57423   0.05736   0.00000  Uiso   1.00
H336   H     0.14537   0.37272   0.92697   0.00000  Uiso   1.00
H337   H     0.16596   0.38213   0.98877   0.00000  Uiso   1.00
H338   H     0.10679   0.28958   0.94596   0.00000  Uiso   1.00
H339   H     0.12844   0.29197   0.01058   0.00000  Uiso   1.00
H340   H     0.07860   0.36564   0.03043   0.00000  Uiso   1.00
H341   H     0.03680   0.32232   0.99598   0.00000  Uiso   1.00
H342   H     0.06272   0.37766   0.96538   0.00000  Uiso   1.00
H343   H     0.66760   0.12503   0.08551   0.00000  Uiso   1.00
H344   H     0.70465   0.12150   0.03115   0.00000  Uiso   1.00
H345   H     0.58986   0.12397   0.04649   0.00000  Uiso   1.00
H346   H     0.33661   0.62675   0.08538   0.00000  Uiso   1.00
H347   H     0.61005   0.16240   0.99324   0.00000  Uiso   1.00
H348   H     0.64585   0.09081   0.94846   0.00000  Uiso   1.00
H349   H     0.58564   0.06969   0.97330   0.00000  Uiso   1.00
H350   H     0.64385   0.04962   0.00456   0.00000  Uiso   1.00
H351   H     0.37937   0.84517   0.92844   0.00000  Uiso   1.00
H352   H     0.38841   0.82053   0.98942   0.00000  Uiso   1.00
H353   H     0.30662   0.89197   0.94554   0.00000  Uiso   1.00
H354   H     0.29147   0.85972   0.00341   0.00000  Uiso   1.00
H355   H     0.36178   0.89490   0.04858   0.00000  Uiso   1.00
H356   H     0.33301   0.94566   0.01255   0.00000  Uiso   1.00
H357   H     0.27527   0.63749   0.05969   0.00000  Uiso   1.00
H358   H     0.39177   0.91870   0.99145   0.00000  Uiso   1.00
H359   H     0.22300   0.40689   0.04112   0.00000  Uiso   1.00
H360   H     0.27538   0.36788   0.02155   0.00000  Uiso   1.00
H361   H     0.23680   0.38018   0.13157   0.00000  Uiso   1.00
H362   H     0.29556   0.34944   0.11248   0.00000  Uiso   1.00
H363   H     0.32999   0.43131   0.08150   0.00000  Uiso   1.00
H364   H     0.30443   0.44156   0.14530   0.00000  Uiso   1.00
H365   H     0.26868   0.46171   0.09076   0.00000  Uiso   1.00
H366   H     0.90606   0.73644   0.96368   0.00000  Uiso   1.00
H367   H     0.86108   0.78777   0.97015   0.00000  Uiso   1.00
H368   H     0.81327   0.45269   0.10184   0.00000  Uiso   1.00
H369   H     0.88552   0.73301   0.86946   0.00000  Uiso   1.00
H370   H     0.84810   0.79063   0.87692   0.00000  Uiso   1.00
H371   H     0.92412   0.83684   0.90842   0.00000  Uiso   1.00
H372   H     0.93710   0.80759   0.84730   0.00000  Uiso   1.00
H373   H     0.96079   0.77864   0.90539   0.00000  Uiso   1.00
H374   H     0.41085   0.75785   0.04328   0.00000  Uiso   1.00
H375   H     0.36563   0.70728   0.03575   0.00000  Uiso   1.00
H376   H     0.38941   0.76570   0.13397   0.00000  Uiso   1.00
H377   H     0.34606   0.71239   0.12900   0.00000  Uiso   1.00
H378   H     0.42220   0.65964   0.09724   0.00000  Uiso   1.00
H379   H     0.75942   0.48610   0.12683   0.00000  Uiso   1.00
H380   H     0.42284   0.67893   0.16303   0.00000  Uiso   1.00
H381   H     0.46211   0.71184   0.11764   0.00000  Uiso   1.00
H382   H     0.73505   0.09425   0.96083   0.00000  Uiso   1.00
H383   H     0.78462   0.14065   0.96388   0.00000  Uiso   1.00
H384   H     0.72395   0.11065   0.86896   0.00000  Uiso   1.00
H385   H     0.77973   0.15138   0.86980   0.00000  Uiso   1.00
H386   H     0.83304   0.08092   0.89991   0.00000  Uiso   1.00
H387   H     0.80010   0.06326   0.84247   0.00000  Uiso   1.00
H388   H     0.77816   0.03998   0.90358   0.00000  Uiso   1.00
H389   H     0.12942   0.63793   0.92858   0.00000  Uiso   1.00
H390   H     0.77650   0.37047   0.12268   0.00000  Uiso   1.00
H391   H     0.11759   0.66449   0.98758   0.00000  Uiso   1.00
H392   H     0.20073   0.59077   0.95153   0.00000  Uiso   1.00
H393   H     0.21312   0.62647   0.00726   0.00000  Uiso   1.00
H394   H     0.13332   0.59738   0.04802   0.00000  Uiso   1.00
H395   H     0.17262   0.54390   0.03005   0.00000  Uiso   1.00
H396   H     0.11711   0.56079   0.99308   0.00000  Uiso   1.00
H397   H     0.86516   0.36704   0.06960   0.00000  Uiso   1.00
H398   H     0.82298   0.37488   0.01975   0.00000  Uiso   1.00
H399   H     0.92404   0.31494   0.02629   0.00000  Uiso   1.00
H400   H     0.88172   0.30150   0.97532   0.00000  Uiso   1.00
H401   H     0.72132   0.39941   0.15230   0.00000  Uiso   1.00
H402   H     0.88759   0.38453   0.93968   0.00000  Uiso   1.00
H403   H     0.95183   0.36718   0.95742   0.00000  Uiso   1.00
H404   H     0.91614   0.41089   0.99628   0.00000  Uiso   1.00
H405   H     0.34120   0.11445   0.92602   0.00000  Uiso   1.00
H406   H     0.31511   0.10543   0.98561   0.00000  Uiso   1.00
H407   H     0.39582   0.18128   0.94654   0.00000  Uiso   1.00
H408   H     0.36410   0.19586   0.00471   0.00000  Uiso   1.00
H409   H     0.39229   0.12001   0.04590   0.00000  Uiso   1.00
H410   H     0.44752   0.14568   0.01402   0.00000  Uiso   1.00
H411   H     0.41466   0.09188   0.98736   0.00000  Uiso   1.00
H412   H     0.69093   0.43300   0.07379   0.00000  Uiso   1.00
H413   H     0.61470   0.84977   0.06396   0.00000  Uiso   1.00
H414   H     0.60995   0.81842   0.00736   0.00000  Uiso   1.00
H415   H     0.68707   0.90086   0.04302   0.00000  Uiso   1.00
H416   H     0.69563   0.86809   0.98443   0.00000  Uiso   1.00
H417   H     0.61985   0.90002   0.94829   0.00000  Uiso   1.00
H418   H     0.64845   0.95414   0.97877   0.00000  Uiso   1.00
H419   H     0.59513   0.92262   0.00828   0.00000  Uiso   1.00
H420   H     0.77963   0.40645   0.95431   0.00000  Uiso   1.00
H421   H     0.72784   0.36598   0.97442   0.00000  Uiso   1.00
H422   H     0.76780   0.37683   0.86606   0.00000  Uiso   1.00
H423   H     0.70930   0.36781   0.06167   0.00000  Uiso   1.00
H424   H     0.71060   0.34286   0.88523   0.00000  Uiso   1.00
H425   H     0.67544   0.42677   0.91787   0.00000  Uiso   1.00
H426   H     0.68521   0.42260   0.84880   0.00000  Uiso   1.00
H427   H     0.73036   0.45850   0.88764   0.00000  Uiso   1.00
H428   H     0.09517   0.72426   0.03676   0.00000  Uiso   1.00
H429   H     0.13758   0.77794   0.03439   0.00000  Uiso   1.00
H430   H     0.10689   0.71699   0.12936   0.00000  Uiso   1.00
H431   H     0.14606   0.77386   0.12855   0.00000  Uiso   1.00
H432   H     0.03898   0.77610   0.08291   0.00000  Uiso   1.00
H433   H     0.07863   0.82768   0.10538   0.00000  Uiso   1.00
H434   H     0.75012   0.42003   0.04165   0.00000  Uiso   1.00
H435   H     0.05000   0.78413   0.14998   0.00000  Uiso   1.00
H436   H     0.58763   0.76492   0.94657   0.00000  Uiso   1.00
H437   H     0.62753   0.71644   0.97277   0.00000  Uiso   1.00
H438   H     0.63145   0.75253   0.86242   0.00000  Uiso   1.00
H439   H     0.65885   0.69489   0.88727   0.00000  Uiso   1.00
H440   H     0.56573   0.66745   0.90669   0.00000  Uiso   1.00
H441   H     0.58326   0.67251   0.84023   0.00000  Uiso   1.00
H442   H     0.54643   0.72171   0.86893   0.00000  Uiso   1.00
H443   H     0.26767   0.08723   0.04858   0.00000  Uiso   1.00
H444   H     0.21598   0.12803   0.03021   0.00000  Uiso   1.00
H445   H     0.10880   0.55034   0.12194   0.00000  Uiso   1.00
H446   H     0.08609   0.54921   0.77782   0.00000  Uiso   1.00
H447   H     0.26502   0.11788   0.13545   0.00000  Uiso   1.00
H448   H     0.20816   0.15484   0.12182   0.00000  Uiso   1.00
H449   H     0.16618   0.07159   0.09339   0.00000  Uiso   1.00
H450   H     0.18245   0.07571   0.16001   0.00000  Uiso   1.00
H451   H     0.22143   0.03825   0.11821   0.00000  Uiso   1.00
H452   H     0.63060   0.43458   0.64028   0.00000  Uiso   1.00
H453   H     0.65054   0.49681   0.63623   0.00000  Uiso   1.00
H454   H     0.58200   0.44798   0.70954   0.00000  Uiso   1.00
H455   H     0.63599   0.46640   0.74701   0.00000  Uiso   1.00
H456   H     0.62692   0.55667   0.72135   0.00000  Uiso   1.00
H457   H     0.12118   0.52620   0.72431   0.00000  Uiso   1.00
H458   H     0.56475   0.53208   0.73869   0.00000  Uiso   1.00
H459   H     0.58214   0.53927   0.67206   0.00000  Uiso   1.00
H460   H     0.37544   0.56821   0.35229   0.00000  Uiso   1.00
H461   H     0.38730   0.50873   0.32489   0.00000  Uiso   1.00
H462   H     0.29247   0.54582   0.38449   0.00000  Uiso   1.00
H463   H     0.29165   0.48518   0.35507   0.00000  Uiso   1.00
H464   H     0.36124   0.45266   0.40130   0.00000  Uiso   1.00
H465   H     0.31835   0.48334   0.44533   0.00000  Uiso   1.00
H466   H     0.37726   0.51409   0.42828   0.00000  Uiso   1.00
H467   H     0.62353   0.43557   0.36242   0.00000  Uiso   1.00
H468   H     0.11782   0.63524   0.76481   0.00000  Uiso   1.00
H469   H     0.61833   0.49253   0.32965   0.00000  Uiso   1.00
H470   H     0.69147   0.45601   0.41416   0.00000  Uiso   1.00
H471   H     0.71163   0.50859   0.37529   0.00000  Uiso   1.00
H472   H     0.63734   0.55826   0.39773   0.00000  Uiso   1.00
H473   H     0.66499   0.53462   0.45624   0.00000  Uiso   1.00
H474   H     0.60835   0.50533   0.43096   0.00000  Uiso   1.00
H475   H     0.36689   0.56475   0.63092   0.00000  Uiso   1.00
H476   H     0.32522   0.51540   0.61940   0.00000  Uiso   1.00
H477   H     0.41166   0.52358   0.69998   0.00000  Uiso   1.00
H478   H     0.37227   0.46941   0.69839   0.00000  Uiso   1.00
H479   H     0.15206   0.61590   0.70847   0.00000  Uiso   1.00
H480   H     0.39921   0.44244   0.61680   0.00000  Uiso   1.00
H481   H     0.43067   0.50207   0.60234   0.00000  Uiso   1.00
H482   H     0.45664   0.46027   0.64998   0.00000  Uiso   1.00
H483   H     0.41528   0.44639   0.26895   0.00000  Uiso   1.00
H484   H     0.38027   0.47556   0.21828   0.00000  Uiso   1.00
H485   H     0.37760   0.36253   0.24908   0.00000  Uiso   1.00
H486   H     0.34513   0.38769   0.19542   0.00000  Uiso   1.00
H487   H     0.42739   0.41135   0.15508   0.00000  Uiso   1.00
H488   H     0.42728   0.34434   0.17305   0.00000  Uiso   1.00
H489   H     0.46103   0.38984   0.21091   0.00000  Uiso   1.00
H490   H     0.06268   0.58371   0.67620   0.00000  Uiso   1.00
H491   H     0.72625   0.53944   0.59355   0.00000  Uiso   1.00
H492   H     0.78033   0.53059   0.63523   0.00000  Uiso   1.00
H493   H     0.73004   0.63242   0.61413   0.00000  Uiso   1.00
H494   H     0.78762   0.62151   0.65042   0.00000  Uiso   1.00
H495   H     0.82938   0.58637   0.57296   0.00000  Uiso   1.00
H496   H     0.80705   0.65070   0.56265   0.00000  Uiso   1.00
H497   H     0.77152   0.59722   0.53800   0.00000  Uiso   1.00
H498   H     0.28038   0.44915   0.58762   0.00000  Uiso   1.00
H499   H     0.22830   0.47438   0.62328   0.00000  Uiso   1.00
H500   H     0.26487   0.36424   0.62403   0.00000  Uiso   1.00
H501   H     0.07589   0.65106   0.67675   0.00000  Uiso   1.00
H502   H     0.20687   0.38665   0.65332   0.00000  Uiso   1.00
H503   H     0.17772   0.41190   0.56326   0.00000  Uiso   1.00
H504   H     0.18403   0.34443   0.57561   0.00000  Uiso   1.00
H505   H     0.23213   0.37677   0.53953   0.00000  Uiso   1.00
H506   H     0.58980   0.54317   0.26347   0.00000  Uiso   1.00
H507   H     0.63606   0.53393   0.21320   0.00000  Uiso   1.00
H508   H     0.60930   0.63474   0.26722   0.00000  Uiso   1.00
H509   H     0.65580   0.62794   0.21518   0.00000  Uiso   1.00
H510   H     0.58041   0.58917   0.16253   0.00000  Uiso   1.00
H511   H     0.58308   0.65783   0.17403   0.00000  Uiso   1.00
H512   H     0.03716   0.62403   0.72571   0.00000  Uiso   1.00
H513   H     0.53940   0.61838   0.21036   0.00000  Uiso   1.00
H514   H     0.43262   0.35154   0.37620   0.00000  Uiso   1.00
H515   H     0.49370   0.36350   0.35440   0.00000  Uiso   1.00
H516   H     0.44518   0.26718   0.40151   0.00000  Uiso   1.00
H517   H     0.49930   0.25651   0.36090   0.00000  Uiso   1.00
H518   H     0.55232   0.31579   0.41019   0.00000  Uiso   1.00
H519   H     0.52557   0.26623   0.45011   0.00000  Uiso   1.00
H520   H     0.49895   0.32981   0.45204   0.00000  Uiso   1.00
H521   H     0.56641   0.64194   0.62772   0.00000  Uiso   1.00
H522   H     0.50764   0.67035   0.61539   0.00000  Uiso   1.00
H523   H     0.42956   0.86918   0.86160   0.00000  Uiso   1.00
H524   H     0.54224   0.61260   0.71212   0.00000  Uiso   1.00
H525   H     0.48066   0.63933   0.70846   0.00000  Uiso   1.00
H526   H     0.45157   0.58660   0.64342   0.00000  Uiso   1.00
H527   H     0.49016   0.54448   0.68250   0.00000  Uiso   1.00
H528   H     0.51380   0.56773   0.62280   0.00000  Uiso   1.00
H529   H     0.43485   0.63803   0.37590   0.00000  Uiso   1.00
H530   H     0.49574   0.66375   0.37874   0.00000  Uiso   1.00
H531   H     0.44553   0.59772   0.29383   0.00000  Uiso   1.00
H532   H     0.50888   0.62385   0.28814   0.00000  Uiso   1.00
H533   H     0.53945   0.57605   0.36170   0.00000  Uiso   1.00
H534   H     0.48550   0.87401   0.82848   0.00000  Uiso   1.00
H535   H     0.50733   0.53232   0.31932   0.00000  Uiso   1.00
H536   H     0.47585   0.55386   0.37634   0.00000  Uiso   1.00
H537   H     0.56678   0.38061   0.64442   0.00000  Uiso   1.00
H538   H     0.51030   0.38799   0.67665   0.00000  Uiso   1.00
H539   H     0.54427   0.31442   0.59244   0.00000  Uiso   1.00
H540   H     0.49466   0.29159   0.63298   0.00000  Uiso   1.00
H541   H     0.43801   0.35876   0.61125   0.00000  Uiso   1.00
H542   H     0.48794   0.39697   0.58341   0.00000  Uiso   1.00
H543   H     0.46717   0.33970   0.55198   0.00000  Uiso   1.00
H544   H     0.44536   0.72587   0.58688   0.00000  Uiso   1.00
H545   H     0.46024   0.81219   0.92567   0.00000  Uiso   1.00
H546   H     0.47736   0.77584   0.62059   0.00000  Uiso   1.00
H547   H     0.36311   0.75011   0.62542   0.00000  Uiso   1.00
H548   H     0.39135   0.80309   0.65664   0.00000  Uiso   1.00
H549   H     0.41679   0.83991   0.57244   0.00000  Uiso   1.00
H550   H     0.34843   0.82810   0.57621   0.00000  Uiso   1.00
H551   H     0.38846   0.78536   0.54134   0.00000  Uiso   1.00
H552   H     0.57109   0.40221   0.30553   0.00000  Uiso   1.00
H553   H     0.51750   0.38932   0.26862   0.00000  Uiso   1.00
H554   H     0.62952   0.36382   0.24057   0.00000  Uiso   1.00
H555   H     0.57577   0.35189   0.19962   0.00000  Uiso   1.00
H556   H     0.04367   0.53626   0.13675   0.00000  Uiso   1.00
H557   H     0.51557   0.79658   0.88980   0.00000  Uiso   1.00
H558   H     0.55946   0.44317   0.19195   0.00000  Uiso   1.00
H559   H     0.62725   0.43300   0.18155   0.00000  Uiso   1.00
H560   H     0.60477   0.45689   0.24168   0.00000  Uiso   1.00
H561   H     0.44434   0.41356   0.72653   0.00000  Uiso   1.00
H562   H     0.47577   0.37801   0.77486   0.00000  Uiso   1.00
H563   H     0.36273   0.37109   0.74748   0.00000  Uiso   1.00
H564   H     0.39188   0.34131   0.80180   0.00000  Uiso   1.00
H565   H     0.41133   0.42720   0.83712   0.00000  Uiso   1.00
H566   H     0.34406   0.41852   0.82534   0.00000  Uiso   1.00
H567   H     0.38140   0.45671   0.78266   0.00000  Uiso   1.00
H568   H     0.55026   0.88123   0.89956   0.00000  Uiso   1.00
H569   H     0.55040   0.73068   0.41028   0.00000  Uiso   1.00
H570   H     0.52604   0.77960   0.36846   0.00000  Uiso   1.00
H571   H     0.63694   0.74648   0.36750   0.00000  Uiso   1.00
H572   H     0.60951   0.80333   0.33915   0.00000  Uiso   1.00
H573   H     0.58428   0.82534   0.43485   0.00000  Uiso   1.00
H574   H     0.65035   0.83343   0.41412   0.00000  Uiso   1.00
H575   H     0.63305   0.77802   0.45092   0.00000  Uiso   1.00
H576   H     0.35242   0.62611   0.57174   0.00000  Uiso   1.00
H577   H     0.36417   0.64486   0.50997   0.00000  Uiso   1.00
H578   H     0.27130   0.59496   0.55943   0.00000  Uiso   1.00
H579   H     0.53522   0.85481   0.96090   0.00000  Uiso   1.00
H580   H     0.25490   0.63843   0.50961   0.00000  Uiso   1.00
H581   H     0.31421   0.59601   0.45073   0.00000  Uiso   1.00
H582   H     0.26666   0.55256   0.47542   0.00000  Uiso   1.00
H583   H     0.33120   0.55141   0.50025   0.00000  Uiso   1.00
H584   H     0.63906   0.36236   0.42685   0.00000  Uiso   1.00
H585   H     0.68504   0.37377   0.47323   0.00000  Uiso   1.00
H586   H     0.58805   0.30866   0.49228   0.00000  Uiso   1.00
H587   H     0.62465   0.33424   0.54082   0.00000  Uiso   1.00
H588   H     0.59627   0.41887   0.52952   0.00000  Uiso   1.00
H589   H     0.54081   0.37997   0.51690   0.00000  Uiso   1.00
H590   H     0.49414   0.90284   0.93357   0.00000  Uiso   1.00
H591   H     0.57459   0.40747   0.46441   0.00000  Uiso   1.00
H592   H     0.63761   0.63164   0.56947   0.00000  Uiso   1.00
H593   H     0.67499   0.62615   0.51620   0.00000  Uiso   1.00
H594   H     0.57126   0.67677   0.53433   0.00000  Uiso   1.00
H595   H     0.60974   0.70635   0.48676   0.00000  Uiso   1.00
H596   H     0.61267   0.63121   0.43549   0.00000  Uiso   1.00
H597   H     0.54748   0.64034   0.45360   0.00000  Uiso   1.00
H598   H     0.58456   0.59210   0.48534   0.00000  Uiso   1.00
H599   H     0.36019   0.36546   0.42845   0.00000  Uiso   1.00
H600   H     0.37310   0.32114   0.47621   0.00000  Uiso   1.00
H601   H     0.58124   0.13946   0.14234   0.00000  Uiso   1.00
H602   H     0.30291   0.41604   0.48662   0.00000  Uiso   1.00
H603   H     0.32099   0.37870   0.53863   0.00000  Uiso   1.00
H604   H     0.40669   0.40474   0.53751   0.00000  Uiso   1.00
H605   H     0.40464   0.43015   0.47493   0.00000  Uiso   1.00
H606   H     0.37150   0.46200   0.52629   0.00000  Uiso   1.00
H607   H     0.72993   0.40580   0.53791   0.00000  Uiso   1.00
H608   H     0.78086   0.36276   0.52379   0.00000  Uiso   1.00
H609   H     0.73620   0.37720   0.63036   0.00000  Uiso   1.00
H610   H     0.79503   0.34704   0.61586   0.00000  Uiso   1.00
H611   H     0.83008   0.42985   0.58370   0.00000  Uiso   1.00
H612   H     0.52852   0.17738   0.12967   0.00000  Uiso   1.00
H613   H     0.80759   0.43556   0.64858   0.00000  Uiso   1.00
H614   H     0.76924   0.45872   0.59629   0.00000  Uiso   1.00
H615   H     0.40052   0.68882   0.43278   0.00000  Uiso   1.00
H616   H     0.38731   0.72887   0.48388   0.00000  Uiso   1.00
H617   H     0.36899   0.75114   0.36996   0.00000  Uiso   1.00
H618   H     0.35087   0.79460   0.41953   0.00000  Uiso   1.00
H619   H     0.43720   0.81061   0.44282   0.00000  Uiso   1.00
H620   H     0.43820   0.80806   0.37383   0.00000  Uiso   1.00
H621   H     0.45922   0.75400   0.41123   0.00000  Uiso   1.00
H622   H     0.40920   0.27592   0.54658   0.00000  Uiso   1.00
H623   H     0.53608   0.07433   0.18632   0.00000  Uiso   1.00
H624   H     0.36981   0.22602   0.52322   0.00000  Uiso   1.00
H625   H     0.37710   0.26202   0.63399   0.00000  Uiso   1.00
H626   H     0.34174   0.20685   0.61252   0.00000  Uiso   1.00
H627   H     0.42197   0.16590   0.58533   0.00000  Uiso   1.00
H628   H     0.42165   0.18162   0.65222   0.00000  Uiso   1.00
H629   H     0.45755   0.22010   0.60831   0.00000  Uiso   1.00
H630   H     0.73071   0.59544   0.46158   0.00000  Uiso   1.00
H631   H     0.78205   0.64069   0.46345   0.00000  Uiso   1.00
H632   H     0.72145   0.60965   0.36909   0.00000  Uiso   1.00
H633   H     0.77745   0.65023   0.37015   0.00000  Uiso   1.00
H634   H     0.47878   0.11013   0.18939   0.00000  Uiso   1.00
H635   H     0.78544   0.54311   0.41392   0.00000  Uiso   1.00
H636   H     0.83343   0.58417   0.38650   0.00000  Uiso   1.00
H637   H     0.78734   0.55371   0.34635   0.00000  Uiso   1.00
H638   H     0.46291   0.10418   0.10052   0.00000  Uiso   1.00
H639   H     0.47864   0.04115   0.12337   0.00000  Uiso   1.00
H640   H     0.07571   0.49942   0.08828   0.00000  Uiso   1.00
H641   H     0.52464   0.07704   0.08743   0.00000  Uiso   1.00
H642   H     0.42151   0.14546   0.87133   0.00000  Uiso   1.00
H643   H     0.48567   0.15996   0.87910   0.00000  Uiso   1.00
H644   H     0.42983   0.11107   0.78794   0.00000  Uiso   1.00
H645   H     0.49390   0.13375   0.78031   0.00000  Uiso   1.00
H646   H     0.52580   0.08098   0.84703   0.00000  Uiso   1.00
H647   H     0.48785   0.04074   0.80523   0.00000  Uiso   1.00
H648   H     0.46364   0.06023   0.86634   0.00000  Uiso   1.00
H649   H     0.57635   0.85300   0.13322   0.00000  Uiso   1.00
H650   H     0.52320   0.86385   0.16726   0.00000  Uiso   1.00
H651   H     0.85162   0.58477   0.86321   0.00000  Uiso   1.00
H652   H     0.53497   0.79865   0.06968   0.00000  Uiso   1.00
H653   H     0.47757   0.79621   0.10603   0.00000  Uiso   1.00
H654   H     0.46079   0.88667   0.09187   0.00000  Uiso   1.00
H655   H     0.47151   0.85499   0.03222   0.00000  Uiso   1.00
H656   H     0.52110   0.89423   0.05908   0.00000  Uiso   1.00
H657   H     0.45650   0.20171   0.09496   0.00000  Uiso   1.00
H658   H     0.47501   0.25926   0.12626   0.00000  Uiso   1.00
H659   H     0.36808   0.21440   0.11039   0.00000  Uiso   1.00
H660   H     0.37963   0.27175   0.14699   0.00000  Uiso   1.00
H661   H     0.41300   0.31669   0.07460   0.00000  Uiso   1.00
H662   H     0.86672   0.53365   0.82381   0.00000  Uiso   1.00
H663   H     0.35259   0.28892   0.05751   0.00000  Uiso   1.00
H664   H     0.41111   0.26033   0.03559   0.00000  Uiso   1.00
H665   H     0.58389   0.89977   0.79825   0.00000  Uiso   1.00
H666   H     0.52834   0.89108   0.76109   0.00000  Uiso   1.00
H667   H     0.63667   0.85425   0.73398   0.00000  Uiso   1.00
H668   H     0.58049   0.84263   0.69632   0.00000  Uiso   1.00
H669   H     0.57109   0.94125   0.69462   0.00000  Uiso   1.00
H670   H     0.62319   0.91339   0.65979   0.00000  Uiso   1.00
H671   H     0.63535   0.94258   0.71981   0.00000  Uiso   1.00
H672   H     0.45207   0.90138   0.19603   0.00000  Uiso   1.00
O1     O     0.25000   0.25000   0.25000   0.00000  Uiso   1.00
O2     O     0.63420   0.71971   0.71971   0.00000  Uiso   1.00
O3     O     0.21971   0.36580   0.21971   0.00000  Uiso   1.00
O4     O     0.21971   0.63420   0.21971   0.00000  Uiso   1.00
O5     O     0.78029   0.36580   0.78029   0.00000  Uiso   1.00
O6     O     0.21971   0.36580   0.78029   0.00000  Uiso   1.00
O7     O     0.78029   0.63420   0.21971   0.00000  Uiso   1.00
O8     O     0.17324   0.44905   0.20343   0.00000  Uiso   1.00
O9     O     0.78876   0.55181   0.83192   0.00000  Uiso   1.00
O10    O     0.16360   0.44244   0.78625   0.00000  Uiso   1.00
O11    O     0.83288   0.55142   0.21954   0.00000  Uiso   1.00
O12    O     0.82453   0.44781   0.80618   0.00000  Uiso   1.00
O13    O     0.28029   0.28029   0.63420   0.00000  Uiso   1.00
O14    O     0.19710   0.55598   0.17247   0.00000  Uiso   1.00
O15    O     0.80892   0.44881   0.17984   0.00000  Uiso   1.00
O16    O     0.16342   0.55267   0.78851   0.00000  Uiso   1.00
O17    O     0.44565   0.80427   0.82271   0.00000  Uiso   1.00
O18    O     0.55238   0.17236   0.20623   0.00000  Uiso   1.00
O19    O     0.44330   0.20917   0.83394   0.00000  Uiso   1.00
O20    O     0.55302   0.78913   0.16965   0.00000  Uiso   1.00
O21    O     0.44736   0.19794   0.17247   0.00000  Uiso   1.00
O22    O     0.55622   0.82805   0.80119   0.00000  Uiso   1.00
O23    O     0.44774   0.82348   0.19518   0.00000  Uiso   1.00
O24    O     0.71971   0.71971   0.36580   0.00000  Uiso   1.00
O25    O     0.55252   0.20465   0.83298   0.00000  Uiso   1.00
O26    O     0.80078   0.17385   0.55458   0.00000  Uiso   1.00
O27    O     0.17580   0.80019   0.44812   0.00000  Uiso   1.00
O28    O     0.21294   0.16337   0.55657   0.00000  Uiso   1.00
O29    O     0.79962   0.82655   0.44607   0.00000  Uiso   1.00
O30    O     0.20402   0.83193   0.55335   0.00000  Uiso   1.00
O31    O     0.83111   0.20570   0.44698   0.00000  Uiso   1.00
O32    O     0.82826   0.79979   0.55318   0.00000  Uiso   1.00
O33    O     0.20686   0.16569   0.44725   0.00000  Uiso   1.00
O34    O     0.71887   0.94515   0.16567   0.00000  Uiso   1.00
O35    O     0.63420   0.28029   0.71971   0.00000  Uiso   1.00
O36    O     0.33197   0.05456   0.78827   0.00000  Uiso   1.00
O37    O     0.20053   0.94781   0.32816   0.00000  Uiso   1.00
O38    O     0.78593   0.05645   0.66581   0.00000  Uiso   1.00
O39    O     0.33301   0.94667   0.78616   0.00000  Uiso   1.00
O40    O     0.72155   0.05381   0.16388   0.00000  Uiso   1.00
O41    O     0.78462   0.94701   0.66400   0.00000  Uiso   1.00
O42    O     0.17133   0.05209   0.29817   0.00000  Uiso   1.00
O43    O     0.67305   0.05721   0.80131   0.00000  Uiso   1.00
O44    O     0.29909   0.94583   0.17534   0.00000  Uiso   1.00
O45    O     0.16442   0.05619   0.71606   0.00000  Uiso   1.00
O46    O     0.36580   0.71971   0.28029   0.00000  Uiso   1.00
O47    O     0.79425   0.94347   0.33209   0.00000  Uiso   1.00
O48    O     0.32979   0.05285   0.20435   0.00000  Uiso   1.00
O49    O     0.69801   0.94728   0.82675   0.00000  Uiso   1.00
O50    O     0.78678   0.05518   0.33557   0.00000  Uiso   1.00
O51    O     0.16418   0.94655   0.71265   0.00000  Uiso   1.00
O52    O     0.94553   0.83151   0.28869   0.00000  Uiso   1.00
O53    O     0.05484   0.20842   0.66982   0.00000  Uiso   1.00
O54    O     0.94515   0.67538   0.80391   0.00000  Uiso   1.00
O55    O     0.05175   0.29685   0.17617   0.00000  Uiso   1.00
O56    O     0.94631   0.20996   0.66856   0.00000  Uiso   1.00
O57    O     0.71971   0.28029   0.36580   0.00000  Uiso   1.00
O58    O     0.05301   0.83425   0.28364   0.00000  Uiso   1.00
O59    O     0.94751   0.33095   0.20649   0.00000  Uiso   1.00
O60    O     0.05231   0.70652   0.83074   0.00000  Uiso   1.00
O61    O     0.05881   0.19813   0.32749   0.00000  Uiso   1.00
O62    O     0.94751   0.82519   0.69989   0.00000  Uiso   1.00
O63    O     0.05661   0.28495   0.83495   0.00000  Uiso   1.00
O64    O     0.94342   0.67285   0.19694   0.00000  Uiso   1.00
O65    O     0.05332   0.79329   0.66899   0.00000  Uiso   1.00
O66    O     0.94700   0.17569   0.30590   0.00000  Uiso   1.00
O67    O     0.05344   0.66462   0.21188   0.00000  Uiso   1.00
O68    O     0.28029   0.71971   0.63420   0.00000  Uiso   1.00
O69    O     0.94633   0.28796   0.83504   0.00000  Uiso   1.00
O70    O     0.83233   0.71420   0.05457   0.00000  Uiso   1.00
O71    O     0.20663   0.32965   0.94507   0.00000  Uiso   1.00
O72    O     0.67715   0.19446   0.05120   0.00000  Uiso   1.00
O73    O     0.33462   0.78436   0.94432   0.00000  Uiso   1.00
O74    O     0.20968   0.33108   0.05319   0.00000  Uiso   1.00
O75    O     0.83295   0.71412   0.94755   0.00000  Uiso   1.00
O76    O     0.33703   0.78129   0.05355   0.00000  Uiso   1.00
O77    O     0.70908   0.16714   0.94784   0.00000  Uiso   1.00
O78    O     0.17471   0.69791   0.94440   0.00000  Uiso   1.00
O79    O     0.36580   0.71971   0.71971   0.00000  Uiso   1.00
O80    O     0.82388   0.30339   0.05512   0.00000  Uiso   1.00
O81    O     0.28614   0.16537   0.94268   0.00000  Uiso   1.00
O82    O     0.66900   0.79598   0.05605   0.00000  Uiso   1.00
O83    O     0.79543   0.33019   0.94702   0.00000  Uiso   1.00
O84    O     0.16909   0.70555   0.05366   0.00000  Uiso   1.00
O85    O     0.66318   0.78421   0.94548   0.00000  Uiso   1.00
O86    O     0.28572   0.16330   0.05320   0.00000  Uiso   1.00
O87    O     0.69856   0.44638   0.67415   0.00000  Uiso   1.00
O88    O     0.33587   0.55562   0.28727   0.00000  Uiso   1.00
O89    O     0.67659   0.44308   0.30694   0.00000  Uiso   1.00
O90    O     0.63420   0.28029   0.28029   0.00000  Uiso   1.00
O91    O     0.31626   0.55549   0.68769   0.00000  Uiso   1.00
O92    O     0.33857   0.44551   0.28111   0.00000  Uiso   1.00
O93    O     0.70991   0.55394   0.66798   0.00000  Uiso   1.00
O94    O     0.29239   0.44621   0.66461   0.00000  Uiso   1.00
O95    O     0.66369   0.55378   0.28733   0.00000  Uiso   1.00
O96    O     0.44555   0.32468   0.30476   0.00000  Uiso   1.00
O97    O     0.55506   0.70681   0.66772   0.00000  Uiso   1.00
O98    O     0.44407   0.69735   0.32726   0.00000  Uiso   1.00
O99    O     0.55765   0.32942   0.70133   0.00000  Uiso   1.00
O100   O     0.44542   0.71490   0.66375   0.00000  Uiso   1.00
O101   O     0.28029   0.71971   0.36580   0.00000  Uiso   1.00
O102   O     0.55515   0.32693   0.30056   0.00000  Uiso   1.00
O103   O     0.44599   0.33711   0.71140   0.00000  Uiso   1.00
O104   O     0.55399   0.71130   0.33478   0.00000  Uiso   1.00
O105   O     0.32559   0.69672   0.55541   0.00000  Uiso   1.00
O106   O     0.67352   0.29756   0.44969   0.00000  Uiso   1.00
O107   O     0.67663   0.69672   0.55433   0.00000  Uiso   1.00
O108   O     0.29728   0.32606   0.44920   0.00000  Uiso   1.00
O109   O     0.71038   0.33176   0.55171   0.00000  Uiso   1.00
O110   O     0.32499   0.69677   0.44578   0.00000  Uiso   1.00
O111   O     0.33335   0.29265   0.55235   0.00000  Uiso   1.00
O112   O     0.75000   0.75000   0.75000   0.00000  Uiso   1.00
O113   O     0.71971   0.28029   0.63420   0.00000  Uiso   1.00
O114   O     0.70705   0.66848   0.44684   0.00000  Uiso   1.00
O115   O     0.63420   0.71971   0.28029   0.00000  Uiso   1.00
O116   O     0.36580   0.28029   0.71971   0.00000  Uiso   1.00
O117   O     0.71971   0.71971   0.63420   0.00000  Uiso   1.00
O118   O     0.28029   0.28029   0.36580   0.00000  Uiso   1.00
O119   O     0.28029   0.36580   0.71971   0.00000  Uiso   1.00
O120   O     0.71971   0.63420   0.28029   0.00000  Uiso   1.00
O121   O     0.28029   0.63420   0.28029   0.00000  Uiso   1.00
O122   O     0.71971   0.36580   0.71971   0.00000  Uiso   1.00
O123   O     0.71971   0.63420   0.71971   0.00000  Uiso   1.00
O124   O     0.25000   0.25000   0.75000   0.00000  Uiso   1.00
O125   O     0.28029   0.36580   0.28029   0.00000  Uiso   1.00
O126   O     0.71971   0.36580   0.28029   0.00000  Uiso   1.00
O127   O     0.28029   0.63420   0.71971   0.00000  Uiso   1.00
O128   O     0.86580   0.78029   0.28029   0.00000  Uiso   1.00
O129   O     0.13420   0.21971   0.71971   0.00000  Uiso   1.00
O130   O     0.28029   0.78029   0.13420   0.00000  Uiso   1.00
O131   O     0.71971   0.21971   0.86580   0.00000  Uiso   1.00
O132   O     0.13420   0.78029   0.71971   0.00000  Uiso   1.00
O133   O     0.86580   0.21971   0.28029   0.00000  Uiso   1.00
O134   O     0.71971   0.78029   0.86580   0.00000  Uiso   1.00
O135   O     0.75000   0.75000   0.25000   0.00000  Uiso   1.00
O136   O     0.28029   0.21971   0.13420   0.00000  Uiso   1.00
O137   O     0.86580   0.21971   0.71971   0.00000  Uiso   1.00
O138   O     0.13420   0.78029   0.28029   0.00000  Uiso   1.00
O139   O     0.28029   0.21971   0.86580   0.00000  Uiso   1.00
O140   O     0.71971   0.78029   0.13420   0.00000  Uiso   1.00
O141   O     0.13420   0.21971   0.28029   0.00000  Uiso   1.00
O142   O     0.86580   0.78029   0.71971   0.00000  Uiso   1.00
O143   O     0.71971   0.21971   0.13420   0.00000  Uiso   1.00
O144   O     0.28029   0.78029   0.86580   0.00000  Uiso   1.00
O145   O     0.78029   0.71971   0.13420   0.00000  Uiso   1.00
O146   O     0.75000   0.25000   0.75000   0.00000  Uiso   1.00
O147   O     0.21971   0.28029   0.86580   0.00000  Uiso   1.00
O148   O     0.78029   0.86580   0.71971   0.00000  Uiso   1.00
O149   O     0.21971   0.13420   0.28029   0.00000  Uiso   1.00
O150   O     0.78029   0.28029   0.86580   0.00000  Uiso   1.00
O151   O     0.21971   0.71971   0.13420   0.00000  Uiso   1.00
O152   O     0.78029   0.13420   0.28029   0.00000  Uiso   1.00
O153   O     0.21971   0.86580   0.71971   0.00000  Uiso   1.00
O154   O     0.21971   0.28029   0.13420   0.00000  Uiso   1.00
O155   O     0.78029   0.71971   0.86580   0.00000  Uiso   1.00
O156   O     0.21971   0.13420   0.71971   0.00000  Uiso   1.00
O157   O     0.25000   0.75000   0.25000   0.00000  Uiso   1.00
O158   O     0.78029   0.86580   0.28029   0.00000  Uiso   1.00
O159   O     0.21971   0.71971   0.86580   0.00000  Uiso   1.00
O160   O     0.78029   0.28029   0.13420   0.00000  Uiso   1.00
O161   O     0.21971   0.86580   0.28029   0.00000  Uiso   1.00
O162   O     0.78029   0.13420   0.71971   0.00000  Uiso   1.00
O163   O     0.71971   0.86580   0.21971   0.00000  Uiso   1.00
O164   O     0.28029   0.13420   0.78029   0.00000  Uiso   1.00
O165   O     0.86580   0.28029   0.21971   0.00000  Uiso   1.00
O166   O     0.13420   0.71971   0.78029   0.00000  Uiso   1.00
O167   O     0.28029   0.13420   0.21971   0.00000  Uiso   1.00
O168   O     0.75000   0.25000   0.25000   0.00000  Uiso   1.00
O169   O     0.71971   0.86580   0.78029   0.00000  Uiso   1.00
O170   O     0.13420   0.71971   0.21971   0.00000  Uiso   1.00
O171   O     0.86580   0.28029   0.78029   0.00000  Uiso   1.00
O172   O     0.28029   0.86580   0.78029   0.00000  Uiso   1.00
O173   O     0.71971   0.13420   0.21971   0.00000  Uiso   1.00
O174   O     0.13420   0.28029   0.78029   0.00000  Uiso   1.00
O175   O     0.86580   0.71971   0.21971   0.00000  Uiso   1.00
O176   O     0.71971   0.13420   0.78029   0.00000  Uiso   1.00
O177   O     0.28029   0.86580   0.21971   0.00000  Uiso   1.00
O178   O     0.86580   0.71971   0.78029   0.00000  Uiso   1.00
O179   O     0.25000   0.75000   0.75000   0.00000  Uiso   1.00
O180   O     0.13420   0.28029   0.21971   0.00000  Uiso   1.00
O181   O     0.36580   0.78029   0.78029   0.00000  Uiso   1.00
O182   O     0.63420   0.21971   0.21971   0.00000  Uiso   1.00
O183   O     0.78029   0.78029   0.63420   0.00000  Uiso   1.00
O184   O     0.21971   0.21971   0.36580   0.00000  Uiso   1.00
O185   O     0.63420   0.78029   0.21971   0.00000  Uiso   1.00
O186   O     0.36580   0.21971   0.78029   0.00000  Uiso   1.00
O187   O     0.21971   0.78029   0.36580   0.00000  Uiso   1.00
O188   O     0.78029   0.21971   0.63420   0.00000  Uiso   1.00
O189   O     0.36580   0.21971   0.21971   0.00000  Uiso   1.00
O190   O     0.36580   0.28029   0.28029   0.00000  Uiso   1.00
O191   O     0.63420   0.78029   0.78029   0.00000  Uiso   1.00
O192   O     0.78029   0.21971   0.36580   0.00000  Uiso   1.00
O193   O     0.21971   0.78029   0.63420   0.00000  Uiso   1.00
O194   O     0.63420   0.21971   0.78029   0.00000  Uiso   1.00
O195   O     0.36580   0.78029   0.21971   0.00000  Uiso   1.00
O196   O     0.21971   0.21971   0.63420   0.00000  Uiso   1.00
O197   O     0.78029   0.78029   0.36580   0.00000  Uiso   1.00
O198   O     0.78029   0.36580   0.21971   0.00000  Uiso   1.00
O199   O     0.21971   0.63420   0.78029   0.00000  Uiso   1.00
O200   O     0.78029   0.63420   0.78029   0.00000  Uiso   1.00
Zn1    Zn    0.20660   0.29340   0.20660   0.00000  Uiso   1.00
Zn2    Zn    0.70660   0.20660   0.20660   0.00000  Uiso   1.00
Zn3    Zn    0.29340   0.20660   0.79340   0.00000  Uiso   1.00
Zn4    Zn    0.70660   0.79340   0.20660   0.00000  Uiso   1.00
Zn5    Zn    0.29340   0.20660   0.20660   0.00000  Uiso   1.00
Zn6    Zn    0.70660   0.79340   0.79340   0.00000  Uiso   1.00
Zn7    Zn    0.29340   0.79340   0.20660   0.00000  Uiso   1.00
Zn8    Zn    0.70660   0.20660   0.79340   0.00000  Uiso   1.00
Zn9    Zn    0.79340   0.20660   0.70660   0.00000  Uiso   1.00
Zn10   Zn    0.20660   0.79340   0.29340   0.00000  Uiso   1.00
Zn11   Zn    0.20660   0.20660   0.70660   0.00000  Uiso   1.00
Zn12   Zn    0.79340   0.70660   0.79340   0.00000  Uiso   1.00
Zn13   Zn    0.79340   0.79340   0.29340   0.00000  Uiso   1.00
Zn14   Zn    0.20660   0.79340   0.70660   0.00000  Uiso   1.00
Zn15   Zn    0.79340   0.20660   0.29340   0.00000  Uiso   1.00
Zn16   Zn    0.79340   0.79340   0.70660   0.00000  Uiso   1.00
Zn17   Zn    0.20660   0.20660   0.29340   0.00000  Uiso   1.00
Zn18   Zn    0.70660   0.29340   0.70660   0.00000  Uiso   1.00
Zn19   Zn    0.29340   0.70660   0.29340   0.00000  Uiso   1.00
Zn20   Zn    0.70660   0.29340   0.29340   0.00000  Uiso   1.00
Zn21   Zn    0.29340   0.70660   0.70660   0.00000  Uiso   1.00
Zn22   Zn    0.29340   0.29340   0.29340   0.00000  Uiso   1.00
Zn23   Zn    0.20660   0.29340   0.79340   0.00000  Uiso   1.00
Zn24   Zn    0.70660   0.70660   0.70660   0.00000  Uiso   1.00
Zn25   Zn    0.29340   0.29340   0.70660   0.00000  Uiso   1.00
Zn26   Zn    0.70660   0.70660   0.29340   0.00000  Uiso   1.00
Zn27   Zn    0.79340   0.70660   0.20660   0.00000  Uiso   1.00
Zn28   Zn    0.79340   0.29340   0.79340   0.00000  Uiso   1.00
Zn29   Zn    0.20660   0.70660   0.20660   0.00000  Uiso   1.00
Zn30   Zn    0.79340   0.29340   0.20660   0.00000  Uiso   1.00
Zn31   Zn    0.20660   0.70660   0.79340   0.00000  Uiso   1.00
Zn32   Zn    0.29340   0.79340   0.79340   0.00000  Uiso   1.00
loop_
_geom_bond_atom_site_label_1
_geom_bond_atom_site_label_2
_geom_bond_distance
_geom_bond_site_symmetry_2
_ccdc_geom_bond_type
C1     O189    1.296   .     A
C1     O190    1.297   .     A
C1     C62     1.492   .     S
C2     C65     1.485   .     S
C2     O90     1.295   .     A
C2     O182    1.295   .     A
C3     C93     1.429   .     A
C3     O64     1.411   .     S
C3     C6      1.420   1_655 S
C4     O65     1.386   .     S
C4     C89     1.409   .     A
C4     C479    1.420   1_455 S
C5     C91     1.424   .     A
C5     O66     1.387   .     S
C5     C478    1.431   1_655 S
C6     O67     1.383   .     S
C6     C87     1.421   .     A
C6     C3      1.420   1_455 S
C7     C88     1.418   .     A
C7     O69     1.386   .     S
C7     C480    1.419   1_655 S
C8     O70     1.392   .     S
C8     C102    1.411   .     A
C8     C14     1.405   1_554 S
C9     C100    1.415   .     A
C9     O71     1.395   .     S
C9     C12     1.408   1_556 S
C10    O72     1.396   .     S
C10    C104    1.415   .     A
C10    C16     1.413   1_554 S
C11    O73     1.393   .     S
C11    C103    1.409   .     A
C11    C15     1.415   1_556 S
C12    O74     1.381   .     S
C12    C97     1.411   .     A
C12    C9      1.408   1_554 S
C13    C74     1.492   .     S
C13    O101    1.299   .     A
C13    O187    1.295   .     A
C14    O75     1.380   .     S
C14    C96     1.406   .     A
C14    C8      1.405   1_556 S
C15    O76     1.383   .     S
C15    C99     1.412   .     A
C15    C11     1.415   1_554 S
C16    C98     1.413   .     A
C16    O77     1.384   .     S
C16    C10     1.413   1_556 S
C17    C103    1.419   .     A
C17    O78     1.387   .     S
C17    C22     1.416   1_556 S
C18    C104    1.416   .     A
C18    O80     1.401   .     S
C18    C21     1.424   1_554 S
C19    C100    1.418   .     A
C19    O81     1.401   .     S
C19    C25     1.419   1_556 S
C20    O82     1.404   .     S
C20    C102    1.425   .     A
C20    C23     1.424   1_554 S
C21    C98     1.415   .     A
C21    O83     1.387   .     S
C21    C18     1.424   1_556 S
C22    O84     1.385   .     S
C22    C99     1.415   .     A
C22    C17     1.416   1_554 S
C23    O85     1.383   .     S
C23    C96     1.418   .     A
C23    C20     1.424   1_556 S
C24    O113    1.302   .     A
C24    C75     1.487   .     S
C24    O188    1.289   .     A
C25    O86     1.385   .     S
C25    C97     1.421   .     A
C25    C19     1.419   1_554 S
C26    C31     1.406   .     A
C26    O87     1.389   .     S
C26    C53     1.412   .     A
C27    C52     1.407   .     A
C27    O88     1.393   .     S
C27    C30     1.421   .     A
C28    O89     1.405   .     S
C28    C33     1.424   .     A
C28    C55     1.424   .     A
C29    C54     1.422   .     A
C29    O91     1.402   .     S
C29    C32     1.425   .     A
C30    O92     1.381   .     S
C30    C58     1.411   .     A
C31    C56     1.401   .     A
C31    O93     1.378   .     S
C32    O94     1.384   .     S
C32    C60     1.409   .     A
C33    C59     1.417   .     A
C33    O95     1.383   .     S
C34    C40     1.417   .     A
C34    O96     1.395   .     S
C34    C62     1.417   .     A
C35    C67     1.484   .     S
C35    O185    1.295   .     A
C35    O115    1.292   .     A
C36    C39     1.417   .     A
C36    C61     1.410   .     A
C36    O97     1.395   .     S
C37    C42     1.419   .     A
C37    O98     1.404   .     S
C37    C64     1.423   .     A
C38    C63     1.422   .     A
C38    C41     1.425   .     A
C38    O99     1.402   .     S
C39    C66     1.410   .     A
C39    O100    1.382   .     S
C40    C65     1.410   .     A
C40    O102    1.383   .     S
C41    O103    1.383   .     S
C41    C69     1.412   .     A
C42    O104    1.381   .     S
C42    C67     1.416   .     A
C43    C71     1.414   .     A
C43    C49     1.416   .     A
C43    O105    1.392   .     S
C44    O106    1.394   .     S
C44    C70     1.408   .     A
C44    C48     1.412   .     A
C45    O107    1.403   .     S
C45    C51     1.422   .     A
C45    C73     1.416   .     A
C46    C69     1.494   .     S
C46    O116    1.295   .     A
C46    O186    1.297   .     A
C47    O108    1.396   .     S
C47    C50     1.417   .     A
C47    C72     1.418   .     A
C48    O109    1.375   .     S
C48    C75     1.402   .     A
C49    C74     1.410   .     A
C49    O110    1.383   .     S
C50    C77     1.402   .     A
C50    O111    1.383   .     S
C51    C76     1.413   .     A
C51    O114    1.383   .     S
C52    C431    1.413   .     A
C52    C101    1.496   .     S
C53    C430    1.415   .     A
C53    C113    1.488   .     S
C54    C433    1.420   .     A
C54    C157    1.502   .     S
C55    C146    1.489   .     S
C55    C432    1.414   .     A
C56    C427    1.410   .     A
C56    C124    1.478   .     S
C57    O183    1.295   .     A
C57    O117    1.294   .     A
C57    C73     1.489   .     S
C58    C135    1.499   .     S
C58    C425    1.421   .     A
C59    C90     1.481   .     S
C59    C429    1.403   .     A
C60    C79     1.491   .     S
C60    C428    1.405   .     A
C61    C440    1.415   .     A
C61    C112    1.495   .     S
C62    C439    1.417   .     A
C63    C442    1.419   .     A
C63    C426    1.499   .     S
C64    C441    1.414   .     A
C64    C437    1.489   .     S
C65    C435    1.410   .     A
C66    C470    1.496   .     S
C66    C434    1.422   .     A
C67    C438    1.408   .     A
C68    C72     1.497   .     S
C68    O184    1.295   .     A
C68    O118    1.299   .     A
C69    C436    1.408   .     A
C70    C448    1.486   .     S
C70    C449    1.415   .     A
C71    C459    1.492   .     S
C71    C447    1.411   .     A
C72    C451    1.423   .     A
C73    C450    1.417   .     A
C74    C444    1.417   .     A
C75    C443    1.415   .     A
C76    C446    1.416   .     A
C76    C334    1.486   .     S
C77    C223    1.488   .     S
C77    C445    1.407   .     A
C78    C368    1.476   .     S
C78    C467    1.423   .     A
C78    C457    1.405   .     A
C79    O119    1.294   .     A
C79    O6      1.298   .     A
C80    C468    1.418   .     A
C80    C456    1.408   .     A
C80    C379    1.478   .     S
C81    C357    1.480   .     S
C81    C465    1.412   .     A
C81    C460    1.414   .     A
C82    C466    1.425   .     A
C82    C458    1.414   .     A
C82    C346    1.488   .     S
C83    C453    1.410   .     A
C83    C463    1.417   .     A
C83    C390    1.484   .     S
C84    C464    1.426   .     A
C84    C452    1.415   .     A
C84    C401    1.491   .     S
C85    C455    1.403   .     A
C85    C423    1.489   .     S
C85    C461    1.411   .     A
C86    C412    1.484   .     S
C86    C462    1.410   .     A
C86    C454    1.414   .     A
C87    C268    1.480   .     S
C87    C475    1.408   .     A
C88    C474    1.410   .     A
C88    C257    1.480   .     S
C89    C212    1.480   .     S
C89    C477    1.414   .     A
C90    O120    1.289   .     A
C90    O7      1.298   .     A
C91    C476    1.409   .     A
C91    C224    1.486   .     S
C92    C471    1.412   .     A
C92    C179    1.488   .     S
C92    C480    1.416   .     A
C93    C168    1.488   .     S
C93    C469    1.411   .     A
C94    C473    1.404   .     A
C94    C478    1.421   .     A
C94    C301    1.491   .     S
C95    C472    1.418   .     A
C95    C479    1.416   .     A
C95    C312    1.490   .     S
C96    C235    1.483   .     S
C97    C246    1.484   .     S
C98    C201    1.482   .     S
C99    C190    1.480   .     S
C100   C279    1.487   .     S
C101   O121    1.298   .     A
C101   O4      1.296   .     A
C102   C290    1.489   .     S
C103   C335    1.493   .     S
C104   C323    1.487   .     S
C105   O8      1.404   .     S
C105   C106    1.534   .     S
C105   H1      1.108   .     S
C105   H112    1.102   .     S
C106   H334    1.109   .     S
C106   H223    1.113   .     S
C106   C107    1.523   .     S
C107   H445    1.111   .     S
C107   H640    1.112   .     S
C107   H556    1.108   .     S
C108   H662    1.104   .     S
C108   C109    1.527   .     S
C108   H651    1.109   .     S
C108   O9      1.406   .     S
C109   C110    1.521   .     S
C109   H2      1.109   .     S
C109   H13     1.106   .     S
C110   H24     1.108   .     S
C110   H35     1.108   .     S
C110   H46     1.109   .     S
C111   O10     1.412   .     S
C111   H57     1.106   .     S
C111   H68     1.104   .     S
C111   C114    1.534   .     S
C112   O2      1.297   .     A
C112   O191    1.297   .     A
C113   O122    1.298   .     A
C113   O5      1.294   .     A
C114   H90     1.109   .     S
C114   C115    1.517   .     S
C114   H79     1.110   .     S
C115   H113    1.105   .     S
C115   H124    1.113   .     S
C115   H101    1.114   .     S
C116   O11     1.407   .     S
C116   H135    1.104   .     S
C116   H146    1.100   .     S
C116   C117    1.529   .     S
C117   H168    1.107   .     S
C117   H157    1.115   .     S
C117   C118    1.519   .     S
C118   H201    1.105   .     S
C118   H190    1.107   .     S
C118   H179    1.111   .     S
C119   O12     1.424   .     S
C119   H212    1.109   .     S
C119   H224    1.117   .     S
C119   C120    1.526   .     S
C120   C121    1.523   .     S
C120   H235    1.108   .     S
C120   H246    1.107   .     S
C121   H257    1.109   .     S
C121   H268    1.110   .     S
C121   H279    1.108   .     S
C122   C123    1.551   .     S
C122   O14     1.434   .     S
C122   H301    1.096   .     S
C122   H290    1.100   .     S
C123   H323    1.105   .     S
C123   H312    1.099   .     S
C123   C125    1.526   .     S
C124   O123    1.298   .     A
C124   O200    1.290   .     A
C125   H335    1.104   .     S
C125   H357    1.101   .     S
C125   H346    1.104   .     S
C126   C127    1.528   .     S
C126   H368    1.116   .     S
C126   H379    1.121   .     S
C126   O15     1.429   .     S
C127   H401    1.109   .     S
C127   H390    1.106   .     S
C127   C128    1.520   .     S
C128   H434    1.108   .     S
C128   H423    1.112   .     S
C128   H412    1.110   .     S
C129   C130    1.519   .     S
C129   H446    1.110   .     S
C129   H457    1.116   .     S
C129   O16     1.418   .     S
C130   C131    1.522   .     S
C130   H479    1.109   .     S
C130   H468    1.101   .     S
C131   H490    1.108   .     S
C131   H512    1.106   .     S
C131   H501    1.107   .     S
C132   C133    1.527   .     S
C132   H534    1.095   .     S
C132   H523    1.109   .     S
C132   O17     1.405   .     S
C133   H545    1.108   .     S
C133   H557    1.103   .     S
C133   C134    1.513   .     S
C134   H568    1.105   .     S
C134   H590    1.110   .     S
C134   H579    1.109   .     S
C135   O3      1.292   .     A
C135   O125    1.305   .     A
C136   H601    1.110   .     S
C136   C137    1.525   .     S
C136   O18     1.405   .     S
C136   H612    1.101   .     S
C137   H634    1.103   .     S
C137   C138    1.516   .     S
C137   H623    1.108   .     S
C138   H639    1.109   .     S
C138   H638    1.106   .     S
C138   H641    1.106   .     S
C139   O19     1.411   .     S
C139   C140    1.535   .     S
C139   H643    1.101   .     S
C139   H642    1.107   .     S
C140   H645    1.108   .     S
C140   C141    1.519   .     S
C140   H644    1.110   .     S
C141   H646    1.110   .     S
C141   H647    1.108   .     S
C141   H648    1.110   .     S
C142   C143    1.532   .     S
C142   H650    1.094   .     S
C142   H649    1.100   .     S
C142   O20     1.404   .     S
C143   H652    1.111   .     S
C143   C144    1.520   .     S
C143   H653    1.105   .     S
C144   H656    1.109   .     S
C144   H655    1.110   .     S
C144   H654    1.109   .     S
C145   C147    1.526   .     S
C145   H657    1.110   .     S
C145   O21     1.425   .     S
C145   H658    1.117   .     S
C146   O198    1.301   .     A
C146   O126    1.290   .     A
C147   H659    1.108   .     S
C147   H660    1.105   .     S
C147   C148    1.522   .     S
C148   H663    1.110   .     S
C148   H661    1.109   .     S
C148   H664    1.107   .     S
C149   H665    1.100   .     S
C149   H666    1.102   .     S
C149   C150    1.548   .     S
C149   O22     1.428   .     S
C150   H667    1.102   .     S
C150   C151    1.525   .     S
C150   H668    1.108   .     S
C151   H671    1.108   .     S
C151   H669    1.109   .     S
C151   H670    1.109   .     S
C152   H3      1.117   .     S
C152   C153    1.524   .     S
C152   H672    1.112   .     S
C152   O23     1.424   .     S
C153   C154    1.518   .     S
C153   H4      1.103   .     S
C153   H5      1.108   .     S
C154   H7      1.110   .     S
C154   H8      1.107   .     S
C154   H6      1.108   .     S
C155   C156    1.520   .     S
C155   H9      1.109   .     S
C155   H10     1.116   .     S
C155   O25     1.420   .     S
C156   H12     1.110   .     S
C156   H11     1.110   .     S
C156   C158    1.523   .     S
C157   O127    1.297   .     A
C157   O199    1.300   .     A
C158   H16     1.108   .     S
C158   H14     1.109   .     S
C158   H15     1.107   .     S
C159   O26     1.405   .     S
C159   H17     1.109   .     S
C159   C160    1.533   .     S
C159   H18     1.097   .     S
C160   H20     1.107   .     S
C160   H19     1.110   .     S
C160   C161    1.518   .     S
C161   H23     1.112   .     S
C161   H21     1.111   .     S
C161   H22     1.110   .     S
C162   H25     1.109   .     S
C162   O27     1.406   .     S
C162   H26     1.102   .     S
C162   C163    1.529   .     S
C163   C164    1.522   .     S
C163   H28     1.105   .     S
C163   H27     1.107   .     S
C164   H30     1.111   .     S
C164   H29     1.107   .     S
C164   H31     1.110   .     S
C165   C166    1.531   .     S
C165   H32     1.106   .     S
C165   H33     1.102   .     S
C165   O28     1.413   .     S
C166   C167    1.522   .     S
C166   H36     1.109   .     S
C166   H34     1.110   .     S
C167   H39     1.108   .     S
C167   H37     1.110   .     S
C167   H38     1.105   .     S
C168   O128    1.304   .     A
C168   O175    1.287   .     A
C169   O29     1.411   .     S
C169   H40     1.104   .     S
C169   H41     1.095   .     S
C169   C170    1.539   .     S
C170   C171    1.526   .     S
C170   H42     1.112   .     S
C170   H43     1.104   .     S
C171   H45     1.113   .     S
C171   H44     1.112   .     S
C171   H47     1.110   .     S
C172   O30     1.424   .     S
C172   H49     1.117   .     S
C172   H48     1.112   .     S
C172   C173    1.525   .     S
C173   H50     1.108   .     S
C173   H51     1.107   .     S
C173   C174    1.523   .     S
C174   H54     1.108   .     S
C174   H53     1.109   .     S
C174   H52     1.109   .     S
C175   H55     1.102   .     S
C175   O31     1.425   .     S
C175   C176    1.524   .     S
C175   H56     1.117   .     S
C176   H58     1.107   .     S
C176   C177    1.529   .     S
C176   H59     1.105   .     S
C177   H60     1.109   .     S
C177   H61     1.108   .     S
C177   H62     1.108   .     S
C178   H63     1.112   .     S
C178   O32     1.422   .     S
C178   C180    1.520   .     S
C178   H64     1.117   .     S
C179   O174    1.295   .     A
C179   O129    1.296   .     A
C180   C181    1.517   .     S
C180   H66     1.107   .     S
C180   H65     1.103   .     S
C181   H70     1.105   .     S
C181   H67     1.108   .     S
C181   H69     1.110   .     S
C182   H72     1.115   .     S
C182   H71     1.110   .     S
C182   C183    1.518   .     S
C182   O33     1.417   .     S
C183   H73     1.100   .     S
C183   H74     1.110   .     S
C183   C184    1.521   .     S
C184   H75     1.108   .     S
C184   H77     1.108   .     S
C184   H76     1.108   .     S
C185   O34     1.418   .     S
C185   H78     1.106   .     S
C185   C186    1.537   .     S
C185   H80     1.107   .     S
C186   H81     1.110   .     S
C186   C187    1.526   .     S
C186   H82     1.110   1_565 S
C187   H85     1.111   .     S
C187   H84     1.108   .     S
C187   H83     1.113   1_565 S
C188   H86     1.105   .     S
C188   C189    1.540   .     S
C188   H87     1.103   .     S
C188   O36     1.419   .     S
C189   C191    1.527   .     S
C189   H88     1.109   .     S
C189   H89     1.108   1_545 S
C190   O151    1.288   .     A
C190   O130    1.296   .     A
C191   H92     1.107   .     S
C191   H93     1.112   .     S
C191   H91     1.111   1_545 S
C192   H94     1.110   .     S
C192   C193    1.541   .     S
C192   O37     1.413   .     S
C192   H95     1.100   .     S
C193   H96     1.110   .     S
C193   C194    1.529   1_565 S
C193   H97     1.109   1_565 S
C194   H99     1.113   .     S
C194   H98     1.110   .     S
C194   C193    1.529   1_545 S
C194   H100    1.111   1_545 S
C195   C196    1.539   .     S
C195   O38     1.411   .     S
C195   H102    1.106   .     S
C195   H103    1.106   .     S
C196   H104    1.113   .     S
C196   H105    1.110   .     S
C196   C197    1.518   1_545 S
C197   H106    1.113   .     S
C197   H107    1.094   .     S
C197   H108    1.115   .     S
C197   C196    1.518   1_565 S
C198   H109    1.113   .     S
C198   O39     1.415   .     S
C198   C199    1.523   .     S
C198   H110    1.121   .     S
C199   C200    1.522   .     S
C199   H114    1.113   .     S
C199   H111    1.109   .     S
C200   H116    1.107   .     S
C200   H115    1.109   .     S
C200   H117    1.106   .     S
C201   O131    1.295   .     A
C201   O150    1.291   .     A
C202   O40     1.417   .     S
C202   H118    1.111   .     S
C202   C203    1.530   .     S
C202   H119    1.117   .     S
C203   C204    1.521   .     S
C203   H121    1.109   .     S
C203   H120    1.104   .     S
C204   H125    1.110   .     S
C204   H122    1.110   .     S
C204   H123    1.112   .     S
C205   O41     1.418   .     S
C205   H127    1.118   .     S
C205   H126    1.113   .     S
C205   C206    1.522   .     S
C206   C207    1.524   .     S
C206   H128    1.105   .     S
C206   H129    1.111   .     S
C207   H130    1.111   .     S
C207   H131    1.113   .     S
C207   H132    1.110   .     S
C208   O42     1.423   .     S
C208   H134    1.113   .     S
C208   C209    1.520   .     S
C208   H133    1.107   .     S
C209   C210    1.516   .     S
C209   H137    1.107   .     S
C209   H136    1.108   .     S
C210   H140    1.104   .     S
C210   H139    1.108   .     S
C210   H138    1.109   .     S
C211   C213    1.520   .     S
C211   H141    1.110   .     S
C211   H142    1.094   .     S
C211   O43     1.398   .     S
C212   O166    1.292   .     A
C212   O132    1.294   .     A
C213   H143    1.106   .     S
C213   C214    1.522   1_545 S
C213   H144    1.096   1_545 S
C214   H147    1.110   .     S
C214   H145    1.105   .     S
C214   C213    1.522   1_565 S
C214   H148    1.109   1_565 S
C215   O44     1.398   .     S
C215   C216    1.524   .     S
C215   H149    1.110   .     S
C215   H150    1.100   .     S
C216   H151    1.105   .     S
C216   C217    1.516   1_565 S
C216   H152    1.102   1_565 S
C217   H155    1.103   .     S
C217   H153    1.107   .     S
C217   C216    1.516   1_545 S
C217   H154    1.111   1_545 S
C218   H158    1.099   .     S
C218   H156    1.104   .     S
C218   C219    1.537   .     S
C218   O45     1.419   .     S
C219   H159    1.108   .     S
C219   C220    1.528   .     S
C219   H160    1.102   1_545 S
C220   H162    1.108   .     S
C220   H163    1.111   .     S
C220   H161    1.109   1_545 S
C221   H164    1.096   .     S
C221   C222    1.533   .     S
C221   H165    1.095   .     S
C221   O47     1.419   .     S
C222   H166    1.110   .     S
C222   C225    1.536   1_565 S
C222   H167    1.097   1_565 S
C223   O196    1.291   .     A
C223   O13     1.296   .     A
C224   O133    1.286   .     A
C224   O165    1.302   .     A
C225   H169    1.111   .     S
C225   H170    1.110   .     S
C225   C222    1.536   1_545 S
C225   H171    1.114   1_545 S
C226   O48     1.422   .     S
C226   H172    1.111   .     S
C226   H173    1.112   .     S
C226   C227    1.522   .     S
C227   C228    1.524   .     S
C227   H174    1.103   .     S
C227   H175    1.106   .     S
C228   H176    1.111   .     S
C228   H177    1.113   .     S
C228   H178    1.108   .     S
C229   H181    1.112   .     S
C229   H180    1.110   .     S
C229   O49     1.422   .     S
C229   C230    1.525   .     S
C230   C231    1.523   .     S
C230   H183    1.106   .     S
C230   H182    1.111   .     S
C231   H185    1.108   .     S
C231   H186    1.108   .     S
C231   H184    1.110   .     S
C232   O50     1.420   .     S
C232   C233    1.528   .     S
C232   H188    1.114   .     S
C232   H187    1.111   .     S
C233   H191    1.109   .     S
C233   C234    1.524   .     S
C233   H189    1.097   .     S
C234   H192    1.109   .     S
C234   H194    1.109   .     S
C234   H193    1.110   .     S
C235   O155    1.297   .     A
C235   O134    1.291   .     A
C236   H196    1.116   .     S
C236   O51     1.415   .     S
C236   H195    1.110   .     S
C236   C237    1.518   .     S
C237   H197    1.106   .     S
C237   C238    1.524   .     S
C237   H198    1.109   .     S
C238   H200    1.102   .     S
C238   H199    1.110   .     S
C238   H202    1.108   .     S
C239   O52     1.420   .     S
C239   H203    1.108   .     S
C239   H204    1.108   .     S
C239   C240    1.541   .     S
C240   C241    1.523   .     S
C240   H205    1.111   .     S
C240   H206    1.111   1_655 S
C241   H209    1.112   .     S
C241   H208    1.111   .     S
C241   H207    1.111   1_655 S
C242   H211    1.102   .     S
C242   O53     1.416   .     S
C242   H210    1.103   .     S
C242   C243    1.539   .     S
C243   H213    1.108   .     S
C243   C244    1.525   1_455 S
C243   H214    1.106   1_455 S
C244   H215    1.113   .     S
C244   H216    1.104   .     S
C244   C243    1.525   1_655 S
C244   H217    1.111   1_655 S
C245   H218    1.110   .     S
C245   H219    1.098   .     S
C245   C247    1.532   .     S
C245   O54     1.411   .     S
C246   O154    1.298   .     A
C246   O136    1.292   .     A
C247   H220    1.112   .     S
C247   C248    1.522   1_655 S
C247   H221    1.105   1_655 S
C248   H225    1.112   .     S
C248   H222    1.107   .     S
C248   C247    1.522   1_455 S
C248   H226    1.110   1_455 S
C249   O55     1.395   .     S
C249   C250    1.521   .     S
C249   H227    1.109   .     S
C249   H228    1.106   .     S
C250   H229    1.104   .     S
C250   C251    1.517   1_455 S
C250   H230    1.109   1_455 S
C251   H231    1.109   .     S
C251   H232    1.098   .     S
C251   C250    1.517   1_655 S
C251   H233    1.110   1_655 S
C252   O56     1.412   .     S
C252   C253    1.523   .     S
C252   H234    1.111   .     S
C252   H236    1.116   .     S
C253   C254    1.516   .     S
C253   H237    1.103   .     S
C253   H238    1.110   .     S
C254   H241    1.103   .     S
C254   H240    1.105   .     S
C254   H239    1.109   .     S
C255   H242    1.119   .     S
C255   O58     1.417   .     S
C255   C256    1.533   .     S
C255   H243    1.126   .     S
C256   C258    1.518   .     S
C256   H244    1.110   .     S
C256   H245    1.117   .     S
C257   O137    1.296   .     A
C257   O171    1.291   .     A
C258   H247    1.120   .     S
C258   H249    1.117   .     S
C258   H248    1.120   .     S
C259   C260    1.529   .     S
C259   O59     1.423   .     S
C259   H250    1.110   .     S
C259   H251    1.115   .     S
C260   C261    1.526   .     S
C260   H252    1.098   .     S
C260   H253    1.105   .     S
C261   H254    1.117   .     S
C261   H255    1.119   .     S
C261   H256    1.114   .     S
C262   O60     1.424   .     S
C262   H259    1.111   .     S
C262   H258    1.110   .     S
C262   C263    1.519   .     S
C263   H260    1.093   .     S
C263   C264    1.520   .     S
C263   H261    1.104   .     S
C264   H262    1.109   .     S
C264   H264    1.105   .     S
C264   H263    1.110   .     S
C265   O61     1.411   .     S
C265   H265    1.112   .     S
C265   C266    1.528   .     S
C265   H266    1.094   .     S
C266   H267    1.110   .     S
C266   C267    1.528   1_455 S
C266   H269    1.098   1_455 S
C267   H270    1.106   .     S
C267   H271    1.111   .     S
C267   H272    1.111   .     S
C267   C266    1.528   1_655 S
C268   O138    1.298   .     A
C268   O170    1.289   .     A
C269   H274    1.101   .     S
C269   H273    1.109   .     S
C269   O62     1.405   .     S
C269   C270    1.534   1_655 S
C270   H276    1.101   .     S
C270   C271    1.528   .     S
C270   C269    1.534   1_455 S
C270   H275    1.108   1_455 S
C271   H278    1.110   .     S
C271   H277    1.109   .     S
C271   H280    1.113   1_455 S
C272   H282    1.102   .     S
C272   O63     1.417   .     S
C272   H281    1.104   .     S
C272   C273    1.539   .     S
C273   H283    1.105   .     S
C273   C274    1.527   1_455 S
C273   H284    1.098   1_455 S
C274   H286    1.108   .     S
C274   H285    1.110   .     S
C274   C273    1.527   1_655 S
C274   H287    1.112   1_655 S
C275   H289    1.098   .     S
C275   H288    1.096   .     S
C275   C276    1.533   .     S
C275   O64     1.419   .     S
C276   H291    1.112   .     S
C276   C277    1.531   1_655 S
C276   H292    1.098   1_655 S
C277   H293    1.110   .     S
C277   H294    1.108   .     S
C277   H295    1.111   .     S
C277   C276    1.531   1_455 S
C278   H296    1.110   .     S
C278   C280    1.522   .     S
C278   O65     1.418   .     S
C278   H297    1.113   .     S
C279   O139    1.296   .     A
C279   O147    1.295   .     A
C280   H298    1.107   .     S
C280   H299    1.107   .     S
C280   C281    1.523   .     S
C281   H300    1.109   .     S
C281   H302    1.110   .     S
C281   H303    1.108   .     S
C282   H304    1.107   .     S
C282   H305    1.115   .     S
C282   C283    1.525   .     S
C282   O66     1.422   .     S
C283   H306    1.112   .     S
C283   H307    1.105   .     S
C283   C284    1.525   .     S
C284   H308    1.110   .     S
C284   H310    1.109   .     S
C284   H309    1.109   .     S
C285   H313    1.128   .     S
C285   C286    1.531   .     S
C285   O67     1.423   .     S
C285   H311    1.122   .     S
C286   H315    1.122   .     S
C286   C287    1.525   .     S
C286   H314    1.113   .     S
C287   H317    1.115   .     S
C287   H318    1.115   .     S
C287   H316    1.118   .     S
C288   O69     1.414   .     S
C288   H320    1.120   .     S
C288   H319    1.116   .     S
C288   C289    1.527   .     S
C289   H321    1.106   .     S
C289   H322    1.117   .     S
C289   C291    1.525   .     S
C290   O140    1.289   .     A
C290   O145    1.302   .     A
C291   H324    1.112   .     S
C291   H325    1.105   .     S
C291   H326    1.112   .     S
C292   C293    1.543   .     S
C292   O70     1.422   .     S
C292   H328    1.107   .     S
C292   H327    1.109   .     S
C293   C294    1.534   .     S
C293   H329    1.115   .     S
C293   H330    1.116   1_554 S
C294   H332    1.116   .     S
C294   H333    1.118   .     S
C294   H331    1.119   1_554 S
C295   O71     1.420   .     S
C295   H336    1.108   .     S
C295   C296    1.537   .     S
C295   H337    1.099   .     S
C296   H338    1.109   .     S
C296   C297    1.528   .     S
C296   H339    1.108   1_556 S
C297   H341    1.108   .     S
C297   H342    1.108   .     S
C297   H340    1.112   1_556 S
C298   H343    1.112   .     S
C298   C299    1.543   .     S
C298   O72     1.414   .     S
C298   H344    1.100   .     S
C299   H345    1.122   .     S
C299   C300    1.536   1_554 S
C299   H347    1.123   1_554 S
C300   H348    1.118   .     S
C300   H349    1.113   .     S
C300   C299    1.536   1_556 S
C300   H350    1.119   1_556 S
C301   O180    1.301   .     A
C301   O141    1.289   .     A
C302   H352    1.103   .     S
C302   O73     1.412   .     S
C302   H351    1.105   .     S
C302   C303    1.535   .     S
C303   H353    1.111   .     S
C303   C304    1.517   1_556 S
C303   H354    1.108   1_556 S
C304   H355    1.111   .     S
C304   H356    1.094   .     S
C304   C303    1.517   1_554 S
C304   H358    1.111   1_554 S
C305   O74     1.416   .     S
C305   H359    1.111   .     S
C305   H360    1.120   .     S
C305   C306    1.523   .     S
C306   H361    1.110   .     S
C306   C307    1.524   .     S
C306   H362    1.115   .     S
C307   H365    1.110   .     S
C307   H363    1.117   .     S
C307   H364    1.111   .     S
C308   H367    1.125   .     S
C308   O75     1.416   .     S
C308   H366    1.117   .     S
C308   C309    1.525   .     S
C309   H369    1.111   .     S
C309   H370    1.115   .     S
C309   C310    1.517   .     S
C310   H372    1.112   .     S
C310   H371    1.112   .     S
C310   H373    1.110   .     S
C311   H375    1.116   .     S
C311   O76     1.417   .     S
C311   C313    1.522   .     S
C311   H374    1.110   .     S
C312   O142    1.298   .     A
C312   O178    1.293   .     A
C313   H376    1.106   .     S
C313   H377    1.108   .     S
C313   C314    1.522   .     S
C314   H380    1.110   .     S
C314   H381    1.107   .     S
C314   H378    1.108   .     S
C315   H383    1.115   .     S
C315   C316    1.523   .     S
C315   H382    1.108   .     S
C315   O77     1.425   .     S
C316   C317    1.520   .     S
C316   H385    1.107   .     S
C316   H384    1.106   .     S
C317   H386    1.109   .     S
C317   H387    1.110   .     S
C317   H388    1.106   .     S
C318   H389    1.107   .     S
C318   O78     1.405   .     S
C318   H391    1.098   .     S
C318   C319    1.531   .     S
C319   H392    1.110   .     S
C319   C320    1.527   1_556 S
C319   H393    1.096   1_556 S
C320   H395    1.108   .     S
C320   H394    1.109   .     S
C320   C319    1.527   1_554 S
C320   H396    1.109   1_554 S
C321   O80     1.403   .     S
C321   H397    1.110   .     S
C321   H398    1.098   .     S
C321   C322    1.527   .     S
C322   H399    1.110   .     S
C322   C324    1.520   1_554 S
C322   H400    1.102   1_554 S
C323   O143    1.293   .     A
C323   O160    1.295   .     A
C324   H402    1.109   .     S
C324   H404    1.109   .     S
C324   H403    1.108   .     S
C324   C322    1.520   1_556 S
C325   H405    1.104   .     S
C325   H406    1.098   .     S
C325   C326    1.535   .     S
C325   O81     1.417   .     S
C326   H407    1.108   .     S
C326   C327    1.529   1_556 S
C326   H408    1.100   1_556 S
C327   H410    1.108   .     S
C327   H409    1.110   .     S
C327   C326    1.529   1_554 S
C327   H411    1.111   1_554 S
C328   H414    1.097   .     S
C328   O82     1.418   .     S
C328   H413    1.094   .     S
C328   C329    1.532   .     S
C329   H415    1.106   .     S
C329   C330    1.528   1_554 S
C329   H416    1.096   1_554 S
C330   H418    1.108   .     S
C330   H417    1.106   .     S
C330   C329    1.528   1_556 S
C330   H419    1.112   1_556 S
C331   C332    1.524   .     S
C331   H420    1.113   .     S
C331   O83     1.423   .     S
C331   H421    1.114   .     S
C332   H422    1.101   .     S
C332   H424    1.110   .     S
C332   C333    1.528   .     S
C333   H425    1.123   .     S
C333   H426    1.126   .     S
C333   H427    1.120   .     S
C334   O24     1.297   .     A
C334   O197    1.290   .     A
C335   O159    1.290   .     A
C335   O144    1.301   .     A
C336   H428    1.107   .     S
C336   C337    1.522   .     S
C336   H429    1.113   .     S
C336   O84     1.416   .     S
C337   C338    1.524   .     S
C337   H430    1.111   .     S
C337   H431    1.108   .     S
C338   H432    1.111   .     S
C338   H435    1.108   .     S
C338   H433    1.108   .     S
C339   H437    1.114   .     S
C339   O85     1.419   .     S
C339   H436    1.110   .     S
C339   C340    1.522   .     S
C340   C341    1.522   .     S
C340   H439    1.109   .     S
C340   H438    1.096   .     S
C341   H442    1.106   .     S
C341   H440    1.107   .     S
C341   H441    1.110   .     S
C342   O86     1.417   .     S
C342   H444    1.118   .     S
C342   H443    1.112   .     S
C342   C343    1.518   .     S
C343   H448    1.111   .     S
C343   C344    1.519   .     S
C343   H447    1.105   .     S
C344   H451    1.111   .     S
C344   H450    1.106   .     S
C344   H449    1.111   .     S
C345   C347    1.549   .     S
C345   O87     1.412   .     S
C345   H452    1.104   .     S
C345   H453    1.107   .     S
C346   O169    1.290   .     A
C346   O148    1.301   .     A
C347   C348    1.527   .     S
C347   H455    1.117   .     S
C347   H454    1.117   .     S
C348   H458    1.113   .     S
C348   H456    1.118   .     S
C348   H459    1.116   .     S
C349   O88     1.412   .     S
C349   H461    1.106   .     S
C349   H460    1.109   .     S
C349   C350    1.536   .     S
C350   C351    1.511   .     S
C350   H463    1.107   .     S
C350   H462    1.106   .     S
C351   H465    1.099   .     S
C351   H466    1.112   .     S
C351   H464    1.111   .     S
C352   H467    1.109   .     S
C352   C353    1.529   .     S
C352   H469    1.102   .     S
C352   O89     1.412   .     S
C353   H470    1.113   .     S
C353   H471    1.102   .     S
C353   C354    1.524   .     S
C354   H474    1.112   .     S
C354   H473    1.109   .     S
C354   H472    1.109   .     S
C355   H475    1.105   .     S
C355   H476    1.101   .     S
C355   O91     1.403   .     S
C355   C356    1.530   .     S
C356   C358    1.524   .     S
C356   H478    1.102   .     S
C356   H477    1.106   .     S
C357   O149    1.293   .     A
C357   O167    1.295   .     A
C358   H480    1.108   .     S
C358   H482    1.108   .     S
C358   H481    1.112   .     S
C359   O92     1.413   .     S
C359   C360    1.526   .     S
C359   H483    1.113   .     S
C359   H484    1.118   .     S
C360   H486    1.106   .     S
C360   H485    1.098   .     S
C360   C361    1.521   .     S
C361   H487    1.111   .     S
C361   H488    1.111   .     S
C361   H489    1.103   .     S
C362   C363    1.517   .     S
C362   H492    1.114   .     S
C362   O93     1.411   .     S
C362   H491    1.111   .     S
C363   H493    1.103   .     S
C363   H494    1.110   .     S
C363   C364    1.516   .     S
C364   H496    1.109   .     S
C364   H497    1.102   .     S
C364   H495    1.108   .     S
C365   O94     1.421   .     S
C365   H498    1.111   .     S
C365   H499    1.115   .     S
C365   C366    1.520   .     S
C366   H502    1.109   .     S
C366   H500    1.097   .     S
C366   C367    1.522   .     S
C367   H505    1.109   .     S
C367   H503    1.109   .     S
C367   H504    1.111   .     S
C368   O173    1.298   .     A
C368   O152    1.286   .     A
C369   H506    1.117   .     S
C369   O95     1.423   .     S
C369   C370    1.533   .     S
C369   H507    1.123   .     S
C370   C371    1.530   .     S
C370   H508    1.119   .     S
C370   H509    1.120   .     S
C371   H510    1.123   .     S
C371   H513    1.119   .     S
C371   H511    1.120   .     S
C372   H514    1.109   .     S
C372   O96     1.416   .     S
C372   H515    1.107   .     S
C372   C373    1.546   .     S
C373   H517    1.114   .     S
C373   H516    1.116   .     S
C373   C374    1.522   .     S
C374   H520    1.114   .     S
C374   H519    1.111   .     S
C374   H518    1.119   .     S
C375   O97     1.415   .     S
C375   H521    1.110   .     S
C375   C376    1.537   .     S
C375   H522    1.105   .     S
C376   H524    1.105   .     S
C376   H525    1.108   .     S
C376   C377    1.524   .     S
C377   H526    1.109   .     S
C377   H527    1.106   .     S
C377   H528    1.112   .     S
C378   H530    1.106   .     S
C378   H529    1.108   .     S
C378   C380    1.534   .     S
C378   O98     1.420   .     S
C379   O172    1.298   .     A
C379   O153    1.289   .     A
C380   C381    1.533   .     S
C380   H532    1.102   .     S
C380   H531    1.115   .     S
C381   H533    1.114   .     S
C381   H535    1.112   .     S
C381   H536    1.113   .     S
C382   H538    1.100   .     S
C382   C383    1.530   .     S
C382   H537    1.104   .     S
C382   O99     1.409   .     S
C383   C384    1.519   .     S
C383   H540    1.101   .     S
C383   H539    1.111   .     S
C384   H542    1.112   .     S
C384   H543    1.107   .     S
C384   H541    1.110   .     S
C385   H544    1.114   .     S
C385   C386    1.526   .     S
C385   O100    1.414   .     S
C385   H546    1.118   .     S
C386   H548    1.105   .     S
C386   H547    1.099   .     S
C386   C387    1.520   .     S
C387   H551    1.104   .     S
C387   H549    1.113   .     S
C387   H550    1.112   .     S
C388   H553    1.103   .     S
C388   O102    1.411   .     S
C388   C389    1.537   .     S
C388   H552    1.103   .     S
C389   H555    1.111   .     S
C389   C391    1.520   .     S
C389   H554    1.107   .     S
C390   O164    1.296   .     A
C390   O156    1.293   .     A
C391   H560    1.106   .     S
C391   H558    1.111   .     S
C391   H559    1.113   .     S
C392   C393    1.524   .     S
C392   H561    1.108   .     S
C392   H562    1.115   .     S
C392   O103    1.421   .     S
C393   H563    1.096   .     S
C393   H564    1.108   .     S
C393   C394    1.521   .     S
C394   H567    1.107   .     S
C394   H566    1.111   .     S
C394   H565    1.108   .     S
C395   H569    1.116   .     S
C395   H570    1.116   .     S
C395   O104    1.421   .     S
C395   C396    1.529   .     S
C396   H572    1.119   .     S
C396   H571    1.103   .     S
C396   C397    1.531   .     S
C397   H575    1.118   .     S
C397   H573    1.119   .     S
C397   H574    1.121   .     S
C398   O105    1.414   .     S
C398   C399    1.545   .     S
C398   H576    1.106   .     S
C398   H577    1.107   .     S
C399   H580    1.109   .     S
C399   C400    1.513   .     S
C399   H578    1.111   .     S
C400   H582    1.109   .     S
C400   H581    1.112   .     S
C400   H583    1.110   .     S
C401   O163    1.304   .     A
C401   O158    1.289   .     A
C402   H585    1.105   .     S
C402   O106    1.411   .     S
C402   C403    1.541   .     S
C402   H584    1.110   .     S
C403   H587    1.105   .     S
C403   H586    1.103   .     S
C403   C404    1.528   .     S
C404   H589    1.106   .     S
C404   H591    1.116   .     S
C404   H588    1.117   .     S
C405   C406    1.533   .     S
C405   H593    1.099   .     S
C405   O107    1.407   .     S
C405   H592    1.110   .     S
C406   C407    1.520   .     S
C406   H595    1.103   .     S
C406   H594    1.111   .     S
C407   H597    1.109   .     S
C407   H598    1.110   .     S
C407   H596    1.108   .     S
C408   O108    1.411   .     S
C408   H599    1.109   .     S
C408   H600    1.108   .     S
C408   C409    1.538   .     S
C409   C410    1.527   .     S
C409   H602    1.105   .     S
C409   H603    1.104   .     S
C410   H606    1.111   .     S
C410   H604    1.097   .     S
C410   H605    1.109   .     S
C411   O109    1.415   .     S
C411   C413    1.524   .     S
C411   H607    1.114   .     S
C411   H608    1.121   .     S
C412   O161    1.290   .     A
C412   O177    1.299   .     A
C413   H610    1.106   .     S
C413   C414    1.515   .     S
C413   H609    1.102   .     S
C414   H614    1.104   .     S
C414   H613    1.111   .     S
C414   H611    1.109   .     S
C415   O110    1.409   .     S
C415   C416    1.533   .     S
C415   H615    1.104   .     S
C415   H616    1.102   .     S
C416   C417    1.518   .     S
C416   H618    1.110   .     S
C416   H617    1.106   .     S
C417   H619    1.110   .     S
C417   H620    1.112   .     S
C417   H621    1.108   .     S
C418   H622    1.107   .     S
C418   O111    1.422   .     S
C418   C419    1.526   .     S
C418   H624    1.116   .     S
C419   H625    1.102   .     S
C419   H626    1.108   .     S
C419   C420    1.519   .     S
C420   H629    1.105   .     S
C420   H628    1.112   .     S
C420   H627    1.108   .     S
C421   H630    1.107   .     S
C421   H631    1.116   .     S
C421   O114    1.425   .     S
C421   C422    1.524   .     S
C422   C424    1.527   .     S
C422   H632    1.108   .     S
C422   H633    1.107   .     S
C423   O162    1.300   .     A
C423   O176    1.290   .     A
C424   H636    1.109   .     S
C424   H635    1.109   .     S
C424   H637    1.108   .     S
C425   C431    1.431   .     A
C425   O8      1.392   .     S
C426   O35     1.297   .     A
C426   O194    1.297   .     A
C427   C430    1.420   .     A
C427   O9      1.392   .     S
C428   C433    1.419   .     A
C428   O10     1.394   .     S
C429   O11     1.397   .     S
C429   C432    1.410   .     A
C430   O12     1.386   .     S
C431   O14     1.385   .     S
C432   O15     1.387   .     S
C433   O16     1.383   .     S
C434   O17     1.402   .     S
C434   C440    1.430   .     A
C435   O18     1.395   .     S
C435   C439    1.420   .     A
C436   C442    1.417   .     A
C436   O19     1.392   .     S
C437   O195    1.300   .     A
C437   O46     1.290   .     A
C438   C441    1.418   .     A
C438   O20     1.395   .     S
C439   O21     1.387   .     S
C440   O22     1.384   .     S
C441   O23     1.384   .     S
C442   O25     1.384   .     S
C443   C449    1.425   .     A
C443   O26     1.400   .     S
C444   C447    1.423   .     A
C444   O27     1.394   .     S
C445   C451    1.419   .     A
C445   O28     1.392   .     S
C446   O29     1.403   .     S
C446   C450    1.422   .     A
C447   O30     1.388   .     S
C448   O57     1.296   .     A
C448   O192    1.296   .     A
C449   O31     1.384   .     S
C450   O32     1.384   .     S
C451   O33     1.384   .     S
C452   O34     1.390   .     S
C452   C457    1.410   1_565 S
C453   O36     1.391   .     S
C453   C456    1.406   1_545 S
C454   O37     1.398   .     S
C454   C460    1.414   1_565 S
C455   O38     1.392   .     S
C455   C458    1.414   1_545 S
C456   O39     1.382   .     S
C456   C453    1.406   1_565 S
C457   O40     1.385   .     S
C457   C452    1.410   1_545 S
C458   O41     1.383   .     S
C458   C455    1.414   1_565 S
C459   O193    1.297   .     A
C459   O68     1.295   .     A
C460   O42     1.383   .     S
C460   C454    1.414   1_545 S
C461   O43     1.401   .     S
C461   C466    1.427   1_545 S
C462   O44     1.396   .     S
C462   C465    1.420   1_565 S
C463   O45     1.394   .     S
C463   C468    1.417   1_545 S
C464   O47     1.408   .     S
C464   C467    1.424   1_565 S
C465   O48     1.387   .     S
C465   C462    1.420   1_545 S
C466   O49     1.388   .     S
C466   C461    1.427   1_565 S
C467   O50     1.385   .     S
C467   C464    1.424   1_545 S
C468   O51     1.386   .     S
C468   C463    1.417   1_565 S
C469   O52     1.394   .     S
C469   C475    1.406   1_655 S
C470   O181    1.292   .     A
C470   O79     1.303   .     A
C471   O53     1.391   .     S
C471   C474    1.409   1_455 S
C472   O54     1.403   .     S
C472   C477    1.419   1_655 S
C473   O55     1.393   .     S
C473   C476    1.415   1_455 S
C474   O56     1.383   .     S
C474   C471    1.409   1_655 S
C475   O58     1.382   .     S
C475   C469    1.406   1_455 S
C476   O59     1.386   .     S
C476   C473    1.415   1_655 S
C477   O60     1.382   .     S
C477   C472    1.419   1_455 S
C478   O61     1.415   .     S
C478   C5      1.431   1_455 S
C479   O62     1.399   .     S
C479   C4      1.420   1_655 S
C480   O63     1.397   .     S
C480   C7      1.419   1_455 S
H82    C186    1.110   1_545 S
H83    C187    1.113   1_545 S
H89    C189    1.108   1_565 S
H91    C191    1.111   1_565 S
H97    C193    1.109   1_545 S
H100   C194    1.111   1_565 S
H144   C213    1.096   1_565 S
H148   C214    1.109   1_545 S
H152   C216    1.102   1_545 S
H154   C217    1.111   1_565 S
H160   C219    1.102   1_565 S
H161   C220    1.109   1_565 S
H167   C222    1.097   1_545 S
H171   C225    1.114   1_565 S
H206   C240    1.111   1_455 S
H207   C241    1.111   1_455 S
H214   C243    1.106   1_655 S
H217   C244    1.111   1_455 S
H221   C247    1.105   1_455 S
H226   C248    1.110   1_655 S
H230   C250    1.109   1_655 S
H233   C251    1.110   1_455 S
H269   C266    1.098   1_655 S
H275   C270    1.108   1_655 S
H280   C271    1.113   1_655 S
H284   C273    1.098   1_655 S
H287   C274    1.112   1_455 S
H292   C276    1.098   1_455 S
H330   C293    1.116   1_556 S
H331   C294    1.119   1_556 S
H339   C296    1.108   1_554 S
H340   C297    1.112   1_554 S
H347   C299    1.123   1_556 S
H350   C300    1.119   1_554 S
H354   C303    1.108   1_554 S
H358   C304    1.111   1_556 S
H393   C319    1.096   1_554 S
H396   C320    1.109   1_556 S
H400   C322    1.102   1_556 S
H408   C326    1.100   1_554 S
H411   C327    1.111   1_556 S
H416   C329    1.096   1_556 S
H419   C330    1.112   1_554 S
O1     Zn5     1.978   .     S
O1     Zn1     1.976   .     S
O1     Zn22    1.975   .     S
O1     Zn17    1.973   .     S
O2     Zn24    1.965   .     S
O3     Zn1     1.962   .     S
O4     Zn29    1.963   .     S
O5     Zn28    1.963   .     S
O6     Zn23    1.961   .     S
O7     Zn27    1.961   .     S
O13    Zn25    1.966   .     S
O24    Zn26    1.966   .     S
O35    Zn18    1.963   .     S
O46    Zn19    1.963   .     S
O57    Zn20    1.965   .     S
O68    Zn21    1.965   .     S
O79    Zn21    1.964   .     S
O90    Zn20    1.964   .     S
O101   Zn19    1.966   .     S
O112   Zn24    1.975   .     S
O112   Zn6     1.978   .     S
O112   Zn12    1.976   .     S
O112   Zn16    1.973   .     S
O113   Zn18    1.966   .     S
O115   Zn26    1.965   .     S
O116   Zn25    1.965   .     S
O117   Zn24    1.965   .     S
O118   Zn22    1.965   .     S
O119   Zn25    1.964   .     S
O120   Zn26    1.964   .     S
O121   Zn19    1.962   .     S
O122   Zn18    1.962   .     S
O123   Zn24    1.963   .     S
O124   Zn11    1.975   .     S
O124   Zn25    1.973   .     S
O124   Zn23    1.978   .     S
O124   Zn3     1.976   .     S
O125   Zn22    1.963   .     S
O126   Zn20    1.961   .     S
O127   Zn21    1.961   .     S
O128   Zn13    1.965   .     S
O129   Zn11    1.965   .     S
O130   Zn7     1.966   .     S
O131   Zn8     1.966   .     S
O132   Zn14    1.963   .     S
O133   Zn15    1.963   .     S
O134   Zn6     1.965   .     S
O135   Zn27    1.978   .     S
O135   Zn13    1.975   .     S
O135   Zn26    1.973   .     S
O135   Zn4     1.976   .     S
O136   Zn5     1.965   .     S
O137   Zn9     1.964   .     S
O138   Zn10    1.964   .     S
O139   Zn3     1.966   .     S
O140   Zn4     1.966   .     S
O141   Zn17    1.965   .     S
O142   Zn16    1.965   .     S
O143   Zn2     1.965   .     S
O144   Zn32    1.965   .     S
O145   Zn27    1.965   .     S
O146   Zn28    1.975   .     S
O146   Zn8     1.973   .     S
O146   Zn18    1.976   .     S
O146   Zn9     1.978   .     S
O147   Zn23    1.965   .     S
O148   Zn16    1.964   .     S
O149   Zn17    1.964   .     S
O150   Zn28    1.965   .     S
O151   Zn29    1.965   .     S
O152   Zn15    1.962   .     S
O153   Zn14    1.962   .     S
O154   Zn1     1.966   .     S
O155   Zn12    1.966   .     S
O156   Zn11    1.963   .     S
O157   Zn19    1.976   .     S
O157   Zn7     1.973   .     S
O157   Zn29    1.975   .     S
O157   Zn10    1.978   .     S
O158   Zn13    1.963   .     S
O159   Zn31    1.966   .     S
O160   Zn30    1.966   .     S
O161   Zn10    1.961   .     S
O162   Zn9     1.961   .     S
O163   Zn4     1.962   .     S
O164   Zn3     1.962   .     S
O165   Zn30    1.965   .     S
O166   Zn31    1.965   .     S
O167   Zn5     1.961   .     S
O168   Zn15    1.976   .     S
O168   Zn20    1.978   .     S
O168   Zn2     1.975   .     S
O168   Zn30    1.973   .     S
O169   Zn6     1.961   .     S
O170   Zn29    1.965   .     S
O171   Zn28    1.965   .     S
O172   Zn32    1.963   .     S
O173   Zn2     1.963   .     S
O174   Zn23    1.964   .     S
O175   Zn27    1.964   .     S
O176   Zn8     1.964   .     S
O177   Zn7     1.964   .     S
O178   Zn12    1.963   .     S
O179   Zn14    1.976   .     S
O179   Zn31    1.973   .     S
O179   Zn32    1.975   .     S
O179   Zn21    1.978   .     S
O180   Zn1     1.963   .     S
O181   Zn32    1.965   .     S
O182   Zn2     1.965   .     S
O183   Zn16    1.966   .     S
O184   Zn17    1.966   .     S
O185   Zn4     1.963   .     S
O186   Zn3     1.963   .     S
O187   Zn10    1.965   .     S
O188   Zn9     1.965   .     S
O189   Zn5     1.964   .     S
O190   Zn22    1.965   .     S
O191   Zn6     1.964   .     S
O192   Zn15    1.966   .     S
O193   Zn14    1.966   .     S
O194   Zn8     1.965   .     S
O195   Zn7     1.965   .     S
O196   Zn11    1.965   .     S
O197   Zn13    1.965   .     S
O198   Zn30    1.964   .     S
O199   Zn31    1.964   .     S
O200   Zn12    1.962   .     S
