data_str_m1_o10_o18_pcu_sym.197
_audit_creation_date              2020-01-03
_audit_creation_method            'Materials Studio'
_symmetry_space_group_name_H-M    'P1'
_symmetry_Int_Tables_number       1
_symmetry_cell_setting            triclinic
loop_
_symmetry_equiv_pos_as_xyz
  x,y,z
_cell_length_a                    32.5438
_cell_length_b                    32.5282
_cell_length_c                    35.7835
_cell_angle_alpha                 98.4893
_cell_angle_beta                  73.0254
_cell_angle_gamma                 98.6298
loop_
_atom_site_label
_atom_site_type_symbol
_atom_site_fract_x
_atom_site_fract_y
_atom_site_fract_z
_atom_site_U_iso_or_equiv
_atom_site_adp_type
_atom_site_occupancy
C1     C     0.05246   0.15995   0.25871   0.00000  Uiso   1.00
C2     C     0.19026   0.12622   0.46161   0.00000  Uiso   1.00
C3     C     0.20358   0.10109   0.48291   0.00000  Uiso   1.00
C4     C     0.28102   0.17358   0.24121   0.00000  Uiso   1.00
C5     C     0.20211   0.11343   0.02213   0.00000  Uiso   1.00
C6     C     0.18864   0.15286   0.04033   0.00000  Uiso   1.00
C7     C     0.21324   0.08615   0.04358   0.00000  Uiso   1.00
C8     C     0.20984   0.09689   0.08335   0.00000  Uiso   1.00
C9     C     0.18656   0.16335   0.08052   0.00000  Uiso   1.00
C10    C     0.32702   0.17623   0.23764   0.00000  Uiso   1.00
C11    C     0.00707   0.15760   0.26211   0.00000  Uiso   1.00
C12    C     0.13437   0.24504   0.41521   0.00000  Uiso   1.00
C13    C     0.18093   0.32217   0.23841   0.00000  Uiso   1.00
C14    C     0.15124   0.01207   0.26200   0.00000  Uiso   1.00
C15    C     0.15579   0.05612   0.25891   0.00000  Uiso   1.00
C16    C     0.17683   0.27767   0.24143   0.00000  Uiso   1.00
C17    C     0.18825   0.14494   0.14407   0.00000  Uiso   1.00
C18    C     0.14672   0.18926   0.35597   0.00000  Uiso   1.00
C19    C     0.14397   0.20416   0.39770   0.00000  Uiso   1.00
C20    C     0.19650   0.13546   0.10172   0.00000  Uiso   1.00
C21    C     0.13570   0.25717   0.45399   0.00000  Uiso   1.00
C22    C     0.15536   0.17746   0.41949   0.00000  Uiso   1.00
C23    C     0.15988   0.19066   0.45756   0.00000  Uiso   1.00
C24    C     0.14876   0.23092   0.47498   0.00000  Uiso   1.00
C25    C     0.17512   0.16513   0.47877   0.00000  Uiso   1.00
C26    C     0.17618   0.17946   0.01820   0.00000  Uiso   1.00
C27    C     0.16492   0.21994   0.03417   0.00000  Uiso   1.00
C28    C     0.15160   0.24514   0.01298   0.00000  Uiso   1.00
F29    F     0.14162   0.28393   0.02993   0.00000  Uiso   1.00
H30    H     0.22344   0.05598   0.02982   0.00000  Uiso   1.00
H31    H     0.16067   0.14628   0.40570   0.00000  Uiso   1.00
H32    H     0.16693   0.23378   0.06289   0.00000  Uiso   1.00
H33    H     0.19299   0.11429   0.43139   0.00000  Uiso   1.00
H34    H     0.15847   0.31313   0.33747   0.00000  Uiso   1.00
H35    H     0.01676   0.19337   0.21501   0.00000  Uiso   1.00
H36    H     0.31799   0.14045   0.28504   0.00000  Uiso   1.00
H37    H     0.20841   0.00283   0.21679   0.00000  Uiso   1.00
H38    H     0.12324   0.33215   0.28354   0.00000  Uiso   1.00
H39    H     0.17494   0.19178   0.09701   0.00000  Uiso   1.00
H40    H     0.21704   0.07496   0.09996   0.00000  Uiso   1.00
H41    H     0.21450   0.07131   0.46865   0.00000  Uiso   1.00
H42    H     0.12783   0.28806   0.46759   0.00000  Uiso   1.00
O43    O     0.16667   0.16667   0.25000   0.00000  Uiso   1.00
O44    O     0.15693   0.12393   0.16625   0.00000  Uiso   1.00
O45    O     0.12687   0.20646   0.33749   0.00000  Uiso   1.00
O46    O     0.21088   0.17493   0.15877   0.00000  Uiso   1.00
O47    O     0.17198   0.16135   0.33749   0.00000  Uiso   1.00
O48    O     0.08159   0.26997   0.37974   0.00000  Uiso   1.00
O49    O     0.12114   0.32499   0.41440   0.00000  Uiso   1.00
O50    O     0.16396   0.28861   0.34800   0.00000  Uiso   1.00
O51    O     0.17849   0.08101   0.27821   0.00000  Uiso   1.00
O52    O     0.14581   0.26136   0.26767   0.00000  Uiso   1.00
O53    O     0.07452   0.13251   0.23607   0.00000  Uiso   1.00
O54    O     0.26785   0.19179   0.21805   0.00000  Uiso   1.00
O55    O     0.06990   0.18960   0.27820   0.00000  Uiso   1.00
O56    O     0.25440   0.15277   0.26767   0.00000  Uiso   1.00
O57    O     0.13800   0.06903   0.23607   0.00000  Uiso   1.00
O58    O     0.20437   0.25527   0.21806   0.00000  Uiso   1.00
S59    S     0.12379   0.28337   0.38963   0.00000  Uiso   1.00
Zn60   Zn    0.19244   0.14090   0.28278   0.00000  Uiso   1.00
Zn61   Zn    0.13459   0.12378   0.22258   0.00000  Uiso   1.00
Zn62   Zn    0.21166   0.19664   0.21188   0.00000  Uiso   1.00
Zn63   Zn    0.12798   0.20535   0.28277   0.00000  Uiso   1.00
C64    C     0.38579   0.15995   0.25871   0.00000  Uiso   1.00
C65    C     0.52359   0.12622   0.46161   0.00000  Uiso   1.00
C66    C     0.53691   0.10109   0.48291   0.00000  Uiso   1.00
C67    C     0.61435   0.17358   0.24121   0.00000  Uiso   1.00
C68    C     0.53544   0.11343   0.02213   0.00000  Uiso   1.00
C69    C     0.52197   0.15286   0.04033   0.00000  Uiso   1.00
C70    C     0.54658   0.08615   0.04358   0.00000  Uiso   1.00
C71    C     0.54317   0.09689   0.08335   0.00000  Uiso   1.00
C72    C     0.51989   0.16335   0.08052   0.00000  Uiso   1.00
C73    C     0.66035   0.17623   0.23764   0.00000  Uiso   1.00
C74    C     0.34041   0.15760   0.26211   0.00000  Uiso   1.00
C75    C     0.46770   0.24504   0.41521   0.00000  Uiso   1.00
C76    C     0.51427   0.32217   0.23841   0.00000  Uiso   1.00
C77    C     0.48457   0.01207   0.26200   0.00000  Uiso   1.00
C78    C     0.48912   0.05612   0.25891   0.00000  Uiso   1.00
C79    C     0.51016   0.27767   0.24143   0.00000  Uiso   1.00
C80    C     0.52159   0.14494   0.14407   0.00000  Uiso   1.00
C81    C     0.48006   0.18926   0.35597   0.00000  Uiso   1.00
C82    C     0.47731   0.20416   0.39770   0.00000  Uiso   1.00
C83    C     0.52984   0.13546   0.10172   0.00000  Uiso   1.00
C84    C     0.46903   0.25717   0.45399   0.00000  Uiso   1.00
C85    C     0.48869   0.17746   0.41949   0.00000  Uiso   1.00
C86    C     0.49322   0.19066   0.45756   0.00000  Uiso   1.00
C87    C     0.48209   0.23092   0.47498   0.00000  Uiso   1.00
C88    C     0.50846   0.16513   0.47877   0.00000  Uiso   1.00
C89    C     0.50952   0.17946   0.01820   0.00000  Uiso   1.00
C90    C     0.49825   0.21994   0.03417   0.00000  Uiso   1.00
C91    C     0.48494   0.24514   0.01298   0.00000  Uiso   1.00
F92    F     0.47495   0.28393   0.02993   0.00000  Uiso   1.00
H93    H     0.55677   0.05598   0.02982   0.00000  Uiso   1.00
H94    H     0.49400   0.14628   0.40570   0.00000  Uiso   1.00
H95    H     0.50026   0.23378   0.06289   0.00000  Uiso   1.00
H96    H     0.52633   0.11429   0.43139   0.00000  Uiso   1.00
H97    H     0.49180   0.31313   0.33747   0.00000  Uiso   1.00
H98    H     0.35009   0.19337   0.21501   0.00000  Uiso   1.00
H99    H     0.65133   0.14045   0.28504   0.00000  Uiso   1.00
H100   H     0.54175   0.00283   0.21679   0.00000  Uiso   1.00
H101   H     0.45658   0.33215   0.28354   0.00000  Uiso   1.00
H102   H     0.50827   0.19178   0.09701   0.00000  Uiso   1.00
H103   H     0.55037   0.07496   0.09996   0.00000  Uiso   1.00
H104   H     0.54783   0.07131   0.46865   0.00000  Uiso   1.00
H105   H     0.46117   0.28806   0.46759   0.00000  Uiso   1.00
O106   O     0.50000   0.16667   0.25000   0.00000  Uiso   1.00
O107   O     0.49027   0.12393   0.16625   0.00000  Uiso   1.00
O108   O     0.46020   0.20646   0.33749   0.00000  Uiso   1.00
O109   O     0.54421   0.17493   0.15877   0.00000  Uiso   1.00
O110   O     0.50532   0.16135   0.33749   0.00000  Uiso   1.00
O111   O     0.41492   0.26997   0.37974   0.00000  Uiso   1.00
O112   O     0.45447   0.32499   0.41440   0.00000  Uiso   1.00
O113   O     0.49729   0.28861   0.34800   0.00000  Uiso   1.00
O114   O     0.51182   0.08101   0.27821   0.00000  Uiso   1.00
O115   O     0.47914   0.26136   0.26767   0.00000  Uiso   1.00
O116   O     0.40785   0.13251   0.23607   0.00000  Uiso   1.00
O117   O     0.60119   0.19179   0.21805   0.00000  Uiso   1.00
O118   O     0.40323   0.18960   0.27820   0.00000  Uiso   1.00
O119   O     0.58773   0.15277   0.26767   0.00000  Uiso   1.00
O120   O     0.47133   0.06903   0.23607   0.00000  Uiso   1.00
O121   O     0.53771   0.25527   0.21806   0.00000  Uiso   1.00
S122   S     0.45712   0.28337   0.38963   0.00000  Uiso   1.00
Zn123  Zn    0.52577   0.14090   0.28278   0.00000  Uiso   1.00
Zn124  Zn    0.46792   0.12378   0.22258   0.00000  Uiso   1.00
Zn125  Zn    0.54500   0.19664   0.21188   0.00000  Uiso   1.00
Zn126  Zn    0.46131   0.20535   0.28277   0.00000  Uiso   1.00
C127   C     0.71913   0.15995   0.25871   0.00000  Uiso   1.00
C128   C     0.85693   0.12622   0.46161   0.00000  Uiso   1.00
C129   C     0.87025   0.10109   0.48291   0.00000  Uiso   1.00
C130   C     0.94769   0.17358   0.24121   0.00000  Uiso   1.00
C131   C     0.86877   0.11343   0.02213   0.00000  Uiso   1.00
C132   C     0.85531   0.15286   0.04033   0.00000  Uiso   1.00
C133   C     0.87991   0.08615   0.04358   0.00000  Uiso   1.00
C134   C     0.87650   0.09689   0.08335   0.00000  Uiso   1.00
C135   C     0.85323   0.16335   0.08052   0.00000  Uiso   1.00
C136   C     0.99369   0.17623   0.23764   0.00000  Uiso   1.00
C137   C     0.67374   0.15760   0.26211   0.00000  Uiso   1.00
C138   C     0.80104   0.24504   0.41521   0.00000  Uiso   1.00
C139   C     0.84760   0.32217   0.23841   0.00000  Uiso   1.00
C140   C     0.81791   0.01207   0.26200   0.00000  Uiso   1.00
C141   C     0.82245   0.05612   0.25891   0.00000  Uiso   1.00
C142   C     0.84349   0.27767   0.24143   0.00000  Uiso   1.00
C143   C     0.85492   0.14494   0.14407   0.00000  Uiso   1.00
C144   C     0.81339   0.18926   0.35597   0.00000  Uiso   1.00
C145   C     0.81064   0.20416   0.39770   0.00000  Uiso   1.00
C146   C     0.86317   0.13546   0.10172   0.00000  Uiso   1.00
C147   C     0.80236   0.25717   0.45399   0.00000  Uiso   1.00
C148   C     0.82203   0.17746   0.41949   0.00000  Uiso   1.00
C149   C     0.82655   0.19066   0.45756   0.00000  Uiso   1.00
C150   C     0.81543   0.23092   0.47498   0.00000  Uiso   1.00
C151   C     0.84179   0.16513   0.47877   0.00000  Uiso   1.00
C152   C     0.84285   0.17946   0.01820   0.00000  Uiso   1.00
C153   C     0.83159   0.21994   0.03417   0.00000  Uiso   1.00
C154   C     0.81827   0.24514   0.01298   0.00000  Uiso   1.00
F155   F     0.80829   0.28393   0.02993   0.00000  Uiso   1.00
H156   H     0.89011   0.05598   0.02982   0.00000  Uiso   1.00
H157   H     0.82734   0.14628   0.40570   0.00000  Uiso   1.00
H158   H     0.83360   0.23378   0.06289   0.00000  Uiso   1.00
H159   H     0.85966   0.11429   0.43139   0.00000  Uiso   1.00
H160   H     0.82514   0.31313   0.33747   0.00000  Uiso   1.00
H161   H     0.68343   0.19337   0.21501   0.00000  Uiso   1.00
H162   H     0.98466   0.14045   0.28504   0.00000  Uiso   1.00
H163   H     0.87508   0.00283   0.21679   0.00000  Uiso   1.00
H164   H     0.78991   0.33215   0.28354   0.00000  Uiso   1.00
H165   H     0.84161   0.19178   0.09701   0.00000  Uiso   1.00
H166   H     0.88370   0.07496   0.09996   0.00000  Uiso   1.00
H167   H     0.88116   0.07131   0.46865   0.00000  Uiso   1.00
H168   H     0.79450   0.28806   0.46759   0.00000  Uiso   1.00
O169   O     0.83333   0.16667   0.25000   0.00000  Uiso   1.00
O170   O     0.82360   0.12393   0.16625   0.00000  Uiso   1.00
O171   O     0.79354   0.20646   0.33749   0.00000  Uiso   1.00
O172   O     0.87755   0.17493   0.15877   0.00000  Uiso   1.00
O173   O     0.83865   0.16135   0.33749   0.00000  Uiso   1.00
O174   O     0.74826   0.26997   0.37974   0.00000  Uiso   1.00
O175   O     0.78781   0.32499   0.41440   0.00000  Uiso   1.00
O176   O     0.83063   0.28861   0.34800   0.00000  Uiso   1.00
O177   O     0.84515   0.08101   0.27821   0.00000  Uiso   1.00
O178   O     0.81247   0.26136   0.26767   0.00000  Uiso   1.00
O179   O     0.74119   0.13251   0.23607   0.00000  Uiso   1.00
O180   O     0.93452   0.19179   0.21805   0.00000  Uiso   1.00
O181   O     0.73656   0.18960   0.27820   0.00000  Uiso   1.00
O182   O     0.92106   0.15277   0.26767   0.00000  Uiso   1.00
O183   O     0.80467   0.06903   0.23607   0.00000  Uiso   1.00
O184   O     0.87104   0.25527   0.21806   0.00000  Uiso   1.00
S185   S     0.79045   0.28337   0.38963   0.00000  Uiso   1.00
Zn186  Zn    0.85910   0.14090   0.28278   0.00000  Uiso   1.00
Zn187  Zn    0.80125   0.12378   0.22258   0.00000  Uiso   1.00
Zn188  Zn    0.87833   0.19664   0.21188   0.00000  Uiso   1.00
Zn189  Zn    0.79465   0.20535   0.28277   0.00000  Uiso   1.00
C190   C     0.05246   0.49328   0.25871   0.00000  Uiso   1.00
C191   C     0.19026   0.45955   0.46161   0.00000  Uiso   1.00
C192   C     0.20358   0.43442   0.48291   0.00000  Uiso   1.00
C193   C     0.28102   0.50691   0.24121   0.00000  Uiso   1.00
C194   C     0.20211   0.44676   0.02213   0.00000  Uiso   1.00
C195   C     0.18864   0.48619   0.04033   0.00000  Uiso   1.00
C196   C     0.21324   0.41948   0.04358   0.00000  Uiso   1.00
C197   C     0.20984   0.43023   0.08335   0.00000  Uiso   1.00
C198   C     0.18656   0.49669   0.08052   0.00000  Uiso   1.00
C199   C     0.32702   0.50956   0.23764   0.00000  Uiso   1.00
C200   C     0.00707   0.49094   0.26211   0.00000  Uiso   1.00
C201   C     0.13437   0.57837   0.41521   0.00000  Uiso   1.00
C202   C     0.18093   0.65551   0.23841   0.00000  Uiso   1.00
C203   C     0.15124   0.34540   0.26200   0.00000  Uiso   1.00
C204   C     0.15579   0.38945   0.25891   0.00000  Uiso   1.00
C205   C     0.17683   0.61100   0.24143   0.00000  Uiso   1.00
C206   C     0.18825   0.47828   0.14407   0.00000  Uiso   1.00
C207   C     0.14672   0.52260   0.35597   0.00000  Uiso   1.00
C208   C     0.14397   0.53750   0.39770   0.00000  Uiso   1.00
C209   C     0.19650   0.46879   0.10172   0.00000  Uiso   1.00
C210   C     0.13570   0.59051   0.45399   0.00000  Uiso   1.00
C211   C     0.15536   0.51079   0.41949   0.00000  Uiso   1.00
C212   C     0.15988   0.52400   0.45756   0.00000  Uiso   1.00
C213   C     0.14876   0.56426   0.47498   0.00000  Uiso   1.00
C214   C     0.17512   0.49846   0.47877   0.00000  Uiso   1.00
C215   C     0.17618   0.51279   0.01820   0.00000  Uiso   1.00
C216   C     0.16492   0.55327   0.03417   0.00000  Uiso   1.00
C217   C     0.15160   0.57847   0.01298   0.00000  Uiso   1.00
F218   F     0.14162   0.61726   0.02993   0.00000  Uiso   1.00
H219   H     0.22344   0.38932   0.02982   0.00000  Uiso   1.00
H220   H     0.16067   0.47961   0.40570   0.00000  Uiso   1.00
H221   H     0.16693   0.56711   0.06289   0.00000  Uiso   1.00
H222   H     0.19299   0.44762   0.43139   0.00000  Uiso   1.00
H223   H     0.15847   0.64647   0.33747   0.00000  Uiso   1.00
H224   H     0.01676   0.52670   0.21501   0.00000  Uiso   1.00
H225   H     0.31799   0.47378   0.28504   0.00000  Uiso   1.00
H226   H     0.20841   0.33617   0.21679   0.00000  Uiso   1.00
H227   H     0.12324   0.66548   0.28354   0.00000  Uiso   1.00
H228   H     0.17494   0.52511   0.09701   0.00000  Uiso   1.00
H229   H     0.21704   0.40829   0.09996   0.00000  Uiso   1.00
H230   H     0.21450   0.40465   0.46865   0.00000  Uiso   1.00
H231   H     0.12783   0.62139   0.46759   0.00000  Uiso   1.00
O232   O     0.16667   0.50000   0.25000   0.00000  Uiso   1.00
O233   O     0.15693   0.45726   0.16625   0.00000  Uiso   1.00
O234   O     0.12687   0.53979   0.33749   0.00000  Uiso   1.00
O235   O     0.21088   0.50826   0.15877   0.00000  Uiso   1.00
O236   O     0.17198   0.49468   0.33749   0.00000  Uiso   1.00
O237   O     0.08159   0.60330   0.37974   0.00000  Uiso   1.00
O238   O     0.12114   0.65833   0.41440   0.00000  Uiso   1.00
O239   O     0.16396   0.62195   0.34800   0.00000  Uiso   1.00
O240   O     0.17849   0.41434   0.27821   0.00000  Uiso   1.00
O241   O     0.14581   0.59469   0.26767   0.00000  Uiso   1.00
O242   O     0.07452   0.46584   0.23607   0.00000  Uiso   1.00
O243   O     0.26785   0.52512   0.21805   0.00000  Uiso   1.00
O244   O     0.06990   0.52293   0.27820   0.00000  Uiso   1.00
O245   O     0.25440   0.48610   0.26767   0.00000  Uiso   1.00
O246   O     0.13800   0.40236   0.23607   0.00000  Uiso   1.00
O247   O     0.20437   0.58860   0.21806   0.00000  Uiso   1.00
S248   S     0.12379   0.61670   0.38963   0.00000  Uiso   1.00
Zn249  Zn    0.19244   0.47423   0.28278   0.00000  Uiso   1.00
Zn250  Zn    0.13459   0.45711   0.22258   0.00000  Uiso   1.00
Zn251  Zn    0.21166   0.52997   0.21188   0.00000  Uiso   1.00
Zn252  Zn    0.12798   0.53868   0.28277   0.00000  Uiso   1.00
C253   C     0.38579   0.49328   0.25871   0.00000  Uiso   1.00
C254   C     0.52359   0.45955   0.46161   0.00000  Uiso   1.00
C255   C     0.53691   0.43442   0.48291   0.00000  Uiso   1.00
C256   C     0.61435   0.50691   0.24121   0.00000  Uiso   1.00
C257   C     0.53544   0.44676   0.02213   0.00000  Uiso   1.00
C258   C     0.52197   0.48619   0.04033   0.00000  Uiso   1.00
C259   C     0.54658   0.41948   0.04358   0.00000  Uiso   1.00
C260   C     0.54317   0.43023   0.08335   0.00000  Uiso   1.00
C261   C     0.51989   0.49669   0.08052   0.00000  Uiso   1.00
C262   C     0.66035   0.50956   0.23764   0.00000  Uiso   1.00
C263   C     0.34041   0.49094   0.26211   0.00000  Uiso   1.00
C264   C     0.46770   0.57837   0.41521   0.00000  Uiso   1.00
C265   C     0.51427   0.65551   0.23841   0.00000  Uiso   1.00
C266   C     0.48457   0.34540   0.26200   0.00000  Uiso   1.00
C267   C     0.48912   0.38945   0.25891   0.00000  Uiso   1.00
C268   C     0.51016   0.61100   0.24143   0.00000  Uiso   1.00
C269   C     0.52159   0.47828   0.14407   0.00000  Uiso   1.00
C270   C     0.48006   0.52260   0.35597   0.00000  Uiso   1.00
C271   C     0.47731   0.53750   0.39770   0.00000  Uiso   1.00
C272   C     0.52984   0.46879   0.10172   0.00000  Uiso   1.00
C273   C     0.46903   0.59051   0.45399   0.00000  Uiso   1.00
C274   C     0.48869   0.51079   0.41949   0.00000  Uiso   1.00
C275   C     0.49322   0.52400   0.45756   0.00000  Uiso   1.00
C276   C     0.48209   0.56426   0.47498   0.00000  Uiso   1.00
C277   C     0.50846   0.49846   0.47877   0.00000  Uiso   1.00
C278   C     0.50952   0.51279   0.01820   0.00000  Uiso   1.00
C279   C     0.49825   0.55327   0.03417   0.00000  Uiso   1.00
C280   C     0.48494   0.57847   0.01298   0.00000  Uiso   1.00
F281   F     0.47495   0.61726   0.02993   0.00000  Uiso   1.00
H282   H     0.55677   0.38932   0.02982   0.00000  Uiso   1.00
H283   H     0.49400   0.47961   0.40570   0.00000  Uiso   1.00
H284   H     0.50026   0.56711   0.06289   0.00000  Uiso   1.00
H285   H     0.52633   0.44762   0.43139   0.00000  Uiso   1.00
H286   H     0.49180   0.64647   0.33747   0.00000  Uiso   1.00
H287   H     0.35009   0.52670   0.21501   0.00000  Uiso   1.00
H288   H     0.65133   0.47378   0.28504   0.00000  Uiso   1.00
H289   H     0.54175   0.33617   0.21679   0.00000  Uiso   1.00
H290   H     0.45658   0.66548   0.28354   0.00000  Uiso   1.00
H291   H     0.50827   0.52511   0.09701   0.00000  Uiso   1.00
H292   H     0.55037   0.40829   0.09996   0.00000  Uiso   1.00
H293   H     0.54783   0.40465   0.46865   0.00000  Uiso   1.00
H294   H     0.46117   0.62139   0.46759   0.00000  Uiso   1.00
O295   O     0.50000   0.50000   0.25000   0.00000  Uiso   1.00
O296   O     0.49027   0.45726   0.16625   0.00000  Uiso   1.00
O297   O     0.46020   0.53979   0.33749   0.00000  Uiso   1.00
O298   O     0.54421   0.50826   0.15877   0.00000  Uiso   1.00
O299   O     0.50532   0.49468   0.33749   0.00000  Uiso   1.00
O300   O     0.41492   0.60330   0.37974   0.00000  Uiso   1.00
O301   O     0.45447   0.65833   0.41440   0.00000  Uiso   1.00
O302   O     0.49729   0.62195   0.34800   0.00000  Uiso   1.00
O303   O     0.51182   0.41434   0.27821   0.00000  Uiso   1.00
O304   O     0.47914   0.59469   0.26767   0.00000  Uiso   1.00
O305   O     0.40785   0.46584   0.23607   0.00000  Uiso   1.00
O306   O     0.60119   0.52512   0.21805   0.00000  Uiso   1.00
O307   O     0.40323   0.52293   0.27820   0.00000  Uiso   1.00
O308   O     0.58773   0.48610   0.26767   0.00000  Uiso   1.00
O309   O     0.47133   0.40236   0.23607   0.00000  Uiso   1.00
O310   O     0.53771   0.58860   0.21806   0.00000  Uiso   1.00
S311   S     0.45712   0.61670   0.38963   0.00000  Uiso   1.00
Zn312  Zn    0.52577   0.47423   0.28278   0.00000  Uiso   1.00
Zn313  Zn    0.46792   0.45711   0.22258   0.00000  Uiso   1.00
Zn314  Zn    0.54500   0.52997   0.21188   0.00000  Uiso   1.00
Zn315  Zn    0.46131   0.53868   0.28277   0.00000  Uiso   1.00
C316   C     0.71913   0.49328   0.25871   0.00000  Uiso   1.00
C317   C     0.85693   0.45955   0.46161   0.00000  Uiso   1.00
C318   C     0.87025   0.43442   0.48291   0.00000  Uiso   1.00
C319   C     0.94769   0.50691   0.24121   0.00000  Uiso   1.00
C320   C     0.86877   0.44676   0.02213   0.00000  Uiso   1.00
C321   C     0.85531   0.48619   0.04033   0.00000  Uiso   1.00
C322   C     0.87991   0.41948   0.04358   0.00000  Uiso   1.00
C323   C     0.87650   0.43023   0.08335   0.00000  Uiso   1.00
C324   C     0.85323   0.49669   0.08052   0.00000  Uiso   1.00
C325   C     0.99369   0.50956   0.23764   0.00000  Uiso   1.00
C326   C     0.67374   0.49094   0.26211   0.00000  Uiso   1.00
C327   C     0.80104   0.57837   0.41521   0.00000  Uiso   1.00
C328   C     0.84760   0.65551   0.23841   0.00000  Uiso   1.00
C329   C     0.81791   0.34540   0.26200   0.00000  Uiso   1.00
C330   C     0.82245   0.38945   0.25891   0.00000  Uiso   1.00
C331   C     0.84349   0.61100   0.24143   0.00000  Uiso   1.00
C332   C     0.85492   0.47828   0.14407   0.00000  Uiso   1.00
C333   C     0.81339   0.52260   0.35597   0.00000  Uiso   1.00
C334   C     0.81064   0.53750   0.39770   0.00000  Uiso   1.00
C335   C     0.86317   0.46879   0.10172   0.00000  Uiso   1.00
C336   C     0.80236   0.59051   0.45399   0.00000  Uiso   1.00
C337   C     0.82203   0.51079   0.41949   0.00000  Uiso   1.00
C338   C     0.82655   0.52400   0.45756   0.00000  Uiso   1.00
C339   C     0.81543   0.56426   0.47498   0.00000  Uiso   1.00
C340   C     0.84179   0.49846   0.47877   0.00000  Uiso   1.00
C341   C     0.84285   0.51279   0.01820   0.00000  Uiso   1.00
C342   C     0.83159   0.55327   0.03417   0.00000  Uiso   1.00
C343   C     0.81827   0.57847   0.01298   0.00000  Uiso   1.00
F344   F     0.80829   0.61726   0.02993   0.00000  Uiso   1.00
H345   H     0.89011   0.38932   0.02982   0.00000  Uiso   1.00
H346   H     0.82734   0.47961   0.40570   0.00000  Uiso   1.00
H347   H     0.83360   0.56711   0.06289   0.00000  Uiso   1.00
H348   H     0.85966   0.44762   0.43139   0.00000  Uiso   1.00
H349   H     0.82514   0.64647   0.33747   0.00000  Uiso   1.00
H350   H     0.68343   0.52670   0.21501   0.00000  Uiso   1.00
H351   H     0.98466   0.47378   0.28504   0.00000  Uiso   1.00
H352   H     0.87508   0.33617   0.21679   0.00000  Uiso   1.00
H353   H     0.78991   0.66548   0.28354   0.00000  Uiso   1.00
H354   H     0.84161   0.52511   0.09701   0.00000  Uiso   1.00
H355   H     0.88370   0.40829   0.09996   0.00000  Uiso   1.00
H356   H     0.88116   0.40465   0.46865   0.00000  Uiso   1.00
H357   H     0.79450   0.62139   0.46759   0.00000  Uiso   1.00
O358   O     0.83333   0.50000   0.25000   0.00000  Uiso   1.00
O359   O     0.82360   0.45726   0.16625   0.00000  Uiso   1.00
O360   O     0.79354   0.53979   0.33749   0.00000  Uiso   1.00
O361   O     0.87755   0.50826   0.15877   0.00000  Uiso   1.00
O362   O     0.83865   0.49468   0.33749   0.00000  Uiso   1.00
O363   O     0.74826   0.60330   0.37974   0.00000  Uiso   1.00
O364   O     0.78781   0.65833   0.41440   0.00000  Uiso   1.00
O365   O     0.83063   0.62195   0.34800   0.00000  Uiso   1.00
O366   O     0.84515   0.41434   0.27821   0.00000  Uiso   1.00
O367   O     0.81247   0.59469   0.26767   0.00000  Uiso   1.00
O368   O     0.74119   0.46584   0.23607   0.00000  Uiso   1.00
O369   O     0.93452   0.52512   0.21805   0.00000  Uiso   1.00
O370   O     0.73656   0.52293   0.27820   0.00000  Uiso   1.00
O371   O     0.92106   0.48610   0.26767   0.00000  Uiso   1.00
O372   O     0.80467   0.40236   0.23607   0.00000  Uiso   1.00
O373   O     0.87104   0.58860   0.21806   0.00000  Uiso   1.00
S374   S     0.79045   0.61670   0.38963   0.00000  Uiso   1.00
Zn375  Zn    0.85910   0.47423   0.28278   0.00000  Uiso   1.00
Zn376  Zn    0.80125   0.45711   0.22258   0.00000  Uiso   1.00
Zn377  Zn    0.87833   0.52997   0.21188   0.00000  Uiso   1.00
Zn378  Zn    0.79465   0.53868   0.28277   0.00000  Uiso   1.00
C379   C     0.05246   0.82661   0.25871   0.00000  Uiso   1.00
C380   C     0.19026   0.79289   0.46161   0.00000  Uiso   1.00
C381   C     0.20358   0.76775   0.48291   0.00000  Uiso   1.00
C382   C     0.28102   0.84024   0.24121   0.00000  Uiso   1.00
C383   C     0.20211   0.78009   0.02213   0.00000  Uiso   1.00
C384   C     0.18864   0.81953   0.04033   0.00000  Uiso   1.00
C385   C     0.21324   0.75281   0.04358   0.00000  Uiso   1.00
C386   C     0.20984   0.76356   0.08335   0.00000  Uiso   1.00
C387   C     0.18656   0.83002   0.08052   0.00000  Uiso   1.00
C388   C     0.32702   0.84290   0.23764   0.00000  Uiso   1.00
C389   C     0.00707   0.82427   0.26211   0.00000  Uiso   1.00
C390   C     0.13437   0.91171   0.41521   0.00000  Uiso   1.00
C391   C     0.18093   0.98884   0.23841   0.00000  Uiso   1.00
C392   C     0.15124   0.67874   0.26200   0.00000  Uiso   1.00
C393   C     0.15579   0.72279   0.25891   0.00000  Uiso   1.00
C394   C     0.17683   0.94434   0.24143   0.00000  Uiso   1.00
C395   C     0.18825   0.81161   0.14407   0.00000  Uiso   1.00
C396   C     0.14672   0.85593   0.35597   0.00000  Uiso   1.00
C397   C     0.14397   0.87083   0.39770   0.00000  Uiso   1.00
C398   C     0.19650   0.80212   0.10172   0.00000  Uiso   1.00
C399   C     0.13570   0.92384   0.45399   0.00000  Uiso   1.00
C400   C     0.15536   0.84413   0.41949   0.00000  Uiso   1.00
C401   C     0.15988   0.85733   0.45756   0.00000  Uiso   1.00
C402   C     0.14876   0.89759   0.47498   0.00000  Uiso   1.00
C403   C     0.17512   0.83180   0.47877   0.00000  Uiso   1.00
C404   C     0.17618   0.84612   0.01820   0.00000  Uiso   1.00
C405   C     0.16492   0.88660   0.03417   0.00000  Uiso   1.00
C406   C     0.15160   0.91180   0.01298   0.00000  Uiso   1.00
F407   F     0.14162   0.95060   0.02993   0.00000  Uiso   1.00
H408   H     0.22344   0.72265   0.02982   0.00000  Uiso   1.00
H409   H     0.16067   0.81294   0.40570   0.00000  Uiso   1.00
H410   H     0.16693   0.90044   0.06289   0.00000  Uiso   1.00
H411   H     0.19299   0.78095   0.43139   0.00000  Uiso   1.00
H412   H     0.15847   0.97980   0.33747   0.00000  Uiso   1.00
H413   H     0.01676   0.86003   0.21501   0.00000  Uiso   1.00
H414   H     0.31799   0.80712   0.28504   0.00000  Uiso   1.00
H415   H     0.20841   0.66950   0.21679   0.00000  Uiso   1.00
H416   H     0.12324   0.99881   0.28354   0.00000  Uiso   1.00
H417   H     0.17494   0.85844   0.09701   0.00000  Uiso   1.00
H418   H     0.21704   0.74162   0.09996   0.00000  Uiso   1.00
H419   H     0.21450   0.73798   0.46865   0.00000  Uiso   1.00
H420   H     0.12783   0.95473   0.46759   0.00000  Uiso   1.00
O421   O     0.16667   0.83333   0.25000   0.00000  Uiso   1.00
O422   O     0.15693   0.79060   0.16625   0.00000  Uiso   1.00
O423   O     0.12687   0.87313   0.33749   0.00000  Uiso   1.00
O424   O     0.21088   0.84159   0.15877   0.00000  Uiso   1.00
O425   O     0.17198   0.82802   0.33749   0.00000  Uiso   1.00
O426   O     0.08159   0.93664   0.37974   0.00000  Uiso   1.00
O427   O     0.12114   0.99166   0.41440   0.00000  Uiso   1.00
O428   O     0.16396   0.95528   0.34800   0.00000  Uiso   1.00
O429   O     0.17849   0.74768   0.27821   0.00000  Uiso   1.00
O430   O     0.14581   0.92803   0.26767   0.00000  Uiso   1.00
O431   O     0.07452   0.79917   0.23607   0.00000  Uiso   1.00
O432   O     0.26785   0.85845   0.21805   0.00000  Uiso   1.00
O433   O     0.06990   0.85627   0.27820   0.00000  Uiso   1.00
O434   O     0.25440   0.81944   0.26767   0.00000  Uiso   1.00
O435   O     0.13800   0.73570   0.23607   0.00000  Uiso   1.00
O436   O     0.20437   0.92193   0.21806   0.00000  Uiso   1.00
S437   S     0.12379   0.95004   0.38963   0.00000  Uiso   1.00
Zn438  Zn    0.19244   0.80756   0.28278   0.00000  Uiso   1.00
Zn439  Zn    0.13459   0.79044   0.22258   0.00000  Uiso   1.00
Zn440  Zn    0.21166   0.86331   0.21188   0.00000  Uiso   1.00
Zn441  Zn    0.12798   0.87202   0.28277   0.00000  Uiso   1.00
C442   C     0.38579   0.82661   0.25871   0.00000  Uiso   1.00
C443   C     0.52359   0.79289   0.46161   0.00000  Uiso   1.00
C444   C     0.53691   0.76775   0.48291   0.00000  Uiso   1.00
C445   C     0.61435   0.84024   0.24121   0.00000  Uiso   1.00
C446   C     0.53544   0.78009   0.02213   0.00000  Uiso   1.00
C447   C     0.52197   0.81953   0.04033   0.00000  Uiso   1.00
C448   C     0.54658   0.75281   0.04358   0.00000  Uiso   1.00
C449   C     0.54317   0.76356   0.08335   0.00000  Uiso   1.00
C450   C     0.51989   0.83002   0.08052   0.00000  Uiso   1.00
C451   C     0.66035   0.84290   0.23764   0.00000  Uiso   1.00
C452   C     0.34041   0.82427   0.26211   0.00000  Uiso   1.00
C453   C     0.46770   0.91171   0.41521   0.00000  Uiso   1.00
C454   C     0.51427   0.98884   0.23841   0.00000  Uiso   1.00
C455   C     0.48457   0.67874   0.26200   0.00000  Uiso   1.00
C456   C     0.48912   0.72279   0.25891   0.00000  Uiso   1.00
C457   C     0.51016   0.94434   0.24143   0.00000  Uiso   1.00
C458   C     0.52159   0.81161   0.14407   0.00000  Uiso   1.00
C459   C     0.48006   0.85593   0.35597   0.00000  Uiso   1.00
C460   C     0.47731   0.87083   0.39770   0.00000  Uiso   1.00
C461   C     0.52984   0.80212   0.10172   0.00000  Uiso   1.00
C462   C     0.46903   0.92384   0.45399   0.00000  Uiso   1.00
C463   C     0.48869   0.84413   0.41949   0.00000  Uiso   1.00
C464   C     0.49322   0.85733   0.45756   0.00000  Uiso   1.00
C465   C     0.48209   0.89759   0.47498   0.00000  Uiso   1.00
C466   C     0.50846   0.83180   0.47877   0.00000  Uiso   1.00
C467   C     0.50952   0.84612   0.01820   0.00000  Uiso   1.00
C468   C     0.49825   0.88660   0.03417   0.00000  Uiso   1.00
C469   C     0.48494   0.91180   0.01298   0.00000  Uiso   1.00
F470   F     0.47495   0.95060   0.02993   0.00000  Uiso   1.00
H471   H     0.55677   0.72265   0.02982   0.00000  Uiso   1.00
H472   H     0.49400   0.81294   0.40570   0.00000  Uiso   1.00
H473   H     0.50026   0.90044   0.06289   0.00000  Uiso   1.00
H474   H     0.52633   0.78095   0.43139   0.00000  Uiso   1.00
H475   H     0.49180   0.97980   0.33747   0.00000  Uiso   1.00
H476   H     0.35009   0.86003   0.21501   0.00000  Uiso   1.00
H477   H     0.65133   0.80712   0.28504   0.00000  Uiso   1.00
H478   H     0.54175   0.66950   0.21679   0.00000  Uiso   1.00
H479   H     0.45658   0.99881   0.28354   0.00000  Uiso   1.00
H480   H     0.50827   0.85844   0.09701   0.00000  Uiso   1.00
H481   H     0.55037   0.74162   0.09996   0.00000  Uiso   1.00
H482   H     0.54783   0.73798   0.46865   0.00000  Uiso   1.00
H483   H     0.46117   0.95473   0.46759   0.00000  Uiso   1.00
O484   O     0.50000   0.83333   0.25000   0.00000  Uiso   1.00
O485   O     0.49027   0.79060   0.16625   0.00000  Uiso   1.00
O486   O     0.46020   0.87313   0.33749   0.00000  Uiso   1.00
O487   O     0.54421   0.84159   0.15877   0.00000  Uiso   1.00
O488   O     0.50532   0.82802   0.33749   0.00000  Uiso   1.00
O489   O     0.41492   0.93664   0.37974   0.00000  Uiso   1.00
O490   O     0.45447   0.99166   0.41440   0.00000  Uiso   1.00
O491   O     0.49729   0.95528   0.34800   0.00000  Uiso   1.00
O492   O     0.51182   0.74768   0.27821   0.00000  Uiso   1.00
O493   O     0.47914   0.92803   0.26767   0.00000  Uiso   1.00
O494   O     0.40785   0.79917   0.23607   0.00000  Uiso   1.00
O495   O     0.60119   0.85845   0.21805   0.00000  Uiso   1.00
O496   O     0.40323   0.85627   0.27820   0.00000  Uiso   1.00
O497   O     0.58773   0.81944   0.26767   0.00000  Uiso   1.00
O498   O     0.47133   0.73570   0.23607   0.00000  Uiso   1.00
O499   O     0.53771   0.92193   0.21806   0.00000  Uiso   1.00
S500   S     0.45712   0.95004   0.38963   0.00000  Uiso   1.00
Zn501  Zn    0.52577   0.80756   0.28278   0.00000  Uiso   1.00
Zn502  Zn    0.46792   0.79044   0.22258   0.00000  Uiso   1.00
Zn503  Zn    0.54500   0.86331   0.21188   0.00000  Uiso   1.00
Zn504  Zn    0.46131   0.87202   0.28277   0.00000  Uiso   1.00
C505   C     0.71913   0.82661   0.25871   0.00000  Uiso   1.00
C506   C     0.85693   0.79289   0.46161   0.00000  Uiso   1.00
C507   C     0.87025   0.76775   0.48291   0.00000  Uiso   1.00
C508   C     0.94769   0.84024   0.24121   0.00000  Uiso   1.00
C509   C     0.86877   0.78009   0.02213   0.00000  Uiso   1.00
C510   C     0.85531   0.81953   0.04033   0.00000  Uiso   1.00
C511   C     0.87991   0.75281   0.04358   0.00000  Uiso   1.00
C512   C     0.87650   0.76356   0.08335   0.00000  Uiso   1.00
C513   C     0.85323   0.83002   0.08052   0.00000  Uiso   1.00
C514   C     0.99369   0.84290   0.23764   0.00000  Uiso   1.00
C515   C     0.67374   0.82427   0.26211   0.00000  Uiso   1.00
C516   C     0.80104   0.91171   0.41521   0.00000  Uiso   1.00
C517   C     0.84760   0.98884   0.23841   0.00000  Uiso   1.00
C518   C     0.81791   0.67874   0.26200   0.00000  Uiso   1.00
C519   C     0.82245   0.72279   0.25891   0.00000  Uiso   1.00
C520   C     0.84349   0.94434   0.24143   0.00000  Uiso   1.00
C521   C     0.85492   0.81161   0.14407   0.00000  Uiso   1.00
C522   C     0.81339   0.85593   0.35597   0.00000  Uiso   1.00
C523   C     0.81064   0.87083   0.39770   0.00000  Uiso   1.00
C524   C     0.86317   0.80212   0.10172   0.00000  Uiso   1.00
C525   C     0.80236   0.92384   0.45399   0.00000  Uiso   1.00
C526   C     0.82203   0.84413   0.41949   0.00000  Uiso   1.00
C527   C     0.82655   0.85733   0.45756   0.00000  Uiso   1.00
C528   C     0.81543   0.89759   0.47498   0.00000  Uiso   1.00
C529   C     0.84179   0.83180   0.47877   0.00000  Uiso   1.00
C530   C     0.84285   0.84612   0.01820   0.00000  Uiso   1.00
C531   C     0.83159   0.88660   0.03417   0.00000  Uiso   1.00
C532   C     0.81827   0.91180   0.01298   0.00000  Uiso   1.00
F533   F     0.80829   0.95060   0.02993   0.00000  Uiso   1.00
H534   H     0.89011   0.72265   0.02982   0.00000  Uiso   1.00
H535   H     0.82734   0.81294   0.40570   0.00000  Uiso   1.00
H536   H     0.83360   0.90044   0.06289   0.00000  Uiso   1.00
H537   H     0.85966   0.78095   0.43139   0.00000  Uiso   1.00
H538   H     0.82514   0.97980   0.33747   0.00000  Uiso   1.00
H539   H     0.68343   0.86003   0.21501   0.00000  Uiso   1.00
H540   H     0.98466   0.80712   0.28504   0.00000  Uiso   1.00
H541   H     0.87508   0.66950   0.21679   0.00000  Uiso   1.00
H542   H     0.78991   0.99881   0.28354   0.00000  Uiso   1.00
H543   H     0.84161   0.85844   0.09701   0.00000  Uiso   1.00
H544   H     0.88370   0.74162   0.09996   0.00000  Uiso   1.00
H545   H     0.88116   0.73798   0.46865   0.00000  Uiso   1.00
H546   H     0.79450   0.95473   0.46759   0.00000  Uiso   1.00
O547   O     0.83333   0.83333   0.25000   0.00000  Uiso   1.00
O548   O     0.82360   0.79060   0.16625   0.00000  Uiso   1.00
O549   O     0.79354   0.87313   0.33749   0.00000  Uiso   1.00
O550   O     0.87755   0.84159   0.15877   0.00000  Uiso   1.00
O551   O     0.83865   0.82802   0.33749   0.00000  Uiso   1.00
O552   O     0.74826   0.93664   0.37974   0.00000  Uiso   1.00
O553   O     0.78781   0.99166   0.41440   0.00000  Uiso   1.00
O554   O     0.83063   0.95528   0.34800   0.00000  Uiso   1.00
O555   O     0.84515   0.74768   0.27821   0.00000  Uiso   1.00
O556   O     0.81247   0.92803   0.26767   0.00000  Uiso   1.00
O557   O     0.74119   0.79917   0.23607   0.00000  Uiso   1.00
O558   O     0.93452   0.85845   0.21805   0.00000  Uiso   1.00
O559   O     0.73656   0.85627   0.27820   0.00000  Uiso   1.00
O560   O     0.92106   0.81944   0.26767   0.00000  Uiso   1.00
O561   O     0.80467   0.73570   0.23607   0.00000  Uiso   1.00
O562   O     0.87104   0.92193   0.21806   0.00000  Uiso   1.00
S563   S     0.79045   0.95004   0.38963   0.00000  Uiso   1.00
Zn564  Zn    0.85910   0.80756   0.28278   0.00000  Uiso   1.00
Zn565  Zn    0.80125   0.79044   0.22258   0.00000  Uiso   1.00
Zn566  Zn    0.87833   0.86331   0.21188   0.00000  Uiso   1.00
Zn567  Zn    0.79465   0.87202   0.28277   0.00000  Uiso   1.00
C568   C     0.05246   0.15995   0.75871   0.00000  Uiso   1.00
C569   C     0.19026   0.12622   0.96161   0.00000  Uiso   1.00
C570   C     0.20358   0.10109   0.98291   0.00000  Uiso   1.00
C571   C     0.28102   0.17358   0.74121   0.00000  Uiso   1.00
C572   C     0.20211   0.11343   0.52213   0.00000  Uiso   1.00
C573   C     0.18864   0.15286   0.54033   0.00000  Uiso   1.00
C574   C     0.21324   0.08615   0.54358   0.00000  Uiso   1.00
C575   C     0.20984   0.09689   0.58335   0.00000  Uiso   1.00
C576   C     0.18656   0.16335   0.58052   0.00000  Uiso   1.00
C577   C     0.32702   0.17623   0.73764   0.00000  Uiso   1.00
C578   C     0.00707   0.15760   0.76211   0.00000  Uiso   1.00
C579   C     0.13437   0.24504   0.91521   0.00000  Uiso   1.00
C580   C     0.18093   0.32217   0.73841   0.00000  Uiso   1.00
C581   C     0.15124   0.01207   0.76200   0.00000  Uiso   1.00
C582   C     0.15579   0.05612   0.75891   0.00000  Uiso   1.00
C583   C     0.17683   0.27767   0.74143   0.00000  Uiso   1.00
C584   C     0.18825   0.14494   0.64407   0.00000  Uiso   1.00
C585   C     0.14672   0.18926   0.85597   0.00000  Uiso   1.00
C586   C     0.14397   0.20416   0.89770   0.00000  Uiso   1.00
C587   C     0.19650   0.13546   0.60172   0.00000  Uiso   1.00
C588   C     0.13570   0.25717   0.95399   0.00000  Uiso   1.00
C589   C     0.15536   0.17746   0.91949   0.00000  Uiso   1.00
C590   C     0.15988   0.19066   0.95756   0.00000  Uiso   1.00
C591   C     0.14876   0.23092   0.97498   0.00000  Uiso   1.00
C592   C     0.17512   0.16513   0.97877   0.00000  Uiso   1.00
C593   C     0.17618   0.17946   0.51820   0.00000  Uiso   1.00
C594   C     0.16492   0.21994   0.53417   0.00000  Uiso   1.00
C595   C     0.15160   0.24514   0.51298   0.00000  Uiso   1.00
F596   F     0.14162   0.28393   0.52993   0.00000  Uiso   1.00
H597   H     0.22344   0.05598   0.52982   0.00000  Uiso   1.00
H598   H     0.16067   0.14628   0.90570   0.00000  Uiso   1.00
H599   H     0.16693   0.23378   0.56289   0.00000  Uiso   1.00
H600   H     0.19299   0.11429   0.93139   0.00000  Uiso   1.00
H601   H     0.15847   0.31313   0.83747   0.00000  Uiso   1.00
H602   H     0.01676   0.19337   0.71501   0.00000  Uiso   1.00
H603   H     0.31799   0.14045   0.78504   0.00000  Uiso   1.00
H604   H     0.20841   0.00283   0.71679   0.00000  Uiso   1.00
H605   H     0.12324   0.33215   0.78354   0.00000  Uiso   1.00
H606   H     0.17494   0.19178   0.59701   0.00000  Uiso   1.00
H607   H     0.21704   0.07496   0.59996   0.00000  Uiso   1.00
H608   H     0.21450   0.07131   0.96865   0.00000  Uiso   1.00
H609   H     0.12783   0.28806   0.96759   0.00000  Uiso   1.00
O610   O     0.16667   0.16667   0.75000   0.00000  Uiso   1.00
O611   O     0.15693   0.12393   0.66625   0.00000  Uiso   1.00
O612   O     0.12687   0.20646   0.83749   0.00000  Uiso   1.00
O613   O     0.21088   0.17493   0.65877   0.00000  Uiso   1.00
O614   O     0.17198   0.16135   0.83749   0.00000  Uiso   1.00
O615   O     0.08159   0.26997   0.87974   0.00000  Uiso   1.00
O616   O     0.12114   0.32499   0.91440   0.00000  Uiso   1.00
O617   O     0.16396   0.28861   0.84800   0.00000  Uiso   1.00
O618   O     0.17849   0.08101   0.77821   0.00000  Uiso   1.00
O619   O     0.14581   0.26136   0.76767   0.00000  Uiso   1.00
O620   O     0.07452   0.13251   0.73607   0.00000  Uiso   1.00
O621   O     0.26785   0.19179   0.71805   0.00000  Uiso   1.00
O622   O     0.06990   0.18960   0.77820   0.00000  Uiso   1.00
O623   O     0.25440   0.15277   0.76767   0.00000  Uiso   1.00
O624   O     0.13800   0.06903   0.73607   0.00000  Uiso   1.00
O625   O     0.20437   0.25527   0.71806   0.00000  Uiso   1.00
S626   S     0.12379   0.28337   0.88963   0.00000  Uiso   1.00
Zn627  Zn    0.19244   0.14090   0.78278   0.00000  Uiso   1.00
Zn628  Zn    0.13459   0.12378   0.72258   0.00000  Uiso   1.00
Zn629  Zn    0.21166   0.19664   0.71188   0.00000  Uiso   1.00
Zn630  Zn    0.12798   0.20535   0.78277   0.00000  Uiso   1.00
C631   C     0.38579   0.15995   0.75871   0.00000  Uiso   1.00
C632   C     0.52359   0.12622   0.96161   0.00000  Uiso   1.00
C633   C     0.53691   0.10109   0.98291   0.00000  Uiso   1.00
C634   C     0.61435   0.17358   0.74121   0.00000  Uiso   1.00
C635   C     0.53544   0.11343   0.52213   0.00000  Uiso   1.00
C636   C     0.52197   0.15286   0.54033   0.00000  Uiso   1.00
C637   C     0.54658   0.08615   0.54358   0.00000  Uiso   1.00
C638   C     0.54317   0.09689   0.58335   0.00000  Uiso   1.00
C639   C     0.51989   0.16335   0.58052   0.00000  Uiso   1.00
C640   C     0.66035   0.17623   0.73764   0.00000  Uiso   1.00
C641   C     0.34041   0.15760   0.76211   0.00000  Uiso   1.00
C642   C     0.46770   0.24504   0.91521   0.00000  Uiso   1.00
C643   C     0.51427   0.32217   0.73841   0.00000  Uiso   1.00
C644   C     0.48457   0.01207   0.76200   0.00000  Uiso   1.00
C645   C     0.48912   0.05612   0.75891   0.00000  Uiso   1.00
C646   C     0.51016   0.27767   0.74143   0.00000  Uiso   1.00
C647   C     0.52159   0.14494   0.64407   0.00000  Uiso   1.00
C648   C     0.48006   0.18926   0.85597   0.00000  Uiso   1.00
C649   C     0.47731   0.20416   0.89770   0.00000  Uiso   1.00
C650   C     0.52984   0.13546   0.60172   0.00000  Uiso   1.00
C651   C     0.46903   0.25717   0.95399   0.00000  Uiso   1.00
C652   C     0.48869   0.17746   0.91949   0.00000  Uiso   1.00
C653   C     0.49322   0.19066   0.95756   0.00000  Uiso   1.00
C654   C     0.48209   0.23092   0.97498   0.00000  Uiso   1.00
C655   C     0.50846   0.16513   0.97877   0.00000  Uiso   1.00
C656   C     0.50952   0.17946   0.51820   0.00000  Uiso   1.00
C657   C     0.49825   0.21994   0.53417   0.00000  Uiso   1.00
C658   C     0.48494   0.24514   0.51298   0.00000  Uiso   1.00
F659   F     0.47495   0.28393   0.52993   0.00000  Uiso   1.00
H660   H     0.55677   0.05598   0.52982   0.00000  Uiso   1.00
H661   H     0.49400   0.14628   0.90570   0.00000  Uiso   1.00
H662   H     0.50026   0.23378   0.56289   0.00000  Uiso   1.00
H663   H     0.52633   0.11429   0.93139   0.00000  Uiso   1.00
H664   H     0.49180   0.31313   0.83747   0.00000  Uiso   1.00
H665   H     0.35009   0.19337   0.71501   0.00000  Uiso   1.00
H666   H     0.65133   0.14045   0.78504   0.00000  Uiso   1.00
H667   H     0.54175   0.00283   0.71679   0.00000  Uiso   1.00
H668   H     0.45658   0.33215   0.78354   0.00000  Uiso   1.00
H669   H     0.50827   0.19178   0.59701   0.00000  Uiso   1.00
H670   H     0.55037   0.07496   0.59996   0.00000  Uiso   1.00
H671   H     0.54783   0.07131   0.96865   0.00000  Uiso   1.00
H672   H     0.46117   0.28806   0.96759   0.00000  Uiso   1.00
O673   O     0.50000   0.16667   0.75000   0.00000  Uiso   1.00
O674   O     0.49027   0.12393   0.66625   0.00000  Uiso   1.00
O675   O     0.46020   0.20646   0.83749   0.00000  Uiso   1.00
O676   O     0.54421   0.17493   0.65877   0.00000  Uiso   1.00
O677   O     0.50532   0.16135   0.83749   0.00000  Uiso   1.00
O678   O     0.41492   0.26997   0.87974   0.00000  Uiso   1.00
O679   O     0.45447   0.32499   0.91440   0.00000  Uiso   1.00
O680   O     0.49729   0.28861   0.84800   0.00000  Uiso   1.00
O681   O     0.51182   0.08101   0.77821   0.00000  Uiso   1.00
O682   O     0.47914   0.26136   0.76767   0.00000  Uiso   1.00
O683   O     0.40785   0.13251   0.73607   0.00000  Uiso   1.00
O684   O     0.60119   0.19179   0.71805   0.00000  Uiso   1.00
O685   O     0.40323   0.18960   0.77820   0.00000  Uiso   1.00
O686   O     0.58773   0.15277   0.76767   0.00000  Uiso   1.00
O687   O     0.47133   0.06903   0.73607   0.00000  Uiso   1.00
O688   O     0.53771   0.25527   0.71806   0.00000  Uiso   1.00
S689   S     0.45712   0.28337   0.88963   0.00000  Uiso   1.00
Zn690  Zn    0.52577   0.14090   0.78278   0.00000  Uiso   1.00
Zn691  Zn    0.46792   0.12378   0.72258   0.00000  Uiso   1.00
Zn692  Zn    0.54500   0.19664   0.71188   0.00000  Uiso   1.00
Zn693  Zn    0.46131   0.20535   0.78277   0.00000  Uiso   1.00
C694   C     0.71913   0.15995   0.75871   0.00000  Uiso   1.00
C695   C     0.85693   0.12622   0.96161   0.00000  Uiso   1.00
C696   C     0.87025   0.10109   0.98291   0.00000  Uiso   1.00
C697   C     0.94769   0.17358   0.74121   0.00000  Uiso   1.00
C698   C     0.86877   0.11343   0.52213   0.00000  Uiso   1.00
C699   C     0.85531   0.15286   0.54033   0.00000  Uiso   1.00
C700   C     0.87991   0.08615   0.54358   0.00000  Uiso   1.00
C701   C     0.87650   0.09689   0.58335   0.00000  Uiso   1.00
C702   C     0.85323   0.16335   0.58052   0.00000  Uiso   1.00
C703   C     0.99369   0.17623   0.73764   0.00000  Uiso   1.00
C704   C     0.67374   0.15760   0.76211   0.00000  Uiso   1.00
C705   C     0.80104   0.24504   0.91521   0.00000  Uiso   1.00
C706   C     0.84760   0.32217   0.73841   0.00000  Uiso   1.00
C707   C     0.81791   0.01207   0.76200   0.00000  Uiso   1.00
C708   C     0.82245   0.05612   0.75891   0.00000  Uiso   1.00
C709   C     0.84349   0.27767   0.74143   0.00000  Uiso   1.00
C710   C     0.85492   0.14494   0.64407   0.00000  Uiso   1.00
C711   C     0.81339   0.18926   0.85597   0.00000  Uiso   1.00
C712   C     0.81064   0.20416   0.89770   0.00000  Uiso   1.00
C713   C     0.86317   0.13546   0.60172   0.00000  Uiso   1.00
C714   C     0.80236   0.25717   0.95399   0.00000  Uiso   1.00
C715   C     0.82203   0.17746   0.91949   0.00000  Uiso   1.00
C716   C     0.82655   0.19066   0.95756   0.00000  Uiso   1.00
C717   C     0.81543   0.23092   0.97498   0.00000  Uiso   1.00
C718   C     0.84179   0.16513   0.97877   0.00000  Uiso   1.00
C719   C     0.84285   0.17946   0.51820   0.00000  Uiso   1.00
C720   C     0.83159   0.21994   0.53417   0.00000  Uiso   1.00
C721   C     0.81827   0.24514   0.51298   0.00000  Uiso   1.00
F722   F     0.80829   0.28393   0.52993   0.00000  Uiso   1.00
H723   H     0.89011   0.05598   0.52982   0.00000  Uiso   1.00
H724   H     0.82734   0.14628   0.90570   0.00000  Uiso   1.00
H725   H     0.83360   0.23378   0.56289   0.00000  Uiso   1.00
H726   H     0.85966   0.11429   0.93139   0.00000  Uiso   1.00
H727   H     0.82514   0.31313   0.83747   0.00000  Uiso   1.00
H728   H     0.68343   0.19337   0.71501   0.00000  Uiso   1.00
H729   H     0.98466   0.14045   0.78504   0.00000  Uiso   1.00
H730   H     0.87508   0.00283   0.71679   0.00000  Uiso   1.00
H731   H     0.78991   0.33215   0.78354   0.00000  Uiso   1.00
H732   H     0.84161   0.19178   0.59701   0.00000  Uiso   1.00
H733   H     0.88370   0.07496   0.59996   0.00000  Uiso   1.00
H734   H     0.88116   0.07131   0.96865   0.00000  Uiso   1.00
H735   H     0.79450   0.28806   0.96759   0.00000  Uiso   1.00
O736   O     0.83333   0.16667   0.75000   0.00000  Uiso   1.00
O737   O     0.82360   0.12393   0.66625   0.00000  Uiso   1.00
O738   O     0.79354   0.20646   0.83749   0.00000  Uiso   1.00
O739   O     0.87755   0.17493   0.65877   0.00000  Uiso   1.00
O740   O     0.83865   0.16135   0.83749   0.00000  Uiso   1.00
O741   O     0.74826   0.26997   0.87974   0.00000  Uiso   1.00
O742   O     0.78781   0.32499   0.91440   0.00000  Uiso   1.00
O743   O     0.83063   0.28861   0.84800   0.00000  Uiso   1.00
O744   O     0.84515   0.08101   0.77821   0.00000  Uiso   1.00
O745   O     0.81247   0.26136   0.76767   0.00000  Uiso   1.00
O746   O     0.74119   0.13251   0.73607   0.00000  Uiso   1.00
O747   O     0.93452   0.19179   0.71805   0.00000  Uiso   1.00
O748   O     0.73656   0.18960   0.77820   0.00000  Uiso   1.00
O749   O     0.92106   0.15277   0.76767   0.00000  Uiso   1.00
O750   O     0.80467   0.06903   0.73607   0.00000  Uiso   1.00
O751   O     0.87104   0.25527   0.71806   0.00000  Uiso   1.00
S752   S     0.79045   0.28337   0.88963   0.00000  Uiso   1.00
Zn753  Zn    0.85910   0.14090   0.78278   0.00000  Uiso   1.00
Zn754  Zn    0.80125   0.12378   0.72258   0.00000  Uiso   1.00
Zn755  Zn    0.87833   0.19664   0.71188   0.00000  Uiso   1.00
Zn756  Zn    0.79465   0.20535   0.78277   0.00000  Uiso   1.00
C757   C     0.05246   0.49328   0.75871   0.00000  Uiso   1.00
C758   C     0.19026   0.45955   0.96161   0.00000  Uiso   1.00
C759   C     0.20358   0.43442   0.98291   0.00000  Uiso   1.00
C760   C     0.28102   0.50691   0.74121   0.00000  Uiso   1.00
C761   C     0.20211   0.44676   0.52213   0.00000  Uiso   1.00
C762   C     0.18864   0.48619   0.54033   0.00000  Uiso   1.00
C763   C     0.21324   0.41948   0.54358   0.00000  Uiso   1.00
C764   C     0.20984   0.43023   0.58335   0.00000  Uiso   1.00
C765   C     0.18656   0.49669   0.58052   0.00000  Uiso   1.00
C766   C     0.32702   0.50956   0.73764   0.00000  Uiso   1.00
C767   C     0.00707   0.49094   0.76211   0.00000  Uiso   1.00
C768   C     0.13437   0.57837   0.91521   0.00000  Uiso   1.00
C769   C     0.18093   0.65551   0.73841   0.00000  Uiso   1.00
C770   C     0.15124   0.34540   0.76200   0.00000  Uiso   1.00
C771   C     0.15579   0.38945   0.75891   0.00000  Uiso   1.00
C772   C     0.17683   0.61100   0.74143   0.00000  Uiso   1.00
C773   C     0.18825   0.47828   0.64407   0.00000  Uiso   1.00
C774   C     0.14672   0.52260   0.85597   0.00000  Uiso   1.00
C775   C     0.14397   0.53750   0.89770   0.00000  Uiso   1.00
C776   C     0.19650   0.46879   0.60172   0.00000  Uiso   1.00
C777   C     0.13570   0.59051   0.95399   0.00000  Uiso   1.00
C778   C     0.15536   0.51079   0.91949   0.00000  Uiso   1.00
C779   C     0.15988   0.52400   0.95756   0.00000  Uiso   1.00
C780   C     0.14876   0.56426   0.97498   0.00000  Uiso   1.00
C781   C     0.17512   0.49846   0.97877   0.00000  Uiso   1.00
C782   C     0.17618   0.51279   0.51820   0.00000  Uiso   1.00
C783   C     0.16492   0.55327   0.53417   0.00000  Uiso   1.00
C784   C     0.15160   0.57847   0.51298   0.00000  Uiso   1.00
F785   F     0.14162   0.61726   0.52993   0.00000  Uiso   1.00
H786   H     0.22344   0.38932   0.52982   0.00000  Uiso   1.00
H787   H     0.16067   0.47961   0.90570   0.00000  Uiso   1.00
H788   H     0.16693   0.56711   0.56289   0.00000  Uiso   1.00
H789   H     0.19299   0.44762   0.93139   0.00000  Uiso   1.00
H790   H     0.15847   0.64647   0.83747   0.00000  Uiso   1.00
H791   H     0.01676   0.52670   0.71501   0.00000  Uiso   1.00
H792   H     0.31799   0.47378   0.78504   0.00000  Uiso   1.00
H793   H     0.20841   0.33617   0.71679   0.00000  Uiso   1.00
H794   H     0.12324   0.66548   0.78354   0.00000  Uiso   1.00
H795   H     0.17494   0.52511   0.59701   0.00000  Uiso   1.00
H796   H     0.21704   0.40829   0.59996   0.00000  Uiso   1.00
H797   H     0.21450   0.40465   0.96865   0.00000  Uiso   1.00
H798   H     0.12783   0.62139   0.96759   0.00000  Uiso   1.00
O799   O     0.16667   0.50000   0.75000   0.00000  Uiso   1.00
O800   O     0.15693   0.45726   0.66625   0.00000  Uiso   1.00
O801   O     0.12687   0.53979   0.83749   0.00000  Uiso   1.00
O802   O     0.21088   0.50826   0.65877   0.00000  Uiso   1.00
O803   O     0.17198   0.49468   0.83749   0.00000  Uiso   1.00
O804   O     0.08159   0.60330   0.87974   0.00000  Uiso   1.00
O805   O     0.12114   0.65833   0.91440   0.00000  Uiso   1.00
O806   O     0.16396   0.62195   0.84800   0.00000  Uiso   1.00
O807   O     0.17849   0.41434   0.77821   0.00000  Uiso   1.00
O808   O     0.14581   0.59469   0.76767   0.00000  Uiso   1.00
O809   O     0.07452   0.46584   0.73607   0.00000  Uiso   1.00
O810   O     0.26785   0.52512   0.71805   0.00000  Uiso   1.00
O811   O     0.06990   0.52293   0.77820   0.00000  Uiso   1.00
O812   O     0.25440   0.48610   0.76767   0.00000  Uiso   1.00
O813   O     0.13800   0.40236   0.73607   0.00000  Uiso   1.00
O814   O     0.20437   0.58860   0.71806   0.00000  Uiso   1.00
S815   S     0.12379   0.61670   0.88963   0.00000  Uiso   1.00
Zn816  Zn    0.19244   0.47423   0.78278   0.00000  Uiso   1.00
Zn817  Zn    0.13459   0.45711   0.72258   0.00000  Uiso   1.00
Zn818  Zn    0.21166   0.52997   0.71188   0.00000  Uiso   1.00
Zn819  Zn    0.12798   0.53868   0.78277   0.00000  Uiso   1.00
C820   C     0.38579   0.49328   0.75871   0.00000  Uiso   1.00
C821   C     0.52359   0.45955   0.96161   0.00000  Uiso   1.00
C822   C     0.53691   0.43442   0.98291   0.00000  Uiso   1.00
C823   C     0.61435   0.50691   0.74121   0.00000  Uiso   1.00
C824   C     0.53544   0.44676   0.52213   0.00000  Uiso   1.00
C825   C     0.52197   0.48619   0.54033   0.00000  Uiso   1.00
C826   C     0.54658   0.41948   0.54358   0.00000  Uiso   1.00
C827   C     0.54317   0.43023   0.58335   0.00000  Uiso   1.00
C828   C     0.51989   0.49669   0.58052   0.00000  Uiso   1.00
C829   C     0.66035   0.50956   0.73764   0.00000  Uiso   1.00
C830   C     0.34041   0.49094   0.76211   0.00000  Uiso   1.00
C831   C     0.46770   0.57837   0.91521   0.00000  Uiso   1.00
C832   C     0.51427   0.65551   0.73841   0.00000  Uiso   1.00
C833   C     0.48457   0.34540   0.76200   0.00000  Uiso   1.00
C834   C     0.48912   0.38945   0.75891   0.00000  Uiso   1.00
C835   C     0.51016   0.61100   0.74143   0.00000  Uiso   1.00
C836   C     0.52159   0.47828   0.64407   0.00000  Uiso   1.00
C837   C     0.48006   0.52260   0.85597   0.00000  Uiso   1.00
C838   C     0.47731   0.53750   0.89770   0.00000  Uiso   1.00
C839   C     0.52984   0.46879   0.60172   0.00000  Uiso   1.00
C840   C     0.46903   0.59051   0.95399   0.00000  Uiso   1.00
C841   C     0.48869   0.51079   0.91949   0.00000  Uiso   1.00
C842   C     0.49322   0.52400   0.95756   0.00000  Uiso   1.00
C843   C     0.48209   0.56426   0.97498   0.00000  Uiso   1.00
C844   C     0.50846   0.49846   0.97877   0.00000  Uiso   1.00
C845   C     0.50952   0.51279   0.51820   0.00000  Uiso   1.00
C846   C     0.49825   0.55327   0.53417   0.00000  Uiso   1.00
C847   C     0.48494   0.57847   0.51298   0.00000  Uiso   1.00
F848   F     0.47495   0.61726   0.52993   0.00000  Uiso   1.00
H849   H     0.55677   0.38932   0.52982   0.00000  Uiso   1.00
H850   H     0.49400   0.47961   0.90570   0.00000  Uiso   1.00
H851   H     0.50026   0.56711   0.56289   0.00000  Uiso   1.00
H852   H     0.52633   0.44762   0.93139   0.00000  Uiso   1.00
H853   H     0.49180   0.64647   0.83747   0.00000  Uiso   1.00
H854   H     0.35009   0.52670   0.71501   0.00000  Uiso   1.00
H855   H     0.65133   0.47378   0.78504   0.00000  Uiso   1.00
H856   H     0.54175   0.33617   0.71679   0.00000  Uiso   1.00
H857   H     0.45658   0.66548   0.78354   0.00000  Uiso   1.00
H858   H     0.50827   0.52511   0.59701   0.00000  Uiso   1.00
H859   H     0.55037   0.40829   0.59996   0.00000  Uiso   1.00
H860   H     0.54783   0.40465   0.96865   0.00000  Uiso   1.00
H861   H     0.46117   0.62139   0.96759   0.00000  Uiso   1.00
O862   O     0.50000   0.50000   0.75000   0.00000  Uiso   1.00
O863   O     0.49027   0.45726   0.66625   0.00000  Uiso   1.00
O864   O     0.46020   0.53979   0.83749   0.00000  Uiso   1.00
O865   O     0.54421   0.50826   0.65877   0.00000  Uiso   1.00
O866   O     0.50532   0.49468   0.83749   0.00000  Uiso   1.00
O867   O     0.41492   0.60330   0.87974   0.00000  Uiso   1.00
O868   O     0.45447   0.65833   0.91440   0.00000  Uiso   1.00
O869   O     0.49729   0.62195   0.84800   0.00000  Uiso   1.00
O870   O     0.51182   0.41434   0.77821   0.00000  Uiso   1.00
O871   O     0.47914   0.59469   0.76767   0.00000  Uiso   1.00
O872   O     0.40785   0.46584   0.73607   0.00000  Uiso   1.00
O873   O     0.60119   0.52512   0.71805   0.00000  Uiso   1.00
O874   O     0.40323   0.52293   0.77820   0.00000  Uiso   1.00
O875   O     0.58773   0.48610   0.76767   0.00000  Uiso   1.00
O876   O     0.47133   0.40236   0.73607   0.00000  Uiso   1.00
O877   O     0.53771   0.58860   0.71806   0.00000  Uiso   1.00
S878   S     0.45712   0.61670   0.88963   0.00000  Uiso   1.00
Zn879  Zn    0.52577   0.47423   0.78278   0.00000  Uiso   1.00
Zn880  Zn    0.46792   0.45711   0.72258   0.00000  Uiso   1.00
Zn881  Zn    0.54500   0.52997   0.71188   0.00000  Uiso   1.00
Zn882  Zn    0.46131   0.53868   0.78277   0.00000  Uiso   1.00
C883   C     0.71913   0.49328   0.75871   0.00000  Uiso   1.00
C884   C     0.85693   0.45955   0.96161   0.00000  Uiso   1.00
C885   C     0.87025   0.43442   0.98291   0.00000  Uiso   1.00
C886   C     0.94769   0.50691   0.74121   0.00000  Uiso   1.00
C887   C     0.86877   0.44676   0.52213   0.00000  Uiso   1.00
C888   C     0.85531   0.48619   0.54033   0.00000  Uiso   1.00
C889   C     0.87991   0.41948   0.54358   0.00000  Uiso   1.00
C890   C     0.87650   0.43023   0.58335   0.00000  Uiso   1.00
C891   C     0.85323   0.49669   0.58052   0.00000  Uiso   1.00
C892   C     0.99369   0.50956   0.73764   0.00000  Uiso   1.00
C893   C     0.67374   0.49094   0.76211   0.00000  Uiso   1.00
C894   C     0.80104   0.57837   0.91521   0.00000  Uiso   1.00
C895   C     0.84760   0.65551   0.73841   0.00000  Uiso   1.00
C896   C     0.81791   0.34540   0.76200   0.00000  Uiso   1.00
C897   C     0.82245   0.38945   0.75891   0.00000  Uiso   1.00
C898   C     0.84349   0.61100   0.74143   0.00000  Uiso   1.00
C899   C     0.85492   0.47828   0.64407   0.00000  Uiso   1.00
C900   C     0.81339   0.52260   0.85597   0.00000  Uiso   1.00
C901   C     0.81064   0.53750   0.89770   0.00000  Uiso   1.00
C902   C     0.86317   0.46879   0.60172   0.00000  Uiso   1.00
C903   C     0.80236   0.59051   0.95399   0.00000  Uiso   1.00
C904   C     0.82203   0.51079   0.91949   0.00000  Uiso   1.00
C905   C     0.82655   0.52400   0.95756   0.00000  Uiso   1.00
C906   C     0.81543   0.56426   0.97498   0.00000  Uiso   1.00
C907   C     0.84179   0.49846   0.97877   0.00000  Uiso   1.00
C908   C     0.84285   0.51279   0.51820   0.00000  Uiso   1.00
C909   C     0.83159   0.55327   0.53417   0.00000  Uiso   1.00
C910   C     0.81827   0.57847   0.51298   0.00000  Uiso   1.00
F911   F     0.80829   0.61726   0.52993   0.00000  Uiso   1.00
H912   H     0.89011   0.38932   0.52982   0.00000  Uiso   1.00
H913   H     0.82734   0.47961   0.90570   0.00000  Uiso   1.00
H914   H     0.83360   0.56711   0.56289   0.00000  Uiso   1.00
H915   H     0.85966   0.44762   0.93139   0.00000  Uiso   1.00
H916   H     0.82514   0.64647   0.83747   0.00000  Uiso   1.00
H917   H     0.68343   0.52670   0.71501   0.00000  Uiso   1.00
H918   H     0.98466   0.47378   0.78504   0.00000  Uiso   1.00
H919   H     0.87508   0.33617   0.71679   0.00000  Uiso   1.00
H920   H     0.78991   0.66548   0.78354   0.00000  Uiso   1.00
H921   H     0.84161   0.52511   0.59701   0.00000  Uiso   1.00
H922   H     0.88370   0.40829   0.59996   0.00000  Uiso   1.00
H923   H     0.88116   0.40465   0.96865   0.00000  Uiso   1.00
H924   H     0.79450   0.62139   0.96759   0.00000  Uiso   1.00
O925   O     0.83333   0.50000   0.75000   0.00000  Uiso   1.00
O926   O     0.82360   0.45726   0.66625   0.00000  Uiso   1.00
O927   O     0.79354   0.53979   0.83749   0.00000  Uiso   1.00
O928   O     0.87755   0.50826   0.65877   0.00000  Uiso   1.00
O929   O     0.83865   0.49468   0.83749   0.00000  Uiso   1.00
O930   O     0.74826   0.60330   0.87974   0.00000  Uiso   1.00
O931   O     0.78781   0.65833   0.91440   0.00000  Uiso   1.00
O932   O     0.83063   0.62195   0.84800   0.00000  Uiso   1.00
O933   O     0.84515   0.41434   0.77821   0.00000  Uiso   1.00
O934   O     0.81247   0.59469   0.76767   0.00000  Uiso   1.00
O935   O     0.74119   0.46584   0.73607   0.00000  Uiso   1.00
O936   O     0.93452   0.52512   0.71805   0.00000  Uiso   1.00
O937   O     0.73656   0.52293   0.77820   0.00000  Uiso   1.00
O938   O     0.92106   0.48610   0.76767   0.00000  Uiso   1.00
O939   O     0.80467   0.40236   0.73607   0.00000  Uiso   1.00
O940   O     0.87104   0.58860   0.71806   0.00000  Uiso   1.00
S941   S     0.79045   0.61670   0.88963   0.00000  Uiso   1.00
Zn942  Zn    0.85910   0.47423   0.78278   0.00000  Uiso   1.00
Zn943  Zn    0.80125   0.45711   0.72258   0.00000  Uiso   1.00
Zn944  Zn    0.87833   0.52997   0.71188   0.00000  Uiso   1.00
Zn945  Zn    0.79465   0.53868   0.78277   0.00000  Uiso   1.00
C946   C     0.05246   0.82661   0.75871   0.00000  Uiso   1.00
C947   C     0.19026   0.79289   0.96161   0.00000  Uiso   1.00
C948   C     0.20358   0.76775   0.98291   0.00000  Uiso   1.00
C949   C     0.28102   0.84024   0.74121   0.00000  Uiso   1.00
C950   C     0.20211   0.78009   0.52213   0.00000  Uiso   1.00
C951   C     0.18864   0.81953   0.54033   0.00000  Uiso   1.00
C952   C     0.21324   0.75281   0.54358   0.00000  Uiso   1.00
C953   C     0.20984   0.76356   0.58335   0.00000  Uiso   1.00
C954   C     0.18656   0.83002   0.58052   0.00000  Uiso   1.00
C955   C     0.32702   0.84290   0.73764   0.00000  Uiso   1.00
C956   C     0.00707   0.82427   0.76211   0.00000  Uiso   1.00
C957   C     0.13437   0.91171   0.91521   0.00000  Uiso   1.00
C958   C     0.18093   0.98884   0.73841   0.00000  Uiso   1.00
C959   C     0.15124   0.67874   0.76200   0.00000  Uiso   1.00
C960   C     0.15579   0.72279   0.75891   0.00000  Uiso   1.00
C961   C     0.17683   0.94434   0.74143   0.00000  Uiso   1.00
C962   C     0.18825   0.81161   0.64407   0.00000  Uiso   1.00
C963   C     0.14672   0.85593   0.85597   0.00000  Uiso   1.00
C964   C     0.14397   0.87083   0.89770   0.00000  Uiso   1.00
C965   C     0.19650   0.80212   0.60172   0.00000  Uiso   1.00
C966   C     0.13570   0.92384   0.95399   0.00000  Uiso   1.00
C967   C     0.15536   0.84413   0.91949   0.00000  Uiso   1.00
C968   C     0.15988   0.85733   0.95756   0.00000  Uiso   1.00
C969   C     0.14876   0.89759   0.97498   0.00000  Uiso   1.00
C970   C     0.17512   0.83180   0.97877   0.00000  Uiso   1.00
C971   C     0.17618   0.84612   0.51820   0.00000  Uiso   1.00
C972   C     0.16492   0.88660   0.53417   0.00000  Uiso   1.00
C973   C     0.15160   0.91180   0.51298   0.00000  Uiso   1.00
F974   F     0.14162   0.95060   0.52993   0.00000  Uiso   1.00
H975   H     0.22344   0.72265   0.52982   0.00000  Uiso   1.00
H976   H     0.16067   0.81294   0.90570   0.00000  Uiso   1.00
H977   H     0.16693   0.90044   0.56289   0.00000  Uiso   1.00
H978   H     0.19299   0.78095   0.93139   0.00000  Uiso   1.00
H979   H     0.15847   0.97980   0.83747   0.00000  Uiso   1.00
H980   H     0.01676   0.86003   0.71501   0.00000  Uiso   1.00
H981   H     0.31799   0.80712   0.78504   0.00000  Uiso   1.00
H982   H     0.20841   0.66950   0.71679   0.00000  Uiso   1.00
H983   H     0.12324   0.99881   0.78354   0.00000  Uiso   1.00
H984   H     0.17494   0.85844   0.59701   0.00000  Uiso   1.00
H985   H     0.21704   0.74162   0.59996   0.00000  Uiso   1.00
H986   H     0.21450   0.73798   0.96865   0.00000  Uiso   1.00
H987   H     0.12783   0.95473   0.96759   0.00000  Uiso   1.00
O988   O     0.16667   0.83333   0.75000   0.00000  Uiso   1.00
O989   O     0.15693   0.79060   0.66625   0.00000  Uiso   1.00
O990   O     0.12687   0.87313   0.83749   0.00000  Uiso   1.00
O991   O     0.21088   0.84159   0.65877   0.00000  Uiso   1.00
O992   O     0.17198   0.82802   0.83749   0.00000  Uiso   1.00
O993   O     0.08159   0.93664   0.87974   0.00000  Uiso   1.00
O994   O     0.12114   0.99166   0.91440   0.00000  Uiso   1.00
O995   O     0.16396   0.95528   0.84800   0.00000  Uiso   1.00
O996   O     0.17849   0.74768   0.77821   0.00000  Uiso   1.00
O997   O     0.14581   0.92803   0.76767   0.00000  Uiso   1.00
O998   O     0.07452   0.79917   0.73607   0.00000  Uiso   1.00
O999   O     0.26785   0.85845   0.71805   0.00000  Uiso   1.00
O1000  O     0.06990   0.85627   0.77820   0.00000  Uiso   1.00
O1001  O     0.25440   0.81944   0.76767   0.00000  Uiso   1.00
O1002  O     0.13800   0.73570   0.73607   0.00000  Uiso   1.00
O1003  O     0.20437   0.92193   0.71806   0.00000  Uiso   1.00
S1004  S     0.12379   0.95004   0.88963   0.00000  Uiso   1.00
Zn1005 Zn    0.19244   0.80756   0.78278   0.00000  Uiso   1.00
Zn1006 Zn    0.13459   0.79044   0.72258   0.00000  Uiso   1.00
Zn1007 Zn    0.21166   0.86331   0.71188   0.00000  Uiso   1.00
Zn1008 Zn    0.12798   0.87202   0.78277   0.00000  Uiso   1.00
C1009  C     0.38579   0.82661   0.75871   0.00000  Uiso   1.00
C1010  C     0.52359   0.79289   0.96161   0.00000  Uiso   1.00
C1011  C     0.53691   0.76775   0.98291   0.00000  Uiso   1.00
C1012  C     0.61435   0.84024   0.74121   0.00000  Uiso   1.00
C1013  C     0.53544   0.78009   0.52213   0.00000  Uiso   1.00
C1014  C     0.52197   0.81953   0.54033   0.00000  Uiso   1.00
C1015  C     0.54658   0.75281   0.54358   0.00000  Uiso   1.00
C1016  C     0.54317   0.76356   0.58335   0.00000  Uiso   1.00
C1017  C     0.51989   0.83002   0.58052   0.00000  Uiso   1.00
C1018  C     0.66035   0.84290   0.73764   0.00000  Uiso   1.00
C1019  C     0.34041   0.82427   0.76211   0.00000  Uiso   1.00
C1020  C     0.46770   0.91171   0.91521   0.00000  Uiso   1.00
C1021  C     0.51427   0.98884   0.73841   0.00000  Uiso   1.00
C1022  C     0.48457   0.67874   0.76200   0.00000  Uiso   1.00
C1023  C     0.48912   0.72279   0.75891   0.00000  Uiso   1.00
C1024  C     0.51016   0.94434   0.74143   0.00000  Uiso   1.00
C1025  C     0.52159   0.81161   0.64407   0.00000  Uiso   1.00
C1026  C     0.48006   0.85593   0.85597   0.00000  Uiso   1.00
C1027  C     0.47731   0.87083   0.89770   0.00000  Uiso   1.00
C1028  C     0.52984   0.80212   0.60172   0.00000  Uiso   1.00
C1029  C     0.46903   0.92384   0.95399   0.00000  Uiso   1.00
C1030  C     0.48869   0.84413   0.91949   0.00000  Uiso   1.00
C1031  C     0.49322   0.85733   0.95756   0.00000  Uiso   1.00
C1032  C     0.48209   0.89759   0.97498   0.00000  Uiso   1.00
C1033  C     0.50846   0.83180   0.97877   0.00000  Uiso   1.00
C1034  C     0.50952   0.84612   0.51820   0.00000  Uiso   1.00
C1035  C     0.49825   0.88660   0.53417   0.00000  Uiso   1.00
C1036  C     0.48494   0.91180   0.51298   0.00000  Uiso   1.00
F1037  F     0.47495   0.95060   0.52993   0.00000  Uiso   1.00
H1038  H     0.55677   0.72265   0.52982   0.00000  Uiso   1.00
H1039  H     0.49400   0.81294   0.90570   0.00000  Uiso   1.00
H1040  H     0.50026   0.90044   0.56289   0.00000  Uiso   1.00
H1041  H     0.52633   0.78095   0.93139   0.00000  Uiso   1.00
H1042  H     0.49180   0.97980   0.83747   0.00000  Uiso   1.00
H1043  H     0.35009   0.86003   0.71501   0.00000  Uiso   1.00
H1044  H     0.65133   0.80712   0.78504   0.00000  Uiso   1.00
H1045  H     0.54175   0.66950   0.71679   0.00000  Uiso   1.00
H1046  H     0.45658   0.99881   0.78354   0.00000  Uiso   1.00
H1047  H     0.50827   0.85844   0.59701   0.00000  Uiso   1.00
H1048  H     0.55037   0.74162   0.59996   0.00000  Uiso   1.00
H1049  H     0.54783   0.73798   0.96865   0.00000  Uiso   1.00
H1050  H     0.46117   0.95473   0.96759   0.00000  Uiso   1.00
O1051  O     0.50000   0.83333   0.75000   0.00000  Uiso   1.00
O1052  O     0.49027   0.79060   0.66625   0.00000  Uiso   1.00
O1053  O     0.46020   0.87313   0.83749   0.00000  Uiso   1.00
O1054  O     0.54421   0.84159   0.65877   0.00000  Uiso   1.00
O1055  O     0.50532   0.82802   0.83749   0.00000  Uiso   1.00
O1056  O     0.41492   0.93664   0.87974   0.00000  Uiso   1.00
O1057  O     0.45447   0.99166   0.91440   0.00000  Uiso   1.00
O1058  O     0.49729   0.95528   0.84800   0.00000  Uiso   1.00
O1059  O     0.51182   0.74768   0.77821   0.00000  Uiso   1.00
O1060  O     0.47914   0.92803   0.76767   0.00000  Uiso   1.00
O1061  O     0.40785   0.79917   0.73607   0.00000  Uiso   1.00
O1062  O     0.60119   0.85845   0.71805   0.00000  Uiso   1.00
O1063  O     0.40323   0.85627   0.77820   0.00000  Uiso   1.00
O1064  O     0.58773   0.81944   0.76767   0.00000  Uiso   1.00
O1065  O     0.47133   0.73570   0.73607   0.00000  Uiso   1.00
O1066  O     0.53771   0.92193   0.71806   0.00000  Uiso   1.00
S1067  S     0.45712   0.95004   0.88963   0.00000  Uiso   1.00
Zn1068 Zn    0.52577   0.80756   0.78278   0.00000  Uiso   1.00
Zn1069 Zn    0.46792   0.79044   0.72258   0.00000  Uiso   1.00
Zn1070 Zn    0.54500   0.86331   0.71188   0.00000  Uiso   1.00
Zn1071 Zn    0.46131   0.87202   0.78277   0.00000  Uiso   1.00
C1072  C     0.71913   0.82661   0.75871   0.00000  Uiso   1.00
C1073  C     0.85693   0.79289   0.96161   0.00000  Uiso   1.00
C1074  C     0.87025   0.76775   0.98291   0.00000  Uiso   1.00
C1075  C     0.94769   0.84024   0.74121   0.00000  Uiso   1.00
C1076  C     0.86877   0.78009   0.52213   0.00000  Uiso   1.00
C1077  C     0.85531   0.81953   0.54033   0.00000  Uiso   1.00
C1078  C     0.87991   0.75281   0.54358   0.00000  Uiso   1.00
C1079  C     0.87650   0.76356   0.58335   0.00000  Uiso   1.00
C1080  C     0.85323   0.83002   0.58052   0.00000  Uiso   1.00
C1081  C     0.99369   0.84290   0.73764   0.00000  Uiso   1.00
C1082  C     0.67374   0.82427   0.76211   0.00000  Uiso   1.00
C1083  C     0.80104   0.91171   0.91521   0.00000  Uiso   1.00
C1084  C     0.84760   0.98884   0.73841   0.00000  Uiso   1.00
C1085  C     0.81791   0.67874   0.76200   0.00000  Uiso   1.00
C1086  C     0.82245   0.72279   0.75891   0.00000  Uiso   1.00
C1087  C     0.84349   0.94434   0.74143   0.00000  Uiso   1.00
C1088  C     0.85492   0.81161   0.64407   0.00000  Uiso   1.00
C1089  C     0.81339   0.85593   0.85597   0.00000  Uiso   1.00
C1090  C     0.81064   0.87083   0.89770   0.00000  Uiso   1.00
C1091  C     0.86317   0.80212   0.60172   0.00000  Uiso   1.00
C1092  C     0.80236   0.92384   0.95399   0.00000  Uiso   1.00
C1093  C     0.82203   0.84413   0.91949   0.00000  Uiso   1.00
C1094  C     0.82655   0.85733   0.95756   0.00000  Uiso   1.00
C1095  C     0.81543   0.89759   0.97498   0.00000  Uiso   1.00
C1096  C     0.84179   0.83180   0.97877   0.00000  Uiso   1.00
C1097  C     0.84285   0.84612   0.51820   0.00000  Uiso   1.00
C1098  C     0.83159   0.88660   0.53417   0.00000  Uiso   1.00
C1099  C     0.81827   0.91180   0.51298   0.00000  Uiso   1.00
F1100  F     0.80829   0.95060   0.52993   0.00000  Uiso   1.00
H1101  H     0.89011   0.72265   0.52982   0.00000  Uiso   1.00
H1102  H     0.82734   0.81294   0.90570   0.00000  Uiso   1.00
H1103  H     0.83360   0.90044   0.56289   0.00000  Uiso   1.00
H1104  H     0.85966   0.78095   0.93139   0.00000  Uiso   1.00
H1105  H     0.82514   0.97980   0.83747   0.00000  Uiso   1.00
H1106  H     0.68343   0.86003   0.71501   0.00000  Uiso   1.00
H1107  H     0.98466   0.80712   0.78504   0.00000  Uiso   1.00
H1108  H     0.87508   0.66950   0.71679   0.00000  Uiso   1.00
H1109  H     0.78991   0.99881   0.78354   0.00000  Uiso   1.00
H1110  H     0.84161   0.85844   0.59701   0.00000  Uiso   1.00
H1111  H     0.88370   0.74162   0.59996   0.00000  Uiso   1.00
H1112  H     0.88116   0.73798   0.96865   0.00000  Uiso   1.00
H1113  H     0.79450   0.95473   0.96759   0.00000  Uiso   1.00
O1114  O     0.83333   0.83333   0.75000   0.00000  Uiso   1.00
O1115  O     0.82360   0.79060   0.66625   0.00000  Uiso   1.00
O1116  O     0.79354   0.87313   0.83749   0.00000  Uiso   1.00
O1117  O     0.87755   0.84159   0.65877   0.00000  Uiso   1.00
O1118  O     0.83865   0.82802   0.83749   0.00000  Uiso   1.00
O1119  O     0.74826   0.93664   0.87974   0.00000  Uiso   1.00
O1120  O     0.78781   0.99166   0.91440   0.00000  Uiso   1.00
O1121  O     0.83063   0.95528   0.84800   0.00000  Uiso   1.00
O1122  O     0.84515   0.74768   0.77821   0.00000  Uiso   1.00
O1123  O     0.81247   0.92803   0.76767   0.00000  Uiso   1.00
O1124  O     0.74119   0.79917   0.73607   0.00000  Uiso   1.00
O1125  O     0.93452   0.85845   0.71805   0.00000  Uiso   1.00
O1126  O     0.73656   0.85627   0.77820   0.00000  Uiso   1.00
O1127  O     0.92106   0.81944   0.76767   0.00000  Uiso   1.00
O1128  O     0.80467   0.73570   0.73607   0.00000  Uiso   1.00
O1129  O     0.87104   0.92193   0.71806   0.00000  Uiso   1.00
S1130  S     0.79045   0.95004   0.88963   0.00000  Uiso   1.00
Zn1131 Zn    0.85910   0.80756   0.78278   0.00000  Uiso   1.00
Zn1132 Zn    0.80125   0.79044   0.72258   0.00000  Uiso   1.00
Zn1133 Zn    0.87833   0.86331   0.71188   0.00000  Uiso   1.00
Zn1134 Zn    0.79465   0.87202   0.78277   0.00000  Uiso   1.00
loop_
_geom_bond_atom_site_label_1
_geom_bond_atom_site_label_2
_geom_bond_distance
_geom_bond_site_symmetry_2
_ccdc_geom_bond_type
C1     O55     1.268   .     A
C1     O53     1.268   .     A
C1     C11     1.437   .     S
C2     C3      1.386   .     A
C2     C25     1.415   .     A
C2     H33     1.076   .     S
C3     H41     1.084   .     S
C3     C572    1.390   .     S
C4     O56     1.280   .     A
C4     C10     1.455   .     S
C4     O54     1.284   .     A
C5     C6      1.420   .     A
C5     C7      1.403   .     A
C5     C570    1.390   1_554 S
C6     C9      1.412   .     A
C6     C26     1.427   .     A
C7     C8      1.390   .     A
C7     H30     1.084   .     S
C8     C20     1.395   .     A
C8     H40     1.083   .     S
C9     C20     1.392   .     A
C9     H39     1.077   .     S
C10    C74     1.335   .     S
C10    H98     1.088   .     S
C11    C136    1.335   1_455 S
C11    H162    1.086   1_455 S
C12    C19     1.422   .     A
C12    S59     1.778   .     S
C12    C21     1.397   .     A
C13    C16     1.451   .     S
C13    C203    1.331   .     S
C13    H226    1.088   .     S
C14    C15     1.436   .     S
C14    C391    1.331   1_545 S
C14    H416    1.086   1_545 S
C15    O51     1.277   .     A
C15    O57     1.277   .     A
C16    O52     1.271   .     A
C16    O58     1.270   .     A
C17    C20     1.454   .     S
C17    O44     1.271   .     A
C17    O46     1.276   .     A
C18    O47     1.291   .     A
C18    O45     1.279   .     A
C18    C19     1.481   .     S
C19    C22     1.402   .     A
C21    H42     1.083   .     S
C21    C24     1.399   .     A
C22    H31     1.076   .     S
C22    C23     1.410   .     A
C23    C24     1.416   .     A
C23    C25     1.429   .     A
C24    C595    1.395   .     S
C25    C593    1.428   .     S
C26    C27     1.413   .     A
C26    C592    1.428   1_554 S
C27    H32     1.076   .     S
C27    C28     1.384   .     A
C28    F29     1.359   .     S
C28    C591    1.395   1_554 S
H34    O50     0.990   .     S
H35    C136    1.088   1_455 S
H36    C74     1.086   .     S
H37    C391    1.088   1_545 S
H38    C203    1.086   .     S
O43    Zn63    1.929   .     S
O43    Zn60    1.964   .     S
O43    Zn61    1.938   .     S
O43    Zn62    1.937   .     S
O44    Zn61    1.933   .     S
O45    Zn63    1.943   .     S
O46    Zn62    1.933   .     S
O47    Zn60    1.925   .     S
O48    S59     1.503   .     D
O49    S59     1.504   .     D
O50    S59     1.682   .     S
O51    Zn60    1.927   .     S
O52    Zn63    1.933   .     S
O53    Zn61    1.926   .     S
O54    Zn62    1.937   .     S
O55    Zn63    1.931   .     S
O56    Zn60    1.923   .     S
O57    Zn61    1.939   .     S
O58    Zn62    1.929   .     S
C64    O118    1.268   .     A
C64    O116    1.268   .     A
C64    C74     1.437   .     S
C65    C66     1.386   .     A
C65    C88     1.415   .     A
C65    H96     1.076   .     S
C66    H104    1.084   .     S
C66    C635    1.390   .     S
C67    O119    1.280   .     A
C67    C73     1.455   .     S
C67    O117    1.284   .     A
C68    C69     1.420   .     A
C68    C70     1.403   .     A
C68    C633    1.390   1_554 S
C69    C72     1.412   .     A
C69    C89     1.427   .     A
C70    C71     1.390   .     A
C70    H93     1.084   .     S
C71    C83     1.395   .     A
C71    H103    1.083   .     S
C72    C83     1.392   .     A
C72    H102    1.077   .     S
C73    C137    1.335   .     S
C73    H161    1.088   .     S
C75    C82     1.422   .     A
C75    S122    1.778   .     S
C75    C84     1.397   .     A
C76    C79     1.451   .     S
C76    C266    1.331   .     S
C76    H289    1.088   .     S
C77    C78     1.436   .     S
C77    C454    1.331   1_545 S
C77    H479    1.086   1_545 S
C78    O114    1.277   .     A
C78    O120    1.277   .     A
C79    O115    1.271   .     A
C79    O121    1.270   .     A
C80    C83     1.454   .     S
C80    O107    1.271   .     A
C80    O109    1.276   .     A
C81    O110    1.291   .     A
C81    O108    1.279   .     A
C81    C82     1.481   .     S
C82    C85     1.402   .     A
C84    H105    1.083   .     S
C84    C87     1.399   .     A
C85    H94     1.076   .     S
C85    C86     1.410   .     A
C86    C87     1.416   .     A
C86    C88     1.429   .     A
C87    C658    1.395   .     S
C88    C656    1.428   .     S
C89    C90     1.413   .     A
C89    C655    1.428   1_554 S
C90    H95     1.076   .     S
C90    C91     1.384   .     A
C91    F92     1.359   .     S
C91    C654    1.395   1_554 S
H97    O113    0.990   .     S
H99    C137    1.086   .     S
H100   C454    1.088   1_545 S
H101   C266    1.086   .     S
O106   Zn126   1.929   .     S
O106   Zn123   1.964   .     S
O106   Zn124   1.938   .     S
O106   Zn125   1.937   .     S
O107   Zn124   1.933   .     S
O108   Zn126   1.943   .     S
O109   Zn125   1.933   .     S
O110   Zn123   1.925   .     S
O111   S122    1.503   .     D
O112   S122    1.504   .     D
O113   S122    1.682   .     S
O114   Zn123   1.927   .     S
O115   Zn126   1.933   .     S
O116   Zn124   1.926   .     S
O117   Zn125   1.937   .     S
O118   Zn126   1.931   .     S
O119   Zn123   1.923   .     S
O120   Zn124   1.939   .     S
O121   Zn125   1.929   .     S
C127   O181    1.268   .     A
C127   O179    1.268   .     A
C127   C137    1.437   .     S
C128   C129    1.386   .     A
C128   C151    1.415   .     A
C128   H159    1.076   .     S
C129   H167    1.084   .     S
C129   C698    1.390   .     S
C130   O182    1.280   .     A
C130   C136    1.455   .     S
C130   O180    1.284   .     A
C131   C132    1.420   .     A
C131   C133    1.403   .     A
C131   C696    1.390   1_554 S
C132   C135    1.412   .     A
C132   C152    1.427   .     A
C133   C134    1.390   .     A
C133   H156    1.084   .     S
C134   C146    1.395   .     A
C134   H166    1.083   .     S
C135   C146    1.392   .     A
C135   H165    1.077   .     S
C136   C11     1.335   1_655 S
C136   H35     1.088   1_655 S
C138   C145    1.422   .     A
C138   S185    1.778   .     S
C138   C147    1.397   .     A
C139   C142    1.451   .     S
C139   C329    1.331   .     S
C139   H352    1.088   .     S
C140   C141    1.436   .     S
C140   C517    1.331   1_545 S
C140   H542    1.086   1_545 S
C141   O177    1.277   .     A
C141   O183    1.277   .     A
C142   O178    1.271   .     A
C142   O184    1.270   .     A
C143   C146    1.454   .     S
C143   O170    1.271   .     A
C143   O172    1.276   .     A
C144   O173    1.291   .     A
C144   O171    1.279   .     A
C144   C145    1.481   .     S
C145   C148    1.402   .     A
C147   H168    1.083   .     S
C147   C150    1.399   .     A
C148   H157    1.076   .     S
C148   C149    1.410   .     A
C149   C150    1.416   .     A
C149   C151    1.429   .     A
C150   C721    1.395   .     S
C151   C719    1.428   .     S
C152   C153    1.413   .     A
C152   C718    1.428   1_554 S
C153   H158    1.076   .     S
C153   C154    1.384   .     A
C154   F155    1.359   .     S
C154   C717    1.395   1_554 S
H160   O176    0.990   .     S
H162   C11     1.086   1_655 S
H163   C517    1.088   1_545 S
H164   C329    1.086   .     S
O169   Zn189   1.929   .     S
O169   Zn186   1.964   .     S
O169   Zn187   1.938   .     S
O169   Zn188   1.937   .     S
O170   Zn187   1.933   .     S
O171   Zn189   1.943   .     S
O172   Zn188   1.933   .     S
O173   Zn186   1.925   .     S
O174   S185    1.503   .     D
O175   S185    1.504   .     D
O176   S185    1.682   .     S
O177   Zn186   1.927   .     S
O178   Zn189   1.933   .     S
O179   Zn187   1.926   .     S
O180   Zn188   1.937   .     S
O181   Zn189   1.931   .     S
O182   Zn186   1.923   .     S
O183   Zn187   1.939   .     S
O184   Zn188   1.929   .     S
C190   O244    1.268   .     A
C190   O242    1.268   .     A
C190   C200    1.437   .     S
C191   C192    1.386   .     A
C191   C214    1.415   .     A
C191   H222    1.076   .     S
C192   H230    1.084   .     S
C192   C761    1.390   .     S
C193   O245    1.280   .     A
C193   C199    1.455   .     S
C193   O243    1.284   .     A
C194   C195    1.420   .     A
C194   C196    1.403   .     A
C194   C759    1.390   1_554 S
C195   C198    1.412   .     A
C195   C215    1.427   .     A
C196   C197    1.390   .     A
C196   H219    1.084   .     S
C197   C209    1.395   .     A
C197   H229    1.083   .     S
C198   C209    1.392   .     A
C198   H228    1.077   .     S
C199   C263    1.335   .     S
C199   H287    1.088   .     S
C200   C325    1.335   1_455 S
C200   H351    1.086   1_455 S
C201   C208    1.422   .     A
C201   S248    1.778   .     S
C201   C210    1.397   .     A
C202   C205    1.451   .     S
C202   C392    1.331   .     S
C202   H415    1.088   .     S
C203   C204    1.436   .     S
C204   O240    1.277   .     A
C204   O246    1.277   .     A
C205   O241    1.271   .     A
C205   O247    1.270   .     A
C206   C209    1.454   .     S
C206   O233    1.271   .     A
C206   O235    1.276   .     A
C207   O236    1.291   .     A
C207   O234    1.279   .     A
C207   C208    1.481   .     S
C208   C211    1.402   .     A
C210   H231    1.083   .     S
C210   C213    1.399   .     A
C211   H220    1.076   .     S
C211   C212    1.410   .     A
C212   C213    1.416   .     A
C212   C214    1.429   .     A
C213   C784    1.395   .     S
C214   C782    1.428   .     S
C215   C216    1.413   .     A
C215   C781    1.428   1_554 S
C216   H221    1.076   .     S
C216   C217    1.384   .     A
C217   F218    1.359   .     S
C217   C780    1.395   1_554 S
H223   O239    0.990   .     S
H224   C325    1.088   1_455 S
H225   C263    1.086   .     S
H227   C392    1.086   .     S
O232   Zn252   1.929   .     S
O232   Zn249   1.964   .     S
O232   Zn250   1.938   .     S
O232   Zn251   1.937   .     S
O233   Zn250   1.933   .     S
O234   Zn252   1.943   .     S
O235   Zn251   1.933   .     S
O236   Zn249   1.925   .     S
O237   S248    1.503   .     D
O238   S248    1.504   .     D
O239   S248    1.682   .     S
O240   Zn249   1.927   .     S
O241   Zn252   1.933   .     S
O242   Zn250   1.926   .     S
O243   Zn251   1.937   .     S
O244   Zn252   1.931   .     S
O245   Zn249   1.923   .     S
O246   Zn250   1.939   .     S
O247   Zn251   1.929   .     S
C253   O307    1.268   .     A
C253   O305    1.268   .     A
C253   C263    1.437   .     S
C254   C255    1.386   .     A
C254   C277    1.415   .     A
C254   H285    1.076   .     S
C255   H293    1.084   .     S
C255   C824    1.390   .     S
C256   O308    1.280   .     A
C256   C262    1.455   .     S
C256   O306    1.284   .     A
C257   C258    1.420   .     A
C257   C259    1.403   .     A
C257   C822    1.390   1_554 S
C258   C261    1.412   .     A
C258   C278    1.427   .     A
C259   C260    1.390   .     A
C259   H282    1.084   .     S
C260   C272    1.395   .     A
C260   H292    1.083   .     S
C261   C272    1.392   .     A
C261   H291    1.077   .     S
C262   C326    1.335   .     S
C262   H350    1.088   .     S
C264   C271    1.422   .     A
C264   S311    1.778   .     S
C264   C273    1.397   .     A
C265   C268    1.451   .     S
C265   C455    1.331   .     S
C265   H478    1.088   .     S
C266   C267    1.436   .     S
C267   O303    1.277   .     A
C267   O309    1.277   .     A
C268   O304    1.271   .     A
C268   O310    1.270   .     A
C269   C272    1.454   .     S
C269   O296    1.271   .     A
C269   O298    1.276   .     A
C270   O299    1.291   .     A
C270   O297    1.279   .     A
C270   C271    1.481   .     S
C271   C274    1.402   .     A
C273   H294    1.083   .     S
C273   C276    1.399   .     A
C274   H283    1.076   .     S
C274   C275    1.410   .     A
C275   C276    1.416   .     A
C275   C277    1.429   .     A
C276   C847    1.395   .     S
C277   C845    1.428   .     S
C278   C279    1.413   .     A
C278   C844    1.428   1_554 S
C279   H284    1.076   .     S
C279   C280    1.384   .     A
C280   F281    1.359   .     S
C280   C843    1.395   1_554 S
H286   O302    0.990   .     S
H288   C326    1.086   .     S
H290   C455    1.086   .     S
O295   Zn315   1.929   .     S
O295   Zn312   1.964   .     S
O295   Zn313   1.938   .     S
O295   Zn314   1.937   .     S
O296   Zn313   1.933   .     S
O297   Zn315   1.943   .     S
O298   Zn314   1.933   .     S
O299   Zn312   1.925   .     S
O300   S311    1.503   .     D
O301   S311    1.504   .     D
O302   S311    1.682   .     S
O303   Zn312   1.927   .     S
O304   Zn315   1.933   .     S
O305   Zn313   1.926   .     S
O306   Zn314   1.937   .     S
O307   Zn315   1.931   .     S
O308   Zn312   1.923   .     S
O309   Zn313   1.939   .     S
O310   Zn314   1.929   .     S
C316   O370    1.268   .     A
C316   O368    1.268   .     A
C316   C326    1.437   .     S
C317   C318    1.386   .     A
C317   C340    1.415   .     A
C317   H348    1.076   .     S
C318   H356    1.084   .     S
C318   C887    1.390   .     S
C319   O371    1.280   .     A
C319   C325    1.455   .     S
C319   O369    1.284   .     A
C320   C321    1.420   .     A
C320   C322    1.403   .     A
C320   C885    1.390   1_554 S
C321   C324    1.412   .     A
C321   C341    1.427   .     A
C322   C323    1.390   .     A
C322   H345    1.084   .     S
C323   C335    1.395   .     A
C323   H355    1.083   .     S
C324   C335    1.392   .     A
C324   H354    1.077   .     S
C325   C200    1.335   1_655 S
C325   H224    1.088   1_655 S
C327   C334    1.422   .     A
C327   S374    1.778   .     S
C327   C336    1.397   .     A
C328   C331    1.451   .     S
C328   C518    1.331   .     S
C328   H541    1.088   .     S
C329   C330    1.436   .     S
C330   O366    1.277   .     A
C330   O372    1.277   .     A
C331   O367    1.271   .     A
C331   O373    1.270   .     A
C332   C335    1.454   .     S
C332   O359    1.271   .     A
C332   O361    1.276   .     A
C333   O362    1.291   .     A
C333   O360    1.279   .     A
C333   C334    1.481   .     S
C334   C337    1.402   .     A
C336   H357    1.083   .     S
C336   C339    1.399   .     A
C337   H346    1.076   .     S
C337   C338    1.410   .     A
C338   C339    1.416   .     A
C338   C340    1.429   .     A
C339   C910    1.395   .     S
C340   C908    1.428   .     S
C341   C342    1.413   .     A
C341   C907    1.428   1_554 S
C342   H347    1.076   .     S
C342   C343    1.384   .     A
C343   F344    1.359   .     S
C343   C906    1.395   1_554 S
H349   O365    0.990   .     S
H351   C200    1.086   1_655 S
H353   C518    1.086   .     S
O358   Zn378   1.929   .     S
O358   Zn375   1.964   .     S
O358   Zn376   1.938   .     S
O358   Zn377   1.937   .     S
O359   Zn376   1.933   .     S
O360   Zn378   1.943   .     S
O361   Zn377   1.933   .     S
O362   Zn375   1.925   .     S
O363   S374    1.503   .     D
O364   S374    1.504   .     D
O365   S374    1.682   .     S
O366   Zn375   1.927   .     S
O367   Zn378   1.933   .     S
O368   Zn376   1.926   .     S
O369   Zn377   1.937   .     S
O370   Zn378   1.931   .     S
O371   Zn375   1.923   .     S
O372   Zn376   1.939   .     S
O373   Zn377   1.929   .     S
C379   O433    1.268   .     A
C379   O431    1.268   .     A
C379   C389    1.437   .     S
C380   C381    1.386   .     A
C380   C403    1.415   .     A
C380   H411    1.076   .     S
C381   H419    1.084   .     S
C381   C950    1.390   .     S
C382   O434    1.280   .     A
C382   C388    1.455   .     S
C382   O432    1.284   .     A
C383   C384    1.420   .     A
C383   C385    1.403   .     A
C383   C948    1.390   1_554 S
C384   C387    1.412   .     A
C384   C404    1.427   .     A
C385   C386    1.390   .     A
C385   H408    1.084   .     S
C386   C398    1.395   .     A
C386   H418    1.083   .     S
C387   C398    1.392   .     A
C387   H417    1.077   .     S
C388   C452    1.335   .     S
C388   H476    1.088   .     S
C389   C514    1.335   1_455 S
C389   H540    1.086   1_455 S
C390   C397    1.422   .     A
C390   S437    1.778   .     S
C390   C399    1.397   .     A
C391   C394    1.451   .     S
C391   C14     1.331   1_565 S
C391   H37     1.088   1_565 S
C392   C393    1.436   .     S
C393   O429    1.277   .     A
C393   O435    1.277   .     A
C394   O430    1.271   .     A
C394   O436    1.270   .     A
C395   C398    1.454   .     S
C395   O422    1.271   .     A
C395   O424    1.276   .     A
C396   O425    1.291   .     A
C396   O423    1.279   .     A
C396   C397    1.481   .     S
C397   C400    1.402   .     A
C399   H420    1.083   .     S
C399   C402    1.399   .     A
C400   H409    1.076   .     S
C400   C401    1.410   .     A
C401   C402    1.416   .     A
C401   C403    1.429   .     A
C402   C973    1.395   .     S
C403   C971    1.428   .     S
C404   C405    1.413   .     A
C404   C970    1.428   1_554 S
C405   H410    1.076   .     S
C405   C406    1.384   .     A
C406   F407    1.359   .     S
C406   C969    1.395   1_554 S
H412   O428    0.990   .     S
H413   C514    1.088   1_455 S
H414   C452    1.086   .     S
H416   C14     1.086   1_565 S
O421   Zn441   1.929   .     S
O421   Zn438   1.964   .     S
O421   Zn439   1.938   .     S
O421   Zn440   1.937   .     S
O422   Zn439   1.933   .     S
O423   Zn441   1.943   .     S
O424   Zn440   1.933   .     S
O425   Zn438   1.925   .     S
O426   S437    1.503   .     D
O427   S437    1.504   .     D
O428   S437    1.682   .     S
O429   Zn438   1.927   .     S
O430   Zn441   1.933   .     S
O431   Zn439   1.926   .     S
O432   Zn440   1.937   .     S
O433   Zn441   1.931   .     S
O434   Zn438   1.923   .     S
O435   Zn439   1.939   .     S
O436   Zn440   1.929   .     S
C442   O496    1.268   .     A
C442   O494    1.268   .     A
C442   C452    1.437   .     S
C443   C444    1.386   .     A
C443   C466    1.415   .     A
C443   H474    1.076   .     S
C444   H482    1.084   .     S
C444   C1013   1.390   .     S
C445   O497    1.280   .     A
C445   C451    1.455   .     S
C445   O495    1.284   .     A
C446   C447    1.420   .     A
C446   C448    1.403   .     A
C446   C1011   1.390   1_554 S
C447   C450    1.412   .     A
C447   C467    1.427   .     A
C448   C449    1.390   .     A
C448   H471    1.084   .     S
C449   C461    1.395   .     A
C449   H481    1.083   .     S
C450   C461    1.392   .     A
C450   H480    1.077   .     S
C451   C515    1.335   .     S
C451   H539    1.088   .     S
C453   C460    1.422   .     A
C453   S500    1.778   .     S
C453   C462    1.397   .     A
C454   C457    1.451   .     S
C454   C77     1.331   1_565 S
C454   H100    1.088   1_565 S
C455   C456    1.436   .     S
C456   O492    1.277   .     A
C456   O498    1.277   .     A
C457   O493    1.271   .     A
C457   O499    1.270   .     A
C458   C461    1.454   .     S
C458   O485    1.271   .     A
C458   O487    1.276   .     A
C459   O488    1.291   .     A
C459   O486    1.279   .     A
C459   C460    1.481   .     S
C460   C463    1.402   .     A
C462   H483    1.083   .     S
C462   C465    1.399   .     A
C463   H472    1.076   .     S
C463   C464    1.410   .     A
C464   C465    1.416   .     A
C464   C466    1.429   .     A
C465   C1036   1.395   .     S
C466   C1034   1.428   .     S
C467   C468    1.413   .     A
C467   C1033   1.428   1_554 S
C468   H473    1.076   .     S
C468   C469    1.384   .     A
C469   F470    1.359   .     S
C469   C1032   1.395   1_554 S
H475   O491    0.990   .     S
H477   C515    1.086   .     S
H479   C77     1.086   1_565 S
O484   Zn504   1.929   .     S
O484   Zn501   1.964   .     S
O484   Zn502   1.938   .     S
O484   Zn503   1.937   .     S
O485   Zn502   1.933   .     S
O486   Zn504   1.943   .     S
O487   Zn503   1.933   .     S
O488   Zn501   1.925   .     S
O489   S500    1.503   .     D
O490   S500    1.504   .     D
O491   S500    1.682   .     S
O492   Zn501   1.927   .     S
O493   Zn504   1.933   .     S
O494   Zn502   1.926   .     S
O495   Zn503   1.937   .     S
O496   Zn504   1.931   .     S
O497   Zn501   1.923   .     S
O498   Zn502   1.939   .     S
O499   Zn503   1.929   .     S
C505   O559    1.268   .     A
C505   O557    1.268   .     A
C505   C515    1.437   .     S
C506   C507    1.386   .     A
C506   C529    1.415   .     A
C506   H537    1.076   .     S
C507   H545    1.084   .     S
C507   C1076   1.390   .     S
C508   O560    1.280   .     A
C508   C514    1.455   .     S
C508   O558    1.284   .     A
C509   C510    1.420   .     A
C509   C511    1.403   .     A
C509   C1074   1.390   1_554 S
C510   C513    1.412   .     A
C510   C530    1.427   .     A
C511   C512    1.390   .     A
C511   H534    1.084   .     S
C512   C524    1.395   .     A
C512   H544    1.083   .     S
C513   C524    1.392   .     A
C513   H543    1.077   .     S
C514   C389    1.335   1_655 S
C514   H413    1.088   1_655 S
C516   C523    1.422   .     A
C516   S563    1.778   .     S
C516   C525    1.397   .     A
C517   C520    1.451   .     S
C517   C140    1.331   1_565 S
C517   H163    1.088   1_565 S
C518   C519    1.436   .     S
C519   O555    1.277   .     A
C519   O561    1.277   .     A
C520   O556    1.271   .     A
C520   O562    1.270   .     A
C521   C524    1.454   .     S
C521   O548    1.271   .     A
C521   O550    1.276   .     A
C522   O551    1.291   .     A
C522   O549    1.279   .     A
C522   C523    1.481   .     S
C523   C526    1.402   .     A
C525   H546    1.083   .     S
C525   C528    1.399   .     A
C526   H535    1.076   .     S
C526   C527    1.410   .     A
C527   C528    1.416   .     A
C527   C529    1.429   .     A
C528   C1099   1.395   .     S
C529   C1097   1.428   .     S
C530   C531    1.413   .     A
C530   C1096   1.428   1_554 S
C531   H536    1.076   .     S
C531   C532    1.384   .     A
C532   F533    1.359   .     S
C532   C1095   1.395   1_554 S
H538   O554    0.990   .     S
H540   C389    1.086   1_655 S
H542   C140    1.086   1_565 S
O547   Zn567   1.929   .     S
O547   Zn564   1.964   .     S
O547   Zn565   1.938   .     S
O547   Zn566   1.937   .     S
O548   Zn565   1.933   .     S
O549   Zn567   1.943   .     S
O550   Zn566   1.933   .     S
O551   Zn564   1.925   .     S
O552   S563    1.503   .     D
O553   S563    1.504   .     D
O554   S563    1.682   .     S
O555   Zn564   1.927   .     S
O556   Zn567   1.933   .     S
O557   Zn565   1.926   .     S
O558   Zn566   1.937   .     S
O559   Zn567   1.931   .     S
O560   Zn564   1.923   .     S
O561   Zn565   1.939   .     S
O562   Zn566   1.929   .     S
C568   O622    1.268   .     A
C568   O620    1.268   .     A
C568   C578    1.437   .     S
C569   C570    1.386   .     A
C569   C592    1.415   .     A
C569   H600    1.076   .     S
C570   H608    1.084   .     S
C570   C5      1.390   1_556 S
C571   O623    1.280   .     A
C571   C577    1.455   .     S
C571   O621    1.284   .     A
C572   C573    1.420   .     A
C572   C574    1.403   .     A
C573   C576    1.412   .     A
C573   C593    1.427   .     A
C574   C575    1.390   .     A
C574   H597    1.084   .     S
C575   C587    1.395   .     A
C575   H607    1.083   .     S
C576   C587    1.392   .     A
C576   H606    1.077   .     S
C577   C641    1.335   .     S
C577   H665    1.088   .     S
C578   C703    1.335   1_455 S
C578   H729    1.086   1_455 S
C579   C586    1.422   .     A
C579   S626    1.778   .     S
C579   C588    1.397   .     A
C580   C583    1.451   .     S
C580   C770    1.331   .     S
C580   H793    1.088   .     S
C581   C582    1.436   .     S
C581   C958    1.331   1_545 S
C581   H983    1.086   1_545 S
C582   O618    1.277   .     A
C582   O624    1.277   .     A
C583   O619    1.271   .     A
C583   O625    1.270   .     A
C584   C587    1.454   .     S
C584   O611    1.271   .     A
C584   O613    1.276   .     A
C585   O614    1.291   .     A
C585   O612    1.279   .     A
C585   C586    1.481   .     S
C586   C589    1.402   .     A
C588   H609    1.083   .     S
C588   C591    1.399   .     A
C589   H598    1.076   .     S
C589   C590    1.410   .     A
C590   C591    1.416   .     A
C590   C592    1.429   .     A
C591   C28     1.395   1_556 S
C592   C26     1.428   1_556 S
C593   C594    1.413   .     A
C594   H599    1.076   .     S
C594   C595    1.384   .     A
C595   F596    1.359   .     S
H601   O617    0.990   .     S
H602   C703    1.088   1_455 S
H603   C641    1.086   .     S
H604   C958    1.088   1_545 S
H605   C770    1.086   .     S
O610   Zn630   1.929   .     S
O610   Zn627   1.964   .     S
O610   Zn628   1.938   .     S
O610   Zn629   1.937   .     S
O611   Zn628   1.933   .     S
O612   Zn630   1.943   .     S
O613   Zn629   1.933   .     S
O614   Zn627   1.925   .     S
O615   S626    1.503   .     D
O616   S626    1.504   .     D
O617   S626    1.682   .     S
O618   Zn627   1.927   .     S
O619   Zn630   1.933   .     S
O620   Zn628   1.926   .     S
O621   Zn629   1.937   .     S
O622   Zn630   1.931   .     S
O623   Zn627   1.923   .     S
O624   Zn628   1.939   .     S
O625   Zn629   1.929   .     S
C631   O685    1.268   .     A
C631   O683    1.268   .     A
C631   C641    1.437   .     S
C632   C633    1.386   .     A
C632   C655    1.415   .     A
C632   H663    1.076   .     S
C633   H671    1.084   .     S
C633   C68     1.390   1_556 S
C634   O686    1.280   .     A
C634   C640    1.455   .     S
C634   O684    1.284   .     A
C635   C636    1.420   .     A
C635   C637    1.403   .     A
C636   C639    1.412   .     A
C636   C656    1.427   .     A
C637   C638    1.390   .     A
C637   H660    1.084   .     S
C638   C650    1.395   .     A
C638   H670    1.083   .     S
C639   C650    1.392   .     A
C639   H669    1.077   .     S
C640   C704    1.335   .     S
C640   H728    1.088   .     S
C642   C649    1.422   .     A
C642   S689    1.778   .     S
C642   C651    1.397   .     A
C643   C646    1.451   .     S
C643   C833    1.331   .     S
C643   H856    1.088   .     S
C644   C645    1.436   .     S
C644   C1021   1.331   1_545 S
C644   H1046   1.086   1_545 S
C645   O681    1.277   .     A
C645   O687    1.277   .     A
C646   O682    1.271   .     A
C646   O688    1.270   .     A
C647   C650    1.454   .     S
C647   O674    1.271   .     A
C647   O676    1.276   .     A
C648   O677    1.291   .     A
C648   O675    1.279   .     A
C648   C649    1.481   .     S
C649   C652    1.402   .     A
C651   H672    1.083   .     S
C651   C654    1.399   .     A
C652   H661    1.076   .     S
C652   C653    1.410   .     A
C653   C654    1.416   .     A
C653   C655    1.429   .     A
C654   C91     1.395   1_556 S
C655   C89     1.428   1_556 S
C656   C657    1.413   .     A
C657   H662    1.076   .     S
C657   C658    1.384   .     A
C658   F659    1.359   .     S
H664   O680    0.990   .     S
H666   C704    1.086   .     S
H667   C1021   1.088   1_545 S
H668   C833    1.086   .     S
O673   Zn693   1.929   .     S
O673   Zn690   1.964   .     S
O673   Zn691   1.938   .     S
O673   Zn692   1.937   .     S
O674   Zn691   1.933   .     S
O675   Zn693   1.943   .     S
O676   Zn692   1.933   .     S
O677   Zn690   1.925   .     S
O678   S689    1.503   .     D
O679   S689    1.504   .     D
O680   S689    1.682   .     S
O681   Zn690   1.927   .     S
O682   Zn693   1.933   .     S
O683   Zn691   1.926   .     S
O684   Zn692   1.937   .     S
O685   Zn693   1.931   .     S
O686   Zn690   1.923   .     S
O687   Zn691   1.939   .     S
O688   Zn692   1.929   .     S
C694   O748    1.268   .     A
C694   O746    1.268   .     A
C694   C704    1.437   .     S
C695   C696    1.386   .     A
C695   C718    1.415   .     A
C695   H726    1.076   .     S
C696   H734    1.084   .     S
C696   C131    1.390   1_556 S
C697   O749    1.280   .     A
C697   C703    1.455   .     S
C697   O747    1.284   .     A
C698   C699    1.420   .     A
C698   C700    1.403   .     A
C699   C702    1.412   .     A
C699   C719    1.427   .     A
C700   C701    1.390   .     A
C700   H723    1.084   .     S
C701   C713    1.395   .     A
C701   H733    1.083   .     S
C702   C713    1.392   .     A
C702   H732    1.077   .     S
C703   C578    1.335   1_655 S
C703   H602    1.088   1_655 S
C705   C712    1.422   .     A
C705   S752    1.778   .     S
C705   C714    1.397   .     A
C706   C709    1.451   .     S
C706   C896    1.331   .     S
C706   H919    1.088   .     S
C707   C708    1.436   .     S
C707   C1084   1.331   1_545 S
C707   H1109   1.086   1_545 S
C708   O744    1.277   .     A
C708   O750    1.277   .     A
C709   O745    1.271   .     A
C709   O751    1.270   .     A
C710   C713    1.454   .     S
C710   O737    1.271   .     A
C710   O739    1.276   .     A
C711   O740    1.291   .     A
C711   O738    1.279   .     A
C711   C712    1.481   .     S
C712   C715    1.402   .     A
C714   H735    1.083   .     S
C714   C717    1.399   .     A
C715   H724    1.076   .     S
C715   C716    1.410   .     A
C716   C717    1.416   .     A
C716   C718    1.429   .     A
C717   C154    1.395   1_556 S
C718   C152    1.428   1_556 S
C719   C720    1.413   .     A
C720   H725    1.076   .     S
C720   C721    1.384   .     A
C721   F722    1.359   .     S
H727   O743    0.990   .     S
H729   C578    1.086   1_655 S
H730   C1084   1.088   1_545 S
H731   C896    1.086   .     S
O736   Zn756   1.929   .     S
O736   Zn753   1.964   .     S
O736   Zn754   1.938   .     S
O736   Zn755   1.937   .     S
O737   Zn754   1.933   .     S
O738   Zn756   1.943   .     S
O739   Zn755   1.933   .     S
O740   Zn753   1.925   .     S
O741   S752    1.503   .     D
O742   S752    1.504   .     D
O743   S752    1.682   .     S
O744   Zn753   1.927   .     S
O745   Zn756   1.933   .     S
O746   Zn754   1.926   .     S
O747   Zn755   1.937   .     S
O748   Zn756   1.931   .     S
O749   Zn753   1.923   .     S
O750   Zn754   1.939   .     S
O751   Zn755   1.929   .     S
C757   O811    1.268   .     A
C757   O809    1.268   .     A
C757   C767    1.437   .     S
C758   C759    1.386   .     A
C758   C781    1.415   .     A
C758   H789    1.076   .     S
C759   H797    1.084   .     S
C759   C194    1.390   1_556 S
C760   O812    1.280   .     A
C760   C766    1.455   .     S
C760   O810    1.284   .     A
C761   C762    1.420   .     A
C761   C763    1.403   .     A
C762   C765    1.412   .     A
C762   C782    1.427   .     A
C763   C764    1.390   .     A
C763   H786    1.084   .     S
C764   C776    1.395   .     A
C764   H796    1.083   .     S
C765   C776    1.392   .     A
C765   H795    1.077   .     S
C766   C830    1.335   .     S
C766   H854    1.088   .     S
C767   C892    1.335   1_455 S
C767   H918    1.086   1_455 S
C768   C775    1.422   .     A
C768   S815    1.778   .     S
C768   C777    1.397   .     A
C769   C772    1.451   .     S
C769   C959    1.331   .     S
C769   H982    1.088   .     S
C770   C771    1.436   .     S
C771   O807    1.277   .     A
C771   O813    1.277   .     A
C772   O808    1.271   .     A
C772   O814    1.270   .     A
C773   C776    1.454   .     S
C773   O800    1.271   .     A
C773   O802    1.276   .     A
C774   O803    1.291   .     A
C774   O801    1.279   .     A
C774   C775    1.481   .     S
C775   C778    1.402   .     A
C777   H798    1.083   .     S
C777   C780    1.399   .     A
C778   H787    1.076   .     S
C778   C779    1.410   .     A
C779   C780    1.416   .     A
C779   C781    1.429   .     A
C780   C217    1.395   1_556 S
C781   C215    1.428   1_556 S
C782   C783    1.413   .     A
C783   H788    1.076   .     S
C783   C784    1.384   .     A
C784   F785    1.359   .     S
H790   O806    0.990   .     S
H791   C892    1.088   1_455 S
H792   C830    1.086   .     S
H794   C959    1.086   .     S
O799   Zn819   1.929   .     S
O799   Zn816   1.964   .     S
O799   Zn817   1.938   .     S
O799   Zn818   1.937   .     S
O800   Zn817   1.933   .     S
O801   Zn819   1.943   .     S
O802   Zn818   1.933   .     S
O803   Zn816   1.925   .     S
O804   S815    1.503   .     D
O805   S815    1.504   .     D
O806   S815    1.682   .     S
O807   Zn816   1.927   .     S
O808   Zn819   1.933   .     S
O809   Zn817   1.926   .     S
O810   Zn818   1.937   .     S
O811   Zn819   1.931   .     S
O812   Zn816   1.923   .     S
O813   Zn817   1.939   .     S
O814   Zn818   1.929   .     S
C820   O874    1.268   .     A
C820   O872    1.268   .     A
C820   C830    1.437   .     S
C821   C822    1.386   .     A
C821   C844    1.415   .     A
C821   H852    1.076   .     S
C822   H860    1.084   .     S
C822   C257    1.390   1_556 S
C823   O875    1.280   .     A
C823   C829    1.455   .     S
C823   O873    1.284   .     A
C824   C825    1.420   .     A
C824   C826    1.403   .     A
C825   C828    1.412   .     A
C825   C845    1.427   .     A
C826   C827    1.390   .     A
C826   H849    1.084   .     S
C827   C839    1.395   .     A
C827   H859    1.083   .     S
C828   C839    1.392   .     A
C828   H858    1.077   .     S
C829   C893    1.335   .     S
C829   H917    1.088   .     S
C831   C838    1.422   .     A
C831   S878    1.778   .     S
C831   C840    1.397   .     A
C832   C835    1.451   .     S
C832   C1022   1.331   .     S
C832   H1045   1.088   .     S
C833   C834    1.436   .     S
C834   O870    1.277   .     A
C834   O876    1.277   .     A
C835   O871    1.271   .     A
C835   O877    1.270   .     A
C836   C839    1.454   .     S
C836   O863    1.271   .     A
C836   O865    1.276   .     A
C837   O866    1.291   .     A
C837   O864    1.279   .     A
C837   C838    1.481   .     S
C838   C841    1.402   .     A
C840   H861    1.083   .     S
C840   C843    1.399   .     A
C841   H850    1.076   .     S
C841   C842    1.410   .     A
C842   C843    1.416   .     A
C842   C844    1.429   .     A
C843   C280    1.395   1_556 S
C844   C278    1.428   1_556 S
C845   C846    1.413   .     A
C846   H851    1.076   .     S
C846   C847    1.384   .     A
C847   F848    1.359   .     S
H853   O869    0.990   .     S
H855   C893    1.086   .     S
H857   C1022   1.086   .     S
O862   Zn882   1.929   .     S
O862   Zn879   1.964   .     S
O862   Zn880   1.938   .     S
O862   Zn881   1.937   .     S
O863   Zn880   1.933   .     S
O864   Zn882   1.943   .     S
O865   Zn881   1.933   .     S
O866   Zn879   1.925   .     S
O867   S878    1.503   .     D
O868   S878    1.504   .     D
O869   S878    1.682   .     S
O870   Zn879   1.927   .     S
O871   Zn882   1.933   .     S
O872   Zn880   1.926   .     S
O873   Zn881   1.937   .     S
O874   Zn882   1.931   .     S
O875   Zn879   1.923   .     S
O876   Zn880   1.939   .     S
O877   Zn881   1.929   .     S
C883   O937    1.268   .     A
C883   O935    1.268   .     A
C883   C893    1.437   .     S
C884   C885    1.386   .     A
C884   C907    1.415   .     A
C884   H915    1.076   .     S
C885   H923    1.084   .     S
C885   C320    1.390   1_556 S
C886   O938    1.280   .     A
C886   C892    1.455   .     S
C886   O936    1.284   .     A
C887   C888    1.420   .     A
C887   C889    1.403   .     A
C888   C891    1.412   .     A
C888   C908    1.427   .     A
C889   C890    1.390   .     A
C889   H912    1.084   .     S
C890   C902    1.395   .     A
C890   H922    1.083   .     S
C891   C902    1.392   .     A
C891   H921    1.077   .     S
C892   C767    1.335   1_655 S
C892   H791    1.088   1_655 S
C894   C901    1.422   .     A
C894   S941    1.778   .     S
C894   C903    1.397   .     A
C895   C898    1.451   .     S
C895   C1085   1.331   .     S
C895   H1108   1.088   .     S
C896   C897    1.436   .     S
C897   O933    1.277   .     A
C897   O939    1.277   .     A
C898   O934    1.271   .     A
C898   O940    1.270   .     A
C899   C902    1.454   .     S
C899   O926    1.271   .     A
C899   O928    1.276   .     A
C900   O929    1.291   .     A
C900   O927    1.279   .     A
C900   C901    1.481   .     S
C901   C904    1.402   .     A
C903   H924    1.083   .     S
C903   C906    1.399   .     A
C904   H913    1.076   .     S
C904   C905    1.410   .     A
C905   C906    1.416   .     A
C905   C907    1.429   .     A
C906   C343    1.395   1_556 S
C907   C341    1.428   1_556 S
C908   C909    1.413   .     A
C909   H914    1.076   .     S
C909   C910    1.384   .     A
C910   F911    1.359   .     S
H916   O932    0.990   .     S
H918   C767    1.086   1_655 S
H920   C1085   1.086   .     S
O925   Zn945   1.929   .     S
O925   Zn942   1.964   .     S
O925   Zn943   1.938   .     S
O925   Zn944   1.937   .     S
O926   Zn943   1.933   .     S
O927   Zn945   1.943   .     S
O928   Zn944   1.933   .     S
O929   Zn942   1.925   .     S
O930   S941    1.503   .     D
O931   S941    1.504   .     D
O932   S941    1.682   .     S
O933   Zn942   1.927   .     S
O934   Zn945   1.933   .     S
O935   Zn943   1.926   .     S
O936   Zn944   1.937   .     S
O937   Zn945   1.931   .     S
O938   Zn942   1.923   .     S
O939   Zn943   1.939   .     S
O940   Zn944   1.929   .     S
C946   O1000   1.268   .     A
C946   O998    1.268   .     A
C946   C956    1.437   .     S
C947   C948    1.386   .     A
C947   C970    1.415   .     A
C947   H978    1.076   .     S
C948   H986    1.084   .     S
C948   C383    1.390   1_556 S
C949   O1001   1.280   .     A
C949   C955    1.455   .     S
C949   O999    1.284   .     A
C950   C951    1.420   .     A
C950   C952    1.403   .     A
C951   C954    1.412   .     A
C951   C971    1.427   .     A
C952   C953    1.390   .     A
C952   H975    1.084   .     S
C953   C965    1.395   .     A
C953   H985    1.083   .     S
C954   C965    1.392   .     A
C954   H984    1.077   .     S
C955   C1019   1.335   .     S
C955   H1043   1.088   .     S
C956   C1081   1.335   1_455 S
C956   H1107   1.086   1_455 S
C957   C964    1.422   .     A
C957   S1004   1.778   .     S
C957   C966    1.397   .     A
C958   C961    1.451   .     S
C958   C581    1.331   1_565 S
C958   H604    1.088   1_565 S
C959   C960    1.436   .     S
C960   O996    1.277   .     A
C960   O1002   1.277   .     A
C961   O997    1.271   .     A
C961   O1003   1.270   .     A
C962   C965    1.454   .     S
C962   O989    1.271   .     A
C962   O991    1.276   .     A
C963   O992    1.291   .     A
C963   O990    1.279   .     A
C963   C964    1.481   .     S
C964   C967    1.402   .     A
C966   H987    1.083   .     S
C966   C969    1.399   .     A
C967   H976    1.076   .     S
C967   C968    1.410   .     A
C968   C969    1.416   .     A
C968   C970    1.429   .     A
C969   C406    1.395   1_556 S
C970   C404    1.428   1_556 S
C971   C972    1.413   .     A
C972   H977    1.076   .     S
C972   C973    1.384   .     A
C973   F974    1.359   .     S
H979   O995    0.990   .     S
H980   C1081   1.088   1_455 S
H981   C1019   1.086   .     S
H983   C581    1.086   1_565 S
O988   Zn1008  1.929   .     S
O988   Zn1005  1.964   .     S
O988   Zn1006  1.938   .     S
O988   Zn1007  1.937   .     S
O989   Zn1006  1.933   .     S
O990   Zn1008  1.943   .     S
O991   Zn1007  1.933   .     S
O992   Zn1005  1.925   .     S
O993   S1004   1.503   .     D
O994   S1004   1.504   .     D
O995   S1004   1.682   .     S
O996   Zn1005  1.927   .     S
O997   Zn1008  1.933   .     S
O998   Zn1006  1.926   .     S
O999   Zn1007  1.937   .     S
O1000  Zn1008  1.931   .     S
O1001  Zn1005  1.923   .     S
O1002  Zn1006  1.939   .     S
O1003  Zn1007  1.929   .     S
C1009  O1063   1.268   .     A
C1009  O1061   1.268   .     A
C1009  C1019   1.437   .     S
C1010  C1011   1.386   .     A
C1010  C1033   1.415   .     A
C1010  H1041   1.076   .     S
C1011  H1049   1.084   .     S
C1011  C446    1.390   1_556 S
C1012  O1064   1.280   .     A
C1012  C1018   1.455   .     S
C1012  O1062   1.284   .     A
C1013  C1014   1.420   .     A
C1013  C1015   1.403   .     A
C1014  C1017   1.412   .     A
C1014  C1034   1.427   .     A
C1015  C1016   1.390   .     A
C1015  H1038   1.084   .     S
C1016  C1028   1.395   .     A
C1016  H1048   1.083   .     S
C1017  C1028   1.392   .     A
C1017  H1047   1.077   .     S
C1018  C1082   1.335   .     S
C1018  H1106   1.088   .     S
C1020  C1027   1.422   .     A
C1020  S1067   1.778   .     S
C1020  C1029   1.397   .     A
C1021  C1024   1.451   .     S
C1021  C644    1.331   1_565 S
C1021  H667    1.088   1_565 S
C1022  C1023   1.436   .     S
C1023  O1059   1.277   .     A
C1023  O1065   1.277   .     A
C1024  O1060   1.271   .     A
C1024  O1066   1.270   .     A
C1025  C1028   1.454   .     S
C1025  O1052   1.271   .     A
C1025  O1054   1.276   .     A
C1026  O1055   1.291   .     A
C1026  O1053   1.279   .     A
C1026  C1027   1.481   .     S
C1027  C1030   1.402   .     A
C1029  H1050   1.083   .     S
C1029  C1032   1.399   .     A
C1030  H1039   1.076   .     S
C1030  C1031   1.410   .     A
C1031  C1032   1.416   .     A
C1031  C1033   1.429   .     A
C1032  C469    1.395   1_556 S
C1033  C467    1.428   1_556 S
C1034  C1035   1.413   .     A
C1035  H1040   1.076   .     S
C1035  C1036   1.384   .     A
C1036  F1037   1.359   .     S
H1042  O1058   0.990   .     S
H1044  C1082   1.086   .     S
H1046  C644    1.086   1_565 S
O1051  Zn1071  1.929   .     S
O1051  Zn1068  1.964   .     S
O1051  Zn1069  1.938   .     S
O1051  Zn1070  1.937   .     S
O1052  Zn1069  1.933   .     S
O1053  Zn1071  1.943   .     S
O1054  Zn1070  1.933   .     S
O1055  Zn1068  1.925   .     S
O1056  S1067   1.503   .     D
O1057  S1067   1.504   .     D
O1058  S1067   1.682   .     S
O1059  Zn1068  1.927   .     S
O1060  Zn1071  1.933   .     S
O1061  Zn1069  1.926   .     S
O1062  Zn1070  1.937   .     S
O1063  Zn1071  1.931   .     S
O1064  Zn1068  1.923   .     S
O1065  Zn1069  1.939   .     S
O1066  Zn1070  1.929   .     S
C1072  O1126   1.268   .     A
C1072  O1124   1.268   .     A
C1072  C1082   1.437   .     S
C1073  C1074   1.386   .     A
C1073  C1096   1.415   .     A
C1073  H1104   1.076   .     S
C1074  H1112   1.084   .     S
C1074  C509    1.390   1_556 S
C1075  O1127   1.280   .     A
C1075  C1081   1.455   .     S
C1075  O1125   1.284   .     A
C1076  C1077   1.420   .     A
C1076  C1078   1.403   .     A
C1077  C1080   1.412   .     A
C1077  C1097   1.427   .     A
C1078  C1079   1.390   .     A
C1078  H1101   1.084   .     S
C1079  C1091   1.395   .     A
C1079  H1111   1.083   .     S
C1080  C1091   1.392   .     A
C1080  H1110   1.077   .     S
C1081  C956    1.335   1_655 S
C1081  H980    1.088   1_655 S
C1083  C1090   1.422   .     A
C1083  S1130   1.778   .     S
C1083  C1092   1.397   .     A
C1084  C1087   1.451   .     S
C1084  C707    1.331   1_565 S
C1084  H730    1.088   1_565 S
C1085  C1086   1.436   .     S
C1086  O1122   1.277   .     A
C1086  O1128   1.277   .     A
C1087  O1123   1.271   .     A
C1087  O1129   1.270   .     A
C1088  C1091   1.454   .     S
C1088  O1115   1.271   .     A
C1088  O1117   1.276   .     A
C1089  O1118   1.291   .     A
C1089  O1116   1.279   .     A
C1089  C1090   1.481   .     S
C1090  C1093   1.402   .     A
C1092  H1113   1.083   .     S
C1092  C1095   1.399   .     A
C1093  H1102   1.076   .     S
C1093  C1094   1.410   .     A
C1094  C1095   1.416   .     A
C1094  C1096   1.429   .     A
C1095  C532    1.395   1_556 S
C1096  C530    1.428   1_556 S
C1097  C1098   1.413   .     A
C1098  H1103   1.076   .     S
C1098  C1099   1.384   .     A
C1099  F1100   1.359   .     S
H1105  O1121   0.990   .     S
H1107  C956    1.086   1_655 S
H1109  C707    1.086   1_565 S
O1114  Zn1134  1.929   .     S
O1114  Zn1131  1.964   .     S
O1114  Zn1132  1.938   .     S
O1114  Zn1133  1.937   .     S
O1115  Zn1132  1.933   .     S
O1116  Zn1134  1.943   .     S
O1117  Zn1133  1.933   .     S
O1118  Zn1131  1.925   .     S
O1119  S1130   1.503   .     D
O1120  S1130   1.504   .     D
O1121  S1130   1.682   .     S
O1122  Zn1131  1.927   .     S
O1123  Zn1134  1.933   .     S
O1124  Zn1132  1.926   .     S
O1125  Zn1133  1.937   .     S
O1126  Zn1134  1.931   .     S
O1127  Zn1131  1.923   .     S
O1128  Zn1132  1.939   .     S
O1129  Zn1133  1.929   .     S
