data_str_m1_o10_o18_pcu_sym.231
_audit_creation_date              2020-01-03
_audit_creation_method            'Materials Studio'
_symmetry_space_group_name_H-M    'P1'
_symmetry_Int_Tables_number       1
_symmetry_cell_setting            triclinic
loop_
_symmetry_equiv_pos_as_xyz
  x,y,z
_cell_length_a                    32.5471
_cell_length_b                    32.5632
_cell_length_c                    35.6585
_cell_angle_alpha                 97.9122
_cell_angle_beta                  73.0229
_cell_angle_gamma                 98.7951
loop_
_atom_site_label
_atom_site_type_symbol
_atom_site_fract_x
_atom_site_fract_y
_atom_site_fract_z
_atom_site_U_iso_or_equiv
_atom_site_adp_type
_atom_site_occupancy
C1     C     0.05253   0.15990   0.25867   0.00000  Uiso   1.00
C2     C     0.20152   0.13119   0.45837   0.00000  Uiso   1.00
C3     C     0.22768   0.11738   0.47750   0.00000  Uiso   1.00
C4     C     0.28112   0.17359   0.24116   0.00000  Uiso   1.00
C5     C     0.21777   0.12337   0.01886   0.00000  Uiso   1.00
C6     C     0.17873   0.13981   0.04089   0.00000  Uiso   1.00
C7     C     0.24604   0.11327   0.03864   0.00000  Uiso   1.00
C8     C     0.23690   0.12021   0.07968   0.00000  Uiso   1.00
C9     C     0.16976   0.14581   0.08226   0.00000  Uiso   1.00
C10    C     0.32714   0.17631   0.23751   0.00000  Uiso   1.00
C11    C     0.00713   0.15741   0.26203   0.00000  Uiso   1.00
C12    C     0.08858   0.19612   0.41950   0.00000  Uiso   1.00
C13    C     0.18217   0.32271   0.23800   0.00000  Uiso   1.00
C14    C     0.15190   0.01198   0.26164   0.00000  Uiso   1.00
C15    C     0.15544   0.05618   0.25930   0.00000  Uiso   1.00
C16    C     0.17724   0.27782   0.24133   0.00000  Uiso   1.00
C17    C     0.18833   0.14535   0.14397   0.00000  Uiso   1.00
C18    C     0.14542   0.18753   0.35615   0.00000  Uiso   1.00
C19    C     0.13147   0.19035   0.39951   0.00000  Uiso   1.00
C20    C     0.19842   0.13639   0.10129   0.00000  Uiso   1.00
C21    C     0.07279   0.19179   0.45959   0.00000  Uiso   1.00
C22    C     0.26504   0.09782   0.45356   0.00000  Uiso   1.00
C23    C     0.15911   0.18155   0.42040   0.00000  Uiso   1.00
C24    C     0.20543   0.19072   0.40325   0.00000  Uiso   1.00
C25    C     0.14161   0.17040   0.45963   0.00000  Uiso   1.00
C26    C     0.09859   0.17845   0.48002   0.00000  Uiso   1.00
C27    C     0.16546   0.15199   0.47933   0.00000  Uiso   1.00
C28    C     0.15094   0.15146   0.02079   0.00000  Uiso   1.00
C29    C     0.10873   0.16130   0.04056   0.00000  Uiso   1.00
C30    C     0.08206   0.17311   0.02041   0.00000  Uiso   1.00
H31    H     0.27585   0.10079   0.02228   0.00000  Uiso   1.00
H32    H     0.03240   0.17934   0.07143   0.00000  Uiso   1.00
H33    H     0.01777   0.15578   0.03169   0.00000  Uiso   1.00
H34    H     0.24205   0.32192   0.19750   0.00000  Uiso   1.00
H35    H     0.20803   0.01633   0.18715   0.00000  Uiso   1.00
H36    H     0.28096   0.13896   0.11010   0.00000  Uiso   1.00
H37    H     0.29118   0.09539   0.07980   0.00000  Uiso   1.00
H38    H     0.01693   0.19372   0.21482   0.00000  Uiso   1.00
H39    H     0.31798   0.13995   0.28499   0.00000  Uiso   1.00
H40    H     0.12362   0.33127   0.28265   0.00000  Uiso   1.00
H41    H     0.14191   0.16011   0.10052   0.00000  Uiso   1.00
H42    H     0.03970   0.19754   0.47410   0.00000  Uiso   1.00
H43    H     0.06693   0.20332   0.40395   0.00000  Uiso   1.00
H44    H     0.09461   0.15753   0.07141   0.00000  Uiso   1.00
H45    H     0.20889   0.12401   0.42677   0.00000  Uiso   1.00
N46    N     0.03827   0.18039   0.04112   0.00000  Uiso   1.00
N47    N     0.21891   0.00914   0.21005   0.00000  Uiso   1.00
N48    N     0.26631   0.11064   0.09961   0.00000  Uiso   1.00
N49    N     0.29494   0.08221   0.43440   0.00000  Uiso   1.00
N50    N     0.24231   0.19817   0.38953   0.00000  Uiso   1.00
O51    O     0.16667   0.16667   0.25000   0.00000  Uiso   1.00
O52    O     0.15693   0.12393   0.16625   0.00000  Uiso   1.00
O53    O     0.12687   0.20646   0.33749   0.00000  Uiso   1.00
O54    O     0.21088   0.17493   0.15877   0.00000  Uiso   1.00
O55    O     0.17198   0.16135   0.33749   0.00000  Uiso   1.00
O56    O     0.17849   0.08101   0.27821   0.00000  Uiso   1.00
O57    O     0.14581   0.26136   0.26767   0.00000  Uiso   1.00
O58    O     0.07452   0.13251   0.23607   0.00000  Uiso   1.00
O59    O     0.26785   0.19179   0.21806   0.00000  Uiso   1.00
O60    O     0.06990   0.18960   0.27820   0.00000  Uiso   1.00
O61    O     0.25440   0.15277   0.26768   0.00000  Uiso   1.00
O62    O     0.13800   0.06903   0.23607   0.00000  Uiso   1.00
O63    O     0.20437   0.25527   0.21806   0.00000  Uiso   1.00
Zn64   Zn    0.19244   0.14090   0.28278   0.00000  Uiso   1.00
Zn65   Zn    0.13459   0.12378   0.22258   0.00000  Uiso   1.00
Zn66   Zn    0.21166   0.19664   0.21188   0.00000  Uiso   1.00
Zn67   Zn    0.12798   0.20535   0.28277   0.00000  Uiso   1.00
C68    C     0.38586   0.15990   0.25867   0.00000  Uiso   1.00
C69    C     0.53485   0.13119   0.45837   0.00000  Uiso   1.00
C70    C     0.56101   0.11738   0.47750   0.00000  Uiso   1.00
C71    C     0.61445   0.17359   0.24116   0.00000  Uiso   1.00
C72    C     0.55110   0.12337   0.01886   0.00000  Uiso   1.00
C73    C     0.51206   0.13981   0.04089   0.00000  Uiso   1.00
C74    C     0.57937   0.11327   0.03864   0.00000  Uiso   1.00
C75    C     0.57023   0.12021   0.07968   0.00000  Uiso   1.00
C76    C     0.50310   0.14581   0.08226   0.00000  Uiso   1.00
C77    C     0.66047   0.17631   0.23751   0.00000  Uiso   1.00
C78    C     0.34046   0.15741   0.26203   0.00000  Uiso   1.00
C79    C     0.42192   0.19612   0.41950   0.00000  Uiso   1.00
C80    C     0.51550   0.32271   0.23800   0.00000  Uiso   1.00
C81    C     0.48523   0.01198   0.26164   0.00000  Uiso   1.00
C82    C     0.48878   0.05618   0.25930   0.00000  Uiso   1.00
C83    C     0.51057   0.27782   0.24133   0.00000  Uiso   1.00
C84    C     0.52167   0.14535   0.14397   0.00000  Uiso   1.00
C85    C     0.47875   0.18753   0.35615   0.00000  Uiso   1.00
C86    C     0.46481   0.19035   0.39951   0.00000  Uiso   1.00
C87    C     0.53175   0.13639   0.10129   0.00000  Uiso   1.00
C88    C     0.40612   0.19179   0.45959   0.00000  Uiso   1.00
C89    C     0.59838   0.09782   0.45356   0.00000  Uiso   1.00
C90    C     0.49244   0.18155   0.42040   0.00000  Uiso   1.00
C91    C     0.53876   0.19072   0.40325   0.00000  Uiso   1.00
C92    C     0.47494   0.17040   0.45963   0.00000  Uiso   1.00
C93    C     0.43193   0.17845   0.48002   0.00000  Uiso   1.00
C94    C     0.49879   0.15199   0.47933   0.00000  Uiso   1.00
C95    C     0.48428   0.15146   0.02079   0.00000  Uiso   1.00
C96    C     0.44206   0.16130   0.04056   0.00000  Uiso   1.00
C97    C     0.41539   0.17311   0.02041   0.00000  Uiso   1.00
H98    H     0.60918   0.10079   0.02228   0.00000  Uiso   1.00
H99    H     0.36573   0.17934   0.07143   0.00000  Uiso   1.00
H100   H     0.35110   0.15578   0.03169   0.00000  Uiso   1.00
H101   H     0.57539   0.32192   0.19750   0.00000  Uiso   1.00
H102   H     0.54137   0.01633   0.18715   0.00000  Uiso   1.00
H103   H     0.61429   0.13896   0.11010   0.00000  Uiso   1.00
H104   H     0.62451   0.09539   0.07980   0.00000  Uiso   1.00
H105   H     0.35027   0.19372   0.21482   0.00000  Uiso   1.00
H106   H     0.65131   0.13995   0.28499   0.00000  Uiso   1.00
H107   H     0.45695   0.33127   0.28265   0.00000  Uiso   1.00
H108   H     0.47524   0.16011   0.10052   0.00000  Uiso   1.00
H109   H     0.37303   0.19754   0.47410   0.00000  Uiso   1.00
H110   H     0.40026   0.20332   0.40395   0.00000  Uiso   1.00
H111   H     0.42795   0.15753   0.07141   0.00000  Uiso   1.00
H112   H     0.54223   0.12401   0.42677   0.00000  Uiso   1.00
N113   N     0.37160   0.18039   0.04112   0.00000  Uiso   1.00
N114   N     0.55224   0.00914   0.21005   0.00000  Uiso   1.00
N115   N     0.59964   0.11064   0.09961   0.00000  Uiso   1.00
N116   N     0.62827   0.08221   0.43440   0.00000  Uiso   1.00
N117   N     0.57565   0.19817   0.38953   0.00000  Uiso   1.00
O118   O     0.50000   0.16667   0.25000   0.00000  Uiso   1.00
O119   O     0.49027   0.12393   0.16625   0.00000  Uiso   1.00
O120   O     0.46020   0.20646   0.33749   0.00000  Uiso   1.00
O121   O     0.54421   0.17493   0.15877   0.00000  Uiso   1.00
O122   O     0.50532   0.16135   0.33749   0.00000  Uiso   1.00
O123   O     0.51182   0.08101   0.27821   0.00000  Uiso   1.00
O124   O     0.47914   0.26136   0.26767   0.00000  Uiso   1.00
O125   O     0.40785   0.13251   0.23607   0.00000  Uiso   1.00
O126   O     0.60119   0.19179   0.21806   0.00000  Uiso   1.00
O127   O     0.40323   0.18960   0.27820   0.00000  Uiso   1.00
O128   O     0.58773   0.15277   0.26768   0.00000  Uiso   1.00
O129   O     0.47133   0.06903   0.23607   0.00000  Uiso   1.00
O130   O     0.53771   0.25527   0.21806   0.00000  Uiso   1.00
Zn131  Zn    0.52577   0.14090   0.28278   0.00000  Uiso   1.00
Zn132  Zn    0.46792   0.12378   0.22258   0.00000  Uiso   1.00
Zn133  Zn    0.54500   0.19664   0.21188   0.00000  Uiso   1.00
Zn134  Zn    0.46131   0.20535   0.28277   0.00000  Uiso   1.00
C135   C     0.71920   0.15990   0.25867   0.00000  Uiso   1.00
C136   C     0.86818   0.13119   0.45837   0.00000  Uiso   1.00
C137   C     0.89435   0.11738   0.47750   0.00000  Uiso   1.00
C138   C     0.94779   0.17359   0.24116   0.00000  Uiso   1.00
C139   C     0.88443   0.12337   0.01886   0.00000  Uiso   1.00
C140   C     0.84540   0.13981   0.04089   0.00000  Uiso   1.00
C141   C     0.91270   0.11327   0.03864   0.00000  Uiso   1.00
C142   C     0.90357   0.12021   0.07968   0.00000  Uiso   1.00
C143   C     0.83643   0.14581   0.08226   0.00000  Uiso   1.00
C144   C     0.99381   0.17631   0.23751   0.00000  Uiso   1.00
C145   C     0.67380   0.15741   0.26203   0.00000  Uiso   1.00
C146   C     0.75525   0.19612   0.41950   0.00000  Uiso   1.00
C147   C     0.84883   0.32271   0.23800   0.00000  Uiso   1.00
C148   C     0.81856   0.01198   0.26164   0.00000  Uiso   1.00
C149   C     0.82211   0.05618   0.25930   0.00000  Uiso   1.00
C150   C     0.84390   0.27782   0.24133   0.00000  Uiso   1.00
C151   C     0.85500   0.14535   0.14397   0.00000  Uiso   1.00
C152   C     0.81208   0.18753   0.35615   0.00000  Uiso   1.00
C153   C     0.79814   0.19035   0.39951   0.00000  Uiso   1.00
C154   C     0.86509   0.13639   0.10129   0.00000  Uiso   1.00
C155   C     0.73946   0.19179   0.45959   0.00000  Uiso   1.00
C156   C     0.93171   0.09782   0.45356   0.00000  Uiso   1.00
C157   C     0.82577   0.18155   0.42040   0.00000  Uiso   1.00
C158   C     0.87209   0.19072   0.40325   0.00000  Uiso   1.00
C159   C     0.80827   0.17040   0.45963   0.00000  Uiso   1.00
C160   C     0.76526   0.17845   0.48002   0.00000  Uiso   1.00
C161   C     0.83212   0.15199   0.47933   0.00000  Uiso   1.00
C162   C     0.81761   0.15146   0.02079   0.00000  Uiso   1.00
C163   C     0.77540   0.16130   0.04056   0.00000  Uiso   1.00
C164   C     0.74872   0.17311   0.02041   0.00000  Uiso   1.00
H165   H     0.94252   0.10079   0.02228   0.00000  Uiso   1.00
H166   H     0.69907   0.17934   0.07143   0.00000  Uiso   1.00
H167   H     0.68444   0.15578   0.03169   0.00000  Uiso   1.00
H168   H     0.90872   0.32192   0.19750   0.00000  Uiso   1.00
H169   H     0.87470   0.01633   0.18715   0.00000  Uiso   1.00
H170   H     0.94763   0.13896   0.11010   0.00000  Uiso   1.00
H171   H     0.95785   0.09539   0.07980   0.00000  Uiso   1.00
H172   H     0.68360   0.19372   0.21482   0.00000  Uiso   1.00
H173   H     0.98465   0.13995   0.28499   0.00000  Uiso   1.00
H174   H     0.79029   0.33127   0.28265   0.00000  Uiso   1.00
H175   H     0.80858   0.16011   0.10052   0.00000  Uiso   1.00
H176   H     0.70637   0.19754   0.47410   0.00000  Uiso   1.00
H177   H     0.73360   0.20332   0.40395   0.00000  Uiso   1.00
H178   H     0.76128   0.15753   0.07141   0.00000  Uiso   1.00
H179   H     0.87556   0.12401   0.42677   0.00000  Uiso   1.00
N180   N     0.70493   0.18039   0.04112   0.00000  Uiso   1.00
N181   N     0.88557   0.00914   0.21005   0.00000  Uiso   1.00
N182   N     0.93297   0.11064   0.09961   0.00000  Uiso   1.00
N183   N     0.96160   0.08221   0.43440   0.00000  Uiso   1.00
N184   N     0.90898   0.19817   0.38953   0.00000  Uiso   1.00
O185   O     0.83333   0.16667   0.25000   0.00000  Uiso   1.00
O186   O     0.82360   0.12393   0.16625   0.00000  Uiso   1.00
O187   O     0.79354   0.20646   0.33749   0.00000  Uiso   1.00
O188   O     0.87755   0.17493   0.15877   0.00000  Uiso   1.00
O189   O     0.83865   0.16135   0.33749   0.00000  Uiso   1.00
O190   O     0.84515   0.08101   0.27821   0.00000  Uiso   1.00
O191   O     0.81247   0.26136   0.26767   0.00000  Uiso   1.00
O192   O     0.74119   0.13251   0.23607   0.00000  Uiso   1.00
O193   O     0.93452   0.19179   0.21806   0.00000  Uiso   1.00
O194   O     0.73656   0.18960   0.27820   0.00000  Uiso   1.00
O195   O     0.92106   0.15277   0.26768   0.00000  Uiso   1.00
O196   O     0.80467   0.06903   0.23607   0.00000  Uiso   1.00
O197   O     0.87104   0.25527   0.21806   0.00000  Uiso   1.00
Zn198  Zn    0.85910   0.14090   0.28278   0.00000  Uiso   1.00
Zn199  Zn    0.80125   0.12378   0.22258   0.00000  Uiso   1.00
Zn200  Zn    0.87833   0.19664   0.21188   0.00000  Uiso   1.00
Zn201  Zn    0.79465   0.20535   0.28277   0.00000  Uiso   1.00
C202   C     0.05253   0.49324   0.25867   0.00000  Uiso   1.00
C203   C     0.20152   0.46452   0.45837   0.00000  Uiso   1.00
C204   C     0.22768   0.45071   0.47750   0.00000  Uiso   1.00
C205   C     0.28112   0.50693   0.24116   0.00000  Uiso   1.00
C206   C     0.21777   0.45670   0.01886   0.00000  Uiso   1.00
C207   C     0.17873   0.47314   0.04089   0.00000  Uiso   1.00
C208   C     0.24604   0.44660   0.03864   0.00000  Uiso   1.00
C209   C     0.23690   0.45354   0.07968   0.00000  Uiso   1.00
C210   C     0.16976   0.47915   0.08226   0.00000  Uiso   1.00
C211   C     0.32714   0.50964   0.23751   0.00000  Uiso   1.00
C212   C     0.00713   0.49074   0.26203   0.00000  Uiso   1.00
C213   C     0.08858   0.52945   0.41950   0.00000  Uiso   1.00
C214   C     0.18217   0.65604   0.23800   0.00000  Uiso   1.00
C215   C     0.15190   0.34531   0.26164   0.00000  Uiso   1.00
C216   C     0.15544   0.38951   0.25930   0.00000  Uiso   1.00
C217   C     0.17724   0.61115   0.24133   0.00000  Uiso   1.00
C218   C     0.18833   0.47868   0.14397   0.00000  Uiso   1.00
C219   C     0.14542   0.52086   0.35615   0.00000  Uiso   1.00
C220   C     0.13147   0.52368   0.39951   0.00000  Uiso   1.00
C221   C     0.19842   0.46972   0.10129   0.00000  Uiso   1.00
C222   C     0.07279   0.52512   0.45959   0.00000  Uiso   1.00
C223   C     0.26504   0.43115   0.45356   0.00000  Uiso   1.00
C224   C     0.15911   0.51488   0.42040   0.00000  Uiso   1.00
C225   C     0.20543   0.52405   0.40325   0.00000  Uiso   1.00
C226   C     0.14161   0.50373   0.45963   0.00000  Uiso   1.00
C227   C     0.09859   0.51179   0.48002   0.00000  Uiso   1.00
C228   C     0.16546   0.48532   0.47933   0.00000  Uiso   1.00
C229   C     0.15094   0.48479   0.02079   0.00000  Uiso   1.00
C230   C     0.10873   0.49464   0.04056   0.00000  Uiso   1.00
C231   C     0.08206   0.50644   0.02041   0.00000  Uiso   1.00
H232   H     0.27585   0.43412   0.02228   0.00000  Uiso   1.00
H233   H     0.03240   0.51268   0.07143   0.00000  Uiso   1.00
H234   H     0.01777   0.48911   0.03169   0.00000  Uiso   1.00
H235   H     0.24205   0.65525   0.19750   0.00000  Uiso   1.00
H236   H     0.20803   0.34967   0.18715   0.00000  Uiso   1.00
H237   H     0.28096   0.47229   0.11010   0.00000  Uiso   1.00
H238   H     0.29118   0.42872   0.07980   0.00000  Uiso   1.00
H239   H     0.01693   0.52705   0.21482   0.00000  Uiso   1.00
H240   H     0.31798   0.47328   0.28499   0.00000  Uiso   1.00
H241   H     0.12362   0.66461   0.28265   0.00000  Uiso   1.00
H242   H     0.14191   0.49345   0.10052   0.00000  Uiso   1.00
H243   H     0.03970   0.53087   0.47410   0.00000  Uiso   1.00
H244   H     0.06693   0.53666   0.40395   0.00000  Uiso   1.00
H245   H     0.09461   0.49087   0.07141   0.00000  Uiso   1.00
H246   H     0.20889   0.45734   0.42677   0.00000  Uiso   1.00
N247   N     0.03827   0.51372   0.04112   0.00000  Uiso   1.00
N248   N     0.21891   0.34248   0.21005   0.00000  Uiso   1.00
N249   N     0.26631   0.44397   0.09961   0.00000  Uiso   1.00
N250   N     0.29494   0.41554   0.43440   0.00000  Uiso   1.00
N251   N     0.24231   0.53151   0.38953   0.00000  Uiso   1.00
O252   O     0.16667   0.50000   0.25000   0.00000  Uiso   1.00
O253   O     0.15693   0.45726   0.16625   0.00000  Uiso   1.00
O254   O     0.12687   0.53979   0.33749   0.00000  Uiso   1.00
O255   O     0.21088   0.50826   0.15877   0.00000  Uiso   1.00
O256   O     0.17198   0.49468   0.33749   0.00000  Uiso   1.00
O257   O     0.17849   0.41434   0.27821   0.00000  Uiso   1.00
O258   O     0.14581   0.59469   0.26767   0.00000  Uiso   1.00
O259   O     0.07452   0.46584   0.23607   0.00000  Uiso   1.00
O260   O     0.26785   0.52512   0.21806   0.00000  Uiso   1.00
O261   O     0.06990   0.52293   0.27820   0.00000  Uiso   1.00
O262   O     0.25440   0.48610   0.26768   0.00000  Uiso   1.00
O263   O     0.13800   0.40236   0.23607   0.00000  Uiso   1.00
O264   O     0.20437   0.58860   0.21806   0.00000  Uiso   1.00
Zn265  Zn    0.19244   0.47423   0.28278   0.00000  Uiso   1.00
Zn266  Zn    0.13459   0.45711   0.22258   0.00000  Uiso   1.00
Zn267  Zn    0.21166   0.52997   0.21188   0.00000  Uiso   1.00
Zn268  Zn    0.12798   0.53868   0.28277   0.00000  Uiso   1.00
C269   C     0.38586   0.49324   0.25867   0.00000  Uiso   1.00
C270   C     0.53485   0.46452   0.45837   0.00000  Uiso   1.00
C271   C     0.56101   0.45071   0.47750   0.00000  Uiso   1.00
C272   C     0.61445   0.50693   0.24116   0.00000  Uiso   1.00
C273   C     0.55110   0.45670   0.01886   0.00000  Uiso   1.00
C274   C     0.51206   0.47314   0.04089   0.00000  Uiso   1.00
C275   C     0.57937   0.44660   0.03864   0.00000  Uiso   1.00
C276   C     0.57023   0.45354   0.07968   0.00000  Uiso   1.00
C277   C     0.50310   0.47915   0.08226   0.00000  Uiso   1.00
C278   C     0.66047   0.50964   0.23751   0.00000  Uiso   1.00
C279   C     0.34046   0.49074   0.26203   0.00000  Uiso   1.00
C280   C     0.42192   0.52945   0.41950   0.00000  Uiso   1.00
C281   C     0.51550   0.65604   0.23800   0.00000  Uiso   1.00
C282   C     0.48523   0.34531   0.26164   0.00000  Uiso   1.00
C283   C     0.48878   0.38951   0.25930   0.00000  Uiso   1.00
C284   C     0.51057   0.61115   0.24133   0.00000  Uiso   1.00
C285   C     0.52167   0.47868   0.14397   0.00000  Uiso   1.00
C286   C     0.47875   0.52086   0.35615   0.00000  Uiso   1.00
C287   C     0.46481   0.52368   0.39951   0.00000  Uiso   1.00
C288   C     0.53175   0.46972   0.10129   0.00000  Uiso   1.00
C289   C     0.40612   0.52512   0.45959   0.00000  Uiso   1.00
C290   C     0.59838   0.43115   0.45356   0.00000  Uiso   1.00
C291   C     0.49244   0.51488   0.42040   0.00000  Uiso   1.00
C292   C     0.53876   0.52405   0.40325   0.00000  Uiso   1.00
C293   C     0.47494   0.50373   0.45963   0.00000  Uiso   1.00
C294   C     0.43193   0.51179   0.48002   0.00000  Uiso   1.00
C295   C     0.49879   0.48532   0.47933   0.00000  Uiso   1.00
C296   C     0.48428   0.48479   0.02079   0.00000  Uiso   1.00
C297   C     0.44206   0.49464   0.04056   0.00000  Uiso   1.00
C298   C     0.41539   0.50644   0.02041   0.00000  Uiso   1.00
H299   H     0.60918   0.43412   0.02228   0.00000  Uiso   1.00
H300   H     0.36573   0.51268   0.07143   0.00000  Uiso   1.00
H301   H     0.35110   0.48911   0.03169   0.00000  Uiso   1.00
H302   H     0.57539   0.65525   0.19750   0.00000  Uiso   1.00
H303   H     0.54137   0.34967   0.18715   0.00000  Uiso   1.00
H304   H     0.61429   0.47229   0.11010   0.00000  Uiso   1.00
H305   H     0.62451   0.42872   0.07980   0.00000  Uiso   1.00
H306   H     0.35027   0.52705   0.21482   0.00000  Uiso   1.00
H307   H     0.65131   0.47328   0.28499   0.00000  Uiso   1.00
H308   H     0.45695   0.66461   0.28265   0.00000  Uiso   1.00
H309   H     0.47524   0.49345   0.10052   0.00000  Uiso   1.00
H310   H     0.37303   0.53087   0.47410   0.00000  Uiso   1.00
H311   H     0.40026   0.53666   0.40395   0.00000  Uiso   1.00
H312   H     0.42795   0.49087   0.07141   0.00000  Uiso   1.00
H313   H     0.54223   0.45734   0.42677   0.00000  Uiso   1.00
N314   N     0.37160   0.51372   0.04112   0.00000  Uiso   1.00
N315   N     0.55224   0.34248   0.21005   0.00000  Uiso   1.00
N316   N     0.59964   0.44397   0.09961   0.00000  Uiso   1.00
N317   N     0.62827   0.41554   0.43440   0.00000  Uiso   1.00
N318   N     0.57565   0.53151   0.38953   0.00000  Uiso   1.00
O319   O     0.50000   0.50000   0.25000   0.00000  Uiso   1.00
O320   O     0.49027   0.45726   0.16625   0.00000  Uiso   1.00
O321   O     0.46020   0.53979   0.33749   0.00000  Uiso   1.00
O322   O     0.54421   0.50826   0.15877   0.00000  Uiso   1.00
O323   O     0.50532   0.49468   0.33749   0.00000  Uiso   1.00
O324   O     0.51182   0.41434   0.27821   0.00000  Uiso   1.00
O325   O     0.47914   0.59469   0.26767   0.00000  Uiso   1.00
O326   O     0.40785   0.46584   0.23607   0.00000  Uiso   1.00
O327   O     0.60119   0.52512   0.21806   0.00000  Uiso   1.00
O328   O     0.40323   0.52293   0.27820   0.00000  Uiso   1.00
O329   O     0.58773   0.48610   0.26768   0.00000  Uiso   1.00
O330   O     0.47133   0.40236   0.23607   0.00000  Uiso   1.00
O331   O     0.53771   0.58860   0.21806   0.00000  Uiso   1.00
Zn332  Zn    0.52577   0.47423   0.28278   0.00000  Uiso   1.00
Zn333  Zn    0.46792   0.45711   0.22258   0.00000  Uiso   1.00
Zn334  Zn    0.54500   0.52997   0.21188   0.00000  Uiso   1.00
Zn335  Zn    0.46131   0.53868   0.28277   0.00000  Uiso   1.00
C336   C     0.71920   0.49324   0.25867   0.00000  Uiso   1.00
C337   C     0.86818   0.46452   0.45837   0.00000  Uiso   1.00
C338   C     0.89435   0.45071   0.47750   0.00000  Uiso   1.00
C339   C     0.94779   0.50693   0.24116   0.00000  Uiso   1.00
C340   C     0.88443   0.45670   0.01886   0.00000  Uiso   1.00
C341   C     0.84540   0.47314   0.04089   0.00000  Uiso   1.00
C342   C     0.91270   0.44660   0.03864   0.00000  Uiso   1.00
C343   C     0.90357   0.45354   0.07968   0.00000  Uiso   1.00
C344   C     0.83643   0.47915   0.08226   0.00000  Uiso   1.00
C345   C     0.99381   0.50964   0.23751   0.00000  Uiso   1.00
C346   C     0.67380   0.49074   0.26203   0.00000  Uiso   1.00
C347   C     0.75525   0.52945   0.41950   0.00000  Uiso   1.00
C348   C     0.84883   0.65604   0.23800   0.00000  Uiso   1.00
C349   C     0.81856   0.34531   0.26164   0.00000  Uiso   1.00
C350   C     0.82211   0.38951   0.25930   0.00000  Uiso   1.00
C351   C     0.84390   0.61115   0.24133   0.00000  Uiso   1.00
C352   C     0.85500   0.47868   0.14397   0.00000  Uiso   1.00
C353   C     0.81208   0.52086   0.35615   0.00000  Uiso   1.00
C354   C     0.79814   0.52368   0.39951   0.00000  Uiso   1.00
C355   C     0.86509   0.46972   0.10129   0.00000  Uiso   1.00
C356   C     0.73946   0.52512   0.45959   0.00000  Uiso   1.00
C357   C     0.93171   0.43115   0.45356   0.00000  Uiso   1.00
C358   C     0.82577   0.51488   0.42040   0.00000  Uiso   1.00
C359   C     0.87209   0.52405   0.40325   0.00000  Uiso   1.00
C360   C     0.80827   0.50373   0.45963   0.00000  Uiso   1.00
C361   C     0.76526   0.51179   0.48002   0.00000  Uiso   1.00
C362   C     0.83212   0.48532   0.47933   0.00000  Uiso   1.00
C363   C     0.81761   0.48479   0.02079   0.00000  Uiso   1.00
C364   C     0.77540   0.49464   0.04056   0.00000  Uiso   1.00
C365   C     0.74872   0.50644   0.02041   0.00000  Uiso   1.00
H366   H     0.94252   0.43412   0.02228   0.00000  Uiso   1.00
H367   H     0.69907   0.51268   0.07143   0.00000  Uiso   1.00
H368   H     0.68444   0.48911   0.03169   0.00000  Uiso   1.00
H369   H     0.90872   0.65525   0.19750   0.00000  Uiso   1.00
H370   H     0.87470   0.34967   0.18715   0.00000  Uiso   1.00
H371   H     0.94763   0.47229   0.11010   0.00000  Uiso   1.00
H372   H     0.95785   0.42872   0.07980   0.00000  Uiso   1.00
H373   H     0.68360   0.52705   0.21482   0.00000  Uiso   1.00
H374   H     0.98465   0.47328   0.28499   0.00000  Uiso   1.00
H375   H     0.79029   0.66461   0.28265   0.00000  Uiso   1.00
H376   H     0.80858   0.49345   0.10052   0.00000  Uiso   1.00
H377   H     0.70637   0.53087   0.47410   0.00000  Uiso   1.00
H378   H     0.73360   0.53666   0.40395   0.00000  Uiso   1.00
H379   H     0.76128   0.49087   0.07141   0.00000  Uiso   1.00
H380   H     0.87556   0.45734   0.42677   0.00000  Uiso   1.00
N381   N     0.70493   0.51372   0.04112   0.00000  Uiso   1.00
N382   N     0.88557   0.34248   0.21005   0.00000  Uiso   1.00
N383   N     0.93297   0.44397   0.09961   0.00000  Uiso   1.00
N384   N     0.96160   0.41554   0.43440   0.00000  Uiso   1.00
N385   N     0.90898   0.53151   0.38953   0.00000  Uiso   1.00
O386   O     0.83333   0.50000   0.25000   0.00000  Uiso   1.00
O387   O     0.82360   0.45726   0.16625   0.00000  Uiso   1.00
O388   O     0.79354   0.53979   0.33749   0.00000  Uiso   1.00
O389   O     0.87755   0.50826   0.15877   0.00000  Uiso   1.00
O390   O     0.83865   0.49468   0.33749   0.00000  Uiso   1.00
O391   O     0.84515   0.41434   0.27821   0.00000  Uiso   1.00
O392   O     0.81247   0.59469   0.26767   0.00000  Uiso   1.00
O393   O     0.74119   0.46584   0.23607   0.00000  Uiso   1.00
O394   O     0.93452   0.52512   0.21806   0.00000  Uiso   1.00
O395   O     0.73656   0.52293   0.27820   0.00000  Uiso   1.00
O396   O     0.92106   0.48610   0.26768   0.00000  Uiso   1.00
O397   O     0.80467   0.40236   0.23607   0.00000  Uiso   1.00
O398   O     0.87104   0.58860   0.21806   0.00000  Uiso   1.00
Zn399  Zn    0.85910   0.47423   0.28278   0.00000  Uiso   1.00
Zn400  Zn    0.80125   0.45711   0.22258   0.00000  Uiso   1.00
Zn401  Zn    0.87833   0.52997   0.21188   0.00000  Uiso   1.00
Zn402  Zn    0.79465   0.53868   0.28277   0.00000  Uiso   1.00
C403   C     0.05253   0.82657   0.25867   0.00000  Uiso   1.00
C404   C     0.20152   0.79786   0.45837   0.00000  Uiso   1.00
C405   C     0.22768   0.78405   0.47750   0.00000  Uiso   1.00
C406   C     0.28112   0.84026   0.24116   0.00000  Uiso   1.00
C407   C     0.21777   0.79003   0.01886   0.00000  Uiso   1.00
C408   C     0.17873   0.80648   0.04089   0.00000  Uiso   1.00
C409   C     0.24604   0.77994   0.03864   0.00000  Uiso   1.00
C410   C     0.23690   0.78687   0.07968   0.00000  Uiso   1.00
C411   C     0.16976   0.81248   0.08226   0.00000  Uiso   1.00
C412   C     0.32714   0.84297   0.23751   0.00000  Uiso   1.00
C413   C     0.00713   0.82408   0.26203   0.00000  Uiso   1.00
C414   C     0.08858   0.86278   0.41950   0.00000  Uiso   1.00
C415   C     0.18217   0.98938   0.23800   0.00000  Uiso   1.00
C416   C     0.15190   0.67865   0.26164   0.00000  Uiso   1.00
C417   C     0.15544   0.72284   0.25930   0.00000  Uiso   1.00
C418   C     0.17724   0.94449   0.24133   0.00000  Uiso   1.00
C419   C     0.18833   0.81201   0.14397   0.00000  Uiso   1.00
C420   C     0.14542   0.85419   0.35615   0.00000  Uiso   1.00
C421   C     0.13147   0.85701   0.39951   0.00000  Uiso   1.00
C422   C     0.19842   0.80305   0.10129   0.00000  Uiso   1.00
C423   C     0.07279   0.85846   0.45959   0.00000  Uiso   1.00
C424   C     0.26504   0.76449   0.45356   0.00000  Uiso   1.00
C425   C     0.15911   0.84821   0.42040   0.00000  Uiso   1.00
C426   C     0.20543   0.85738   0.40325   0.00000  Uiso   1.00
C427   C     0.14161   0.83706   0.45963   0.00000  Uiso   1.00
C428   C     0.09859   0.84512   0.48002   0.00000  Uiso   1.00
C429   C     0.16546   0.81865   0.47933   0.00000  Uiso   1.00
C430   C     0.15094   0.81813   0.02079   0.00000  Uiso   1.00
C431   C     0.10873   0.82797   0.04056   0.00000  Uiso   1.00
C432   C     0.08206   0.83977   0.02041   0.00000  Uiso   1.00
H433   H     0.27585   0.76745   0.02228   0.00000  Uiso   1.00
H434   H     0.03240   0.84601   0.07143   0.00000  Uiso   1.00
H435   H     0.01777   0.82244   0.03169   0.00000  Uiso   1.00
H436   H     0.24205   0.98859   0.19750   0.00000  Uiso   1.00
H437   H     0.20803   0.68300   0.18715   0.00000  Uiso   1.00
H438   H     0.28096   0.80563   0.11010   0.00000  Uiso   1.00
H439   H     0.29118   0.76206   0.07980   0.00000  Uiso   1.00
H440   H     0.01693   0.86038   0.21482   0.00000  Uiso   1.00
H441   H     0.31798   0.80661   0.28499   0.00000  Uiso   1.00
H442   H     0.12362   0.99794   0.28265   0.00000  Uiso   1.00
H443   H     0.14191   0.82678   0.10052   0.00000  Uiso   1.00
H444   H     0.03970   0.86420   0.47410   0.00000  Uiso   1.00
H445   H     0.06693   0.86999   0.40395   0.00000  Uiso   1.00
H446   H     0.09461   0.82420   0.07141   0.00000  Uiso   1.00
H447   H     0.20889   0.79068   0.42677   0.00000  Uiso   1.00
N448   N     0.03827   0.84705   0.04112   0.00000  Uiso   1.00
N449   N     0.21891   0.67581   0.21005   0.00000  Uiso   1.00
N450   N     0.26631   0.77730   0.09961   0.00000  Uiso   1.00
N451   N     0.29494   0.74888   0.43440   0.00000  Uiso   1.00
N452   N     0.24231   0.86484   0.38953   0.00000  Uiso   1.00
O453   O     0.16667   0.83333   0.25000   0.00000  Uiso   1.00
O454   O     0.15693   0.79060   0.16625   0.00000  Uiso   1.00
O455   O     0.12687   0.87313   0.33749   0.00000  Uiso   1.00
O456   O     0.21088   0.84159   0.15877   0.00000  Uiso   1.00
O457   O     0.17198   0.82802   0.33749   0.00000  Uiso   1.00
O458   O     0.17849   0.74768   0.27821   0.00000  Uiso   1.00
O459   O     0.14581   0.92803   0.26767   0.00000  Uiso   1.00
O460   O     0.07452   0.79917   0.23607   0.00000  Uiso   1.00
O461   O     0.26785   0.85845   0.21806   0.00000  Uiso   1.00
O462   O     0.06990   0.85627   0.27820   0.00000  Uiso   1.00
O463   O     0.25440   0.81944   0.26768   0.00000  Uiso   1.00
O464   O     0.13800   0.73570   0.23607   0.00000  Uiso   1.00
O465   O     0.20437   0.92193   0.21806   0.00000  Uiso   1.00
Zn466  Zn    0.19244   0.80756   0.28278   0.00000  Uiso   1.00
Zn467  Zn    0.13459   0.79044   0.22258   0.00000  Uiso   1.00
Zn468  Zn    0.21166   0.86331   0.21188   0.00000  Uiso   1.00
Zn469  Zn    0.12798   0.87202   0.28277   0.00000  Uiso   1.00
C470   C     0.38586   0.82657   0.25867   0.00000  Uiso   1.00
C471   C     0.53485   0.79786   0.45837   0.00000  Uiso   1.00
C472   C     0.56101   0.78405   0.47750   0.00000  Uiso   1.00
C473   C     0.61445   0.84026   0.24116   0.00000  Uiso   1.00
C474   C     0.55110   0.79003   0.01886   0.00000  Uiso   1.00
C475   C     0.51206   0.80648   0.04089   0.00000  Uiso   1.00
C476   C     0.57937   0.77994   0.03864   0.00000  Uiso   1.00
C477   C     0.57023   0.78687   0.07968   0.00000  Uiso   1.00
C478   C     0.50310   0.81248   0.08226   0.00000  Uiso   1.00
C479   C     0.66047   0.84297   0.23751   0.00000  Uiso   1.00
C480   C     0.34046   0.82408   0.26203   0.00000  Uiso   1.00
C481   C     0.42192   0.86278   0.41950   0.00000  Uiso   1.00
C482   C     0.51550   0.98938   0.23800   0.00000  Uiso   1.00
C483   C     0.48523   0.67865   0.26164   0.00000  Uiso   1.00
C484   C     0.48878   0.72284   0.25930   0.00000  Uiso   1.00
C485   C     0.51057   0.94449   0.24133   0.00000  Uiso   1.00
C486   C     0.52167   0.81201   0.14397   0.00000  Uiso   1.00
C487   C     0.47875   0.85419   0.35615   0.00000  Uiso   1.00
C488   C     0.46481   0.85701   0.39951   0.00000  Uiso   1.00
C489   C     0.53175   0.80305   0.10129   0.00000  Uiso   1.00
C490   C     0.40612   0.85846   0.45959   0.00000  Uiso   1.00
C491   C     0.59838   0.76449   0.45356   0.00000  Uiso   1.00
C492   C     0.49244   0.84821   0.42040   0.00000  Uiso   1.00
C493   C     0.53876   0.85738   0.40325   0.00000  Uiso   1.00
C494   C     0.47494   0.83706   0.45963   0.00000  Uiso   1.00
C495   C     0.43193   0.84512   0.48002   0.00000  Uiso   1.00
C496   C     0.49879   0.81865   0.47933   0.00000  Uiso   1.00
C497   C     0.48428   0.81813   0.02079   0.00000  Uiso   1.00
C498   C     0.44206   0.82797   0.04056   0.00000  Uiso   1.00
C499   C     0.41539   0.83977   0.02041   0.00000  Uiso   1.00
H500   H     0.60918   0.76745   0.02228   0.00000  Uiso   1.00
H501   H     0.36573   0.84601   0.07143   0.00000  Uiso   1.00
H502   H     0.35110   0.82244   0.03169   0.00000  Uiso   1.00
H503   H     0.57539   0.98859   0.19750   0.00000  Uiso   1.00
H504   H     0.54137   0.68300   0.18715   0.00000  Uiso   1.00
H505   H     0.61429   0.80563   0.11010   0.00000  Uiso   1.00
H506   H     0.62451   0.76206   0.07980   0.00000  Uiso   1.00
H507   H     0.35027   0.86038   0.21482   0.00000  Uiso   1.00
H508   H     0.65131   0.80661   0.28499   0.00000  Uiso   1.00
H509   H     0.45695   0.99794   0.28265   0.00000  Uiso   1.00
H510   H     0.47524   0.82678   0.10052   0.00000  Uiso   1.00
H511   H     0.37303   0.86420   0.47410   0.00000  Uiso   1.00
H512   H     0.40026   0.86999   0.40395   0.00000  Uiso   1.00
H513   H     0.42795   0.82420   0.07141   0.00000  Uiso   1.00
H514   H     0.54223   0.79068   0.42677   0.00000  Uiso   1.00
N515   N     0.37160   0.84705   0.04112   0.00000  Uiso   1.00
N516   N     0.55224   0.67581   0.21005   0.00000  Uiso   1.00
N517   N     0.59964   0.77730   0.09961   0.00000  Uiso   1.00
N518   N     0.62827   0.74888   0.43440   0.00000  Uiso   1.00
N519   N     0.57565   0.86484   0.38953   0.00000  Uiso   1.00
O520   O     0.50000   0.83333   0.25000   0.00000  Uiso   1.00
O521   O     0.49027   0.79060   0.16625   0.00000  Uiso   1.00
O522   O     0.46020   0.87313   0.33749   0.00000  Uiso   1.00
O523   O     0.54421   0.84159   0.15877   0.00000  Uiso   1.00
O524   O     0.50532   0.82802   0.33749   0.00000  Uiso   1.00
O525   O     0.51182   0.74768   0.27821   0.00000  Uiso   1.00
O526   O     0.47914   0.92803   0.26767   0.00000  Uiso   1.00
O527   O     0.40785   0.79917   0.23607   0.00000  Uiso   1.00
O528   O     0.60119   0.85845   0.21806   0.00000  Uiso   1.00
O529   O     0.40323   0.85627   0.27820   0.00000  Uiso   1.00
O530   O     0.58773   0.81944   0.26768   0.00000  Uiso   1.00
O531   O     0.47133   0.73570   0.23607   0.00000  Uiso   1.00
O532   O     0.53771   0.92193   0.21806   0.00000  Uiso   1.00
Zn533  Zn    0.52577   0.80756   0.28278   0.00000  Uiso   1.00
Zn534  Zn    0.46792   0.79044   0.22258   0.00000  Uiso   1.00
Zn535  Zn    0.54500   0.86331   0.21188   0.00000  Uiso   1.00
Zn536  Zn    0.46131   0.87202   0.28277   0.00000  Uiso   1.00
C537   C     0.71920   0.82657   0.25867   0.00000  Uiso   1.00
C538   C     0.86818   0.79786   0.45837   0.00000  Uiso   1.00
C539   C     0.89435   0.78405   0.47750   0.00000  Uiso   1.00
C540   C     0.94779   0.84026   0.24116   0.00000  Uiso   1.00
C541   C     0.88443   0.79003   0.01886   0.00000  Uiso   1.00
C542   C     0.84540   0.80648   0.04089   0.00000  Uiso   1.00
C543   C     0.91270   0.77994   0.03864   0.00000  Uiso   1.00
C544   C     0.90357   0.78687   0.07968   0.00000  Uiso   1.00
C545   C     0.83643   0.81248   0.08226   0.00000  Uiso   1.00
C546   C     0.99381   0.84297   0.23751   0.00000  Uiso   1.00
C547   C     0.67380   0.82408   0.26203   0.00000  Uiso   1.00
C548   C     0.75525   0.86278   0.41950   0.00000  Uiso   1.00
C549   C     0.84883   0.98938   0.23800   0.00000  Uiso   1.00
C550   C     0.81856   0.67865   0.26164   0.00000  Uiso   1.00
C551   C     0.82211   0.72284   0.25930   0.00000  Uiso   1.00
C552   C     0.84390   0.94449   0.24133   0.00000  Uiso   1.00
C553   C     0.85500   0.81201   0.14397   0.00000  Uiso   1.00
C554   C     0.81208   0.85419   0.35615   0.00000  Uiso   1.00
C555   C     0.79814   0.85701   0.39951   0.00000  Uiso   1.00
C556   C     0.86509   0.80305   0.10129   0.00000  Uiso   1.00
C557   C     0.73946   0.85846   0.45959   0.00000  Uiso   1.00
C558   C     0.93171   0.76449   0.45356   0.00000  Uiso   1.00
C559   C     0.82577   0.84821   0.42040   0.00000  Uiso   1.00
C560   C     0.87209   0.85738   0.40325   0.00000  Uiso   1.00
C561   C     0.80827   0.83706   0.45963   0.00000  Uiso   1.00
C562   C     0.76526   0.84512   0.48002   0.00000  Uiso   1.00
C563   C     0.83212   0.81865   0.47933   0.00000  Uiso   1.00
C564   C     0.81761   0.81813   0.02079   0.00000  Uiso   1.00
C565   C     0.77540   0.82797   0.04056   0.00000  Uiso   1.00
C566   C     0.74872   0.83977   0.02041   0.00000  Uiso   1.00
H567   H     0.94252   0.76745   0.02228   0.00000  Uiso   1.00
H568   H     0.69907   0.84601   0.07143   0.00000  Uiso   1.00
H569   H     0.68444   0.82244   0.03169   0.00000  Uiso   1.00
H570   H     0.90872   0.98859   0.19750   0.00000  Uiso   1.00
H571   H     0.87470   0.68300   0.18715   0.00000  Uiso   1.00
H572   H     0.94763   0.80563   0.11010   0.00000  Uiso   1.00
H573   H     0.95785   0.76206   0.07980   0.00000  Uiso   1.00
H574   H     0.68360   0.86038   0.21482   0.00000  Uiso   1.00
H575   H     0.98465   0.80661   0.28499   0.00000  Uiso   1.00
H576   H     0.79029   0.99794   0.28265   0.00000  Uiso   1.00
H577   H     0.80858   0.82678   0.10052   0.00000  Uiso   1.00
H578   H     0.70637   0.86420   0.47410   0.00000  Uiso   1.00
H579   H     0.73360   0.86999   0.40395   0.00000  Uiso   1.00
H580   H     0.76128   0.82420   0.07141   0.00000  Uiso   1.00
H581   H     0.87556   0.79068   0.42677   0.00000  Uiso   1.00
N582   N     0.70493   0.84705   0.04112   0.00000  Uiso   1.00
N583   N     0.88557   0.67581   0.21005   0.00000  Uiso   1.00
N584   N     0.93297   0.77730   0.09961   0.00000  Uiso   1.00
N585   N     0.96160   0.74888   0.43440   0.00000  Uiso   1.00
N586   N     0.90898   0.86484   0.38953   0.00000  Uiso   1.00
O587   O     0.83333   0.83333   0.25000   0.00000  Uiso   1.00
O588   O     0.82360   0.79060   0.16625   0.00000  Uiso   1.00
O589   O     0.79354   0.87313   0.33749   0.00000  Uiso   1.00
O590   O     0.87755   0.84159   0.15877   0.00000  Uiso   1.00
O591   O     0.83865   0.82802   0.33749   0.00000  Uiso   1.00
O592   O     0.84515   0.74768   0.27821   0.00000  Uiso   1.00
O593   O     0.81247   0.92803   0.26767   0.00000  Uiso   1.00
O594   O     0.74119   0.79917   0.23607   0.00000  Uiso   1.00
O595   O     0.93452   0.85845   0.21806   0.00000  Uiso   1.00
O596   O     0.73656   0.85627   0.27820   0.00000  Uiso   1.00
O597   O     0.92106   0.81944   0.26768   0.00000  Uiso   1.00
O598   O     0.80467   0.73570   0.23607   0.00000  Uiso   1.00
O599   O     0.87104   0.92193   0.21806   0.00000  Uiso   1.00
Zn600  Zn    0.85910   0.80756   0.28278   0.00000  Uiso   1.00
Zn601  Zn    0.80125   0.79044   0.22258   0.00000  Uiso   1.00
Zn602  Zn    0.87833   0.86331   0.21188   0.00000  Uiso   1.00
Zn603  Zn    0.79465   0.87202   0.28277   0.00000  Uiso   1.00
C604   C     0.05253   0.15990   0.75867   0.00000  Uiso   1.00
C605   C     0.20152   0.13119   0.95837   0.00000  Uiso   1.00
C606   C     0.22768   0.11738   0.97750   0.00000  Uiso   1.00
C607   C     0.28112   0.17359   0.74116   0.00000  Uiso   1.00
C608   C     0.21777   0.12337   0.51886   0.00000  Uiso   1.00
C609   C     0.17873   0.13981   0.54089   0.00000  Uiso   1.00
C610   C     0.24604   0.11327   0.53864   0.00000  Uiso   1.00
C611   C     0.23690   0.12021   0.57968   0.00000  Uiso   1.00
C612   C     0.16976   0.14581   0.58226   0.00000  Uiso   1.00
C613   C     0.32714   0.17631   0.73751   0.00000  Uiso   1.00
C614   C     0.00713   0.15741   0.76203   0.00000  Uiso   1.00
C615   C     0.08858   0.19612   0.91950   0.00000  Uiso   1.00
C616   C     0.18217   0.32271   0.73800   0.00000  Uiso   1.00
C617   C     0.15190   0.01198   0.76164   0.00000  Uiso   1.00
C618   C     0.15544   0.05618   0.75930   0.00000  Uiso   1.00
C619   C     0.17724   0.27782   0.74133   0.00000  Uiso   1.00
C620   C     0.18833   0.14535   0.64397   0.00000  Uiso   1.00
C621   C     0.14542   0.18753   0.85615   0.00000  Uiso   1.00
C622   C     0.13147   0.19035   0.89951   0.00000  Uiso   1.00
C623   C     0.19842   0.13639   0.60129   0.00000  Uiso   1.00
C624   C     0.07279   0.19179   0.95959   0.00000  Uiso   1.00
C625   C     0.26504   0.09782   0.95356   0.00000  Uiso   1.00
C626   C     0.15911   0.18155   0.92040   0.00000  Uiso   1.00
C627   C     0.20543   0.19072   0.90325   0.00000  Uiso   1.00
C628   C     0.14161   0.17040   0.95963   0.00000  Uiso   1.00
C629   C     0.09859   0.17845   0.98002   0.00000  Uiso   1.00
C630   C     0.16546   0.15199   0.97933   0.00000  Uiso   1.00
C631   C     0.15094   0.15146   0.52079   0.00000  Uiso   1.00
C632   C     0.10873   0.16130   0.54056   0.00000  Uiso   1.00
C633   C     0.08206   0.17311   0.52041   0.00000  Uiso   1.00
H634   H     0.27585   0.10079   0.52228   0.00000  Uiso   1.00
H635   H     0.03240   0.17934   0.57143   0.00000  Uiso   1.00
H636   H     0.01777   0.15578   0.53169   0.00000  Uiso   1.00
H637   H     0.24205   0.32192   0.69750   0.00000  Uiso   1.00
H638   H     0.20803   0.01633   0.68715   0.00000  Uiso   1.00
H639   H     0.28096   0.13896   0.61010   0.00000  Uiso   1.00
H640   H     0.29118   0.09539   0.57980   0.00000  Uiso   1.00
H641   H     0.01693   0.19372   0.71482   0.00000  Uiso   1.00
H642   H     0.31798   0.13995   0.78499   0.00000  Uiso   1.00
H643   H     0.12362   0.33127   0.78265   0.00000  Uiso   1.00
H644   H     0.14191   0.16011   0.60052   0.00000  Uiso   1.00
H645   H     0.03970   0.19754   0.97410   0.00000  Uiso   1.00
H646   H     0.06693   0.20332   0.90395   0.00000  Uiso   1.00
H647   H     0.09461   0.15753   0.57141   0.00000  Uiso   1.00
H648   H     0.20889   0.12401   0.92677   0.00000  Uiso   1.00
N649   N     0.03827   0.18039   0.54112   0.00000  Uiso   1.00
N650   N     0.21891   0.00914   0.71005   0.00000  Uiso   1.00
N651   N     0.26631   0.11064   0.59961   0.00000  Uiso   1.00
N652   N     0.29494   0.08221   0.93440   0.00000  Uiso   1.00
N653   N     0.24231   0.19817   0.88953   0.00000  Uiso   1.00
O654   O     0.16667   0.16667   0.75000   0.00000  Uiso   1.00
O655   O     0.15693   0.12393   0.66625   0.00000  Uiso   1.00
O656   O     0.12687   0.20646   0.83749   0.00000  Uiso   1.00
O657   O     0.21088   0.17493   0.65877   0.00000  Uiso   1.00
O658   O     0.17198   0.16135   0.83749   0.00000  Uiso   1.00
O659   O     0.17849   0.08101   0.77821   0.00000  Uiso   1.00
O660   O     0.14581   0.26136   0.76767   0.00000  Uiso   1.00
O661   O     0.07452   0.13251   0.73607   0.00000  Uiso   1.00
O662   O     0.26785   0.19179   0.71806   0.00000  Uiso   1.00
O663   O     0.06990   0.18960   0.77820   0.00000  Uiso   1.00
O664   O     0.25440   0.15277   0.76768   0.00000  Uiso   1.00
O665   O     0.13800   0.06903   0.73607   0.00000  Uiso   1.00
O666   O     0.20437   0.25527   0.71806   0.00000  Uiso   1.00
Zn667  Zn    0.19244   0.14090   0.78278   0.00000  Uiso   1.00
Zn668  Zn    0.13459   0.12378   0.72258   0.00000  Uiso   1.00
Zn669  Zn    0.21166   0.19664   0.71188   0.00000  Uiso   1.00
Zn670  Zn    0.12798   0.20535   0.78277   0.00000  Uiso   1.00
C671   C     0.38586   0.15990   0.75867   0.00000  Uiso   1.00
C672   C     0.53485   0.13119   0.95837   0.00000  Uiso   1.00
C673   C     0.56101   0.11738   0.97750   0.00000  Uiso   1.00
C674   C     0.61445   0.17359   0.74116   0.00000  Uiso   1.00
C675   C     0.55110   0.12337   0.51886   0.00000  Uiso   1.00
C676   C     0.51206   0.13981   0.54089   0.00000  Uiso   1.00
C677   C     0.57937   0.11327   0.53864   0.00000  Uiso   1.00
C678   C     0.57023   0.12021   0.57968   0.00000  Uiso   1.00
C679   C     0.50310   0.14581   0.58226   0.00000  Uiso   1.00
C680   C     0.66047   0.17631   0.73751   0.00000  Uiso   1.00
C681   C     0.34046   0.15741   0.76203   0.00000  Uiso   1.00
C682   C     0.42192   0.19612   0.91950   0.00000  Uiso   1.00
C683   C     0.51550   0.32271   0.73800   0.00000  Uiso   1.00
C684   C     0.48523   0.01198   0.76164   0.00000  Uiso   1.00
C685   C     0.48878   0.05618   0.75930   0.00000  Uiso   1.00
C686   C     0.51057   0.27782   0.74133   0.00000  Uiso   1.00
C687   C     0.52167   0.14535   0.64397   0.00000  Uiso   1.00
C688   C     0.47875   0.18753   0.85615   0.00000  Uiso   1.00
C689   C     0.46481   0.19035   0.89951   0.00000  Uiso   1.00
C690   C     0.53175   0.13639   0.60129   0.00000  Uiso   1.00
C691   C     0.40612   0.19179   0.95959   0.00000  Uiso   1.00
C692   C     0.59838   0.09782   0.95356   0.00000  Uiso   1.00
C693   C     0.49244   0.18155   0.92040   0.00000  Uiso   1.00
C694   C     0.53876   0.19072   0.90325   0.00000  Uiso   1.00
C695   C     0.47494   0.17040   0.95963   0.00000  Uiso   1.00
C696   C     0.43193   0.17845   0.98002   0.00000  Uiso   1.00
C697   C     0.49879   0.15199   0.97933   0.00000  Uiso   1.00
C698   C     0.48428   0.15146   0.52079   0.00000  Uiso   1.00
C699   C     0.44206   0.16130   0.54056   0.00000  Uiso   1.00
C700   C     0.41539   0.17311   0.52041   0.00000  Uiso   1.00
H701   H     0.60918   0.10079   0.52228   0.00000  Uiso   1.00
H702   H     0.36573   0.17934   0.57143   0.00000  Uiso   1.00
H703   H     0.35110   0.15578   0.53169   0.00000  Uiso   1.00
H704   H     0.57539   0.32192   0.69750   0.00000  Uiso   1.00
H705   H     0.54137   0.01633   0.68715   0.00000  Uiso   1.00
H706   H     0.61429   0.13896   0.61010   0.00000  Uiso   1.00
H707   H     0.62451   0.09539   0.57980   0.00000  Uiso   1.00
H708   H     0.35027   0.19372   0.71482   0.00000  Uiso   1.00
H709   H     0.65131   0.13995   0.78499   0.00000  Uiso   1.00
H710   H     0.45695   0.33127   0.78265   0.00000  Uiso   1.00
H711   H     0.47524   0.16011   0.60052   0.00000  Uiso   1.00
H712   H     0.37303   0.19754   0.97410   0.00000  Uiso   1.00
H713   H     0.40026   0.20332   0.90395   0.00000  Uiso   1.00
H714   H     0.42795   0.15753   0.57141   0.00000  Uiso   1.00
H715   H     0.54223   0.12401   0.92677   0.00000  Uiso   1.00
N716   N     0.37160   0.18039   0.54112   0.00000  Uiso   1.00
N717   N     0.55224   0.00914   0.71005   0.00000  Uiso   1.00
N718   N     0.59964   0.11064   0.59961   0.00000  Uiso   1.00
N719   N     0.62827   0.08221   0.93440   0.00000  Uiso   1.00
N720   N     0.57565   0.19817   0.88953   0.00000  Uiso   1.00
O721   O     0.50000   0.16667   0.75000   0.00000  Uiso   1.00
O722   O     0.49027   0.12393   0.66625   0.00000  Uiso   1.00
O723   O     0.46020   0.20646   0.83749   0.00000  Uiso   1.00
O724   O     0.54421   0.17493   0.65877   0.00000  Uiso   1.00
O725   O     0.50532   0.16135   0.83749   0.00000  Uiso   1.00
O726   O     0.51182   0.08101   0.77821   0.00000  Uiso   1.00
O727   O     0.47914   0.26136   0.76767   0.00000  Uiso   1.00
O728   O     0.40785   0.13251   0.73607   0.00000  Uiso   1.00
O729   O     0.60119   0.19179   0.71806   0.00000  Uiso   1.00
O730   O     0.40323   0.18960   0.77820   0.00000  Uiso   1.00
O731   O     0.58773   0.15277   0.76768   0.00000  Uiso   1.00
O732   O     0.47133   0.06903   0.73607   0.00000  Uiso   1.00
O733   O     0.53771   0.25527   0.71806   0.00000  Uiso   1.00
Zn734  Zn    0.52577   0.14090   0.78278   0.00000  Uiso   1.00
Zn735  Zn    0.46792   0.12378   0.72258   0.00000  Uiso   1.00
Zn736  Zn    0.54500   0.19664   0.71188   0.00000  Uiso   1.00
Zn737  Zn    0.46131   0.20535   0.78277   0.00000  Uiso   1.00
C738   C     0.71920   0.15990   0.75867   0.00000  Uiso   1.00
C739   C     0.86818   0.13119   0.95837   0.00000  Uiso   1.00
C740   C     0.89435   0.11738   0.97750   0.00000  Uiso   1.00
C741   C     0.94779   0.17359   0.74116   0.00000  Uiso   1.00
C742   C     0.88443   0.12337   0.51886   0.00000  Uiso   1.00
C743   C     0.84540   0.13981   0.54089   0.00000  Uiso   1.00
C744   C     0.91270   0.11327   0.53864   0.00000  Uiso   1.00
C745   C     0.90357   0.12021   0.57968   0.00000  Uiso   1.00
C746   C     0.83643   0.14581   0.58226   0.00000  Uiso   1.00
C747   C     0.99381   0.17631   0.73751   0.00000  Uiso   1.00
C748   C     0.67380   0.15741   0.76203   0.00000  Uiso   1.00
C749   C     0.75525   0.19612   0.91950   0.00000  Uiso   1.00
C750   C     0.84883   0.32271   0.73800   0.00000  Uiso   1.00
C751   C     0.81856   0.01198   0.76164   0.00000  Uiso   1.00
C752   C     0.82211   0.05618   0.75930   0.00000  Uiso   1.00
C753   C     0.84390   0.27782   0.74133   0.00000  Uiso   1.00
C754   C     0.85500   0.14535   0.64397   0.00000  Uiso   1.00
C755   C     0.81208   0.18753   0.85615   0.00000  Uiso   1.00
C756   C     0.79814   0.19035   0.89951   0.00000  Uiso   1.00
C757   C     0.86509   0.13639   0.60129   0.00000  Uiso   1.00
C758   C     0.73946   0.19179   0.95959   0.00000  Uiso   1.00
C759   C     0.93171   0.09782   0.95356   0.00000  Uiso   1.00
C760   C     0.82577   0.18155   0.92040   0.00000  Uiso   1.00
C761   C     0.87209   0.19072   0.90325   0.00000  Uiso   1.00
C762   C     0.80827   0.17040   0.95963   0.00000  Uiso   1.00
C763   C     0.76526   0.17845   0.98002   0.00000  Uiso   1.00
C764   C     0.83212   0.15199   0.97933   0.00000  Uiso   1.00
C765   C     0.81761   0.15146   0.52079   0.00000  Uiso   1.00
C766   C     0.77540   0.16130   0.54056   0.00000  Uiso   1.00
C767   C     0.74872   0.17311   0.52041   0.00000  Uiso   1.00
H768   H     0.94252   0.10079   0.52228   0.00000  Uiso   1.00
H769   H     0.69907   0.17934   0.57143   0.00000  Uiso   1.00
H770   H     0.68444   0.15578   0.53169   0.00000  Uiso   1.00
H771   H     0.90872   0.32192   0.69750   0.00000  Uiso   1.00
H772   H     0.87470   0.01633   0.68715   0.00000  Uiso   1.00
H773   H     0.94763   0.13896   0.61010   0.00000  Uiso   1.00
H774   H     0.95785   0.09539   0.57980   0.00000  Uiso   1.00
H775   H     0.68360   0.19372   0.71482   0.00000  Uiso   1.00
H776   H     0.98465   0.13995   0.78499   0.00000  Uiso   1.00
H777   H     0.79029   0.33127   0.78265   0.00000  Uiso   1.00
H778   H     0.80858   0.16011   0.60052   0.00000  Uiso   1.00
H779   H     0.70637   0.19754   0.97410   0.00000  Uiso   1.00
H780   H     0.73360   0.20332   0.90395   0.00000  Uiso   1.00
H781   H     0.76128   0.15753   0.57141   0.00000  Uiso   1.00
H782   H     0.87556   0.12401   0.92677   0.00000  Uiso   1.00
N783   N     0.70493   0.18039   0.54112   0.00000  Uiso   1.00
N784   N     0.88557   0.00914   0.71005   0.00000  Uiso   1.00
N785   N     0.93297   0.11064   0.59961   0.00000  Uiso   1.00
N786   N     0.96160   0.08221   0.93440   0.00000  Uiso   1.00
N787   N     0.90898   0.19817   0.88953   0.00000  Uiso   1.00
O788   O     0.83333   0.16667   0.75000   0.00000  Uiso   1.00
O789   O     0.82360   0.12393   0.66625   0.00000  Uiso   1.00
O790   O     0.79354   0.20646   0.83749   0.00000  Uiso   1.00
O791   O     0.87755   0.17493   0.65877   0.00000  Uiso   1.00
O792   O     0.83865   0.16135   0.83749   0.00000  Uiso   1.00
O793   O     0.84515   0.08101   0.77821   0.00000  Uiso   1.00
O794   O     0.81247   0.26136   0.76767   0.00000  Uiso   1.00
O795   O     0.74119   0.13251   0.73607   0.00000  Uiso   1.00
O796   O     0.93452   0.19179   0.71806   0.00000  Uiso   1.00
O797   O     0.73656   0.18960   0.77820   0.00000  Uiso   1.00
O798   O     0.92106   0.15277   0.76768   0.00000  Uiso   1.00
O799   O     0.80467   0.06903   0.73607   0.00000  Uiso   1.00
O800   O     0.87104   0.25527   0.71806   0.00000  Uiso   1.00
Zn801  Zn    0.85910   0.14090   0.78278   0.00000  Uiso   1.00
Zn802  Zn    0.80125   0.12378   0.72258   0.00000  Uiso   1.00
Zn803  Zn    0.87833   0.19664   0.71188   0.00000  Uiso   1.00
Zn804  Zn    0.79465   0.20535   0.78277   0.00000  Uiso   1.00
C805   C     0.05253   0.49324   0.75867   0.00000  Uiso   1.00
C806   C     0.20152   0.46452   0.95837   0.00000  Uiso   1.00
C807   C     0.22768   0.45071   0.97750   0.00000  Uiso   1.00
C808   C     0.28112   0.50693   0.74116   0.00000  Uiso   1.00
C809   C     0.21777   0.45670   0.51886   0.00000  Uiso   1.00
C810   C     0.17873   0.47314   0.54089   0.00000  Uiso   1.00
C811   C     0.24604   0.44660   0.53864   0.00000  Uiso   1.00
C812   C     0.23690   0.45354   0.57968   0.00000  Uiso   1.00
C813   C     0.16976   0.47915   0.58226   0.00000  Uiso   1.00
C814   C     0.32714   0.50964   0.73751   0.00000  Uiso   1.00
C815   C     0.00713   0.49074   0.76203   0.00000  Uiso   1.00
C816   C     0.08858   0.52945   0.91950   0.00000  Uiso   1.00
C817   C     0.18217   0.65604   0.73800   0.00000  Uiso   1.00
C818   C     0.15190   0.34531   0.76164   0.00000  Uiso   1.00
C819   C     0.15544   0.38951   0.75930   0.00000  Uiso   1.00
C820   C     0.17724   0.61115   0.74133   0.00000  Uiso   1.00
C821   C     0.18833   0.47868   0.64397   0.00000  Uiso   1.00
C822   C     0.14542   0.52086   0.85615   0.00000  Uiso   1.00
C823   C     0.13147   0.52368   0.89951   0.00000  Uiso   1.00
C824   C     0.19842   0.46972   0.60129   0.00000  Uiso   1.00
C825   C     0.07279   0.52512   0.95959   0.00000  Uiso   1.00
C826   C     0.26504   0.43115   0.95356   0.00000  Uiso   1.00
C827   C     0.15911   0.51488   0.92040   0.00000  Uiso   1.00
C828   C     0.20543   0.52405   0.90325   0.00000  Uiso   1.00
C829   C     0.14161   0.50373   0.95963   0.00000  Uiso   1.00
C830   C     0.09859   0.51179   0.98002   0.00000  Uiso   1.00
C831   C     0.16546   0.48532   0.97933   0.00000  Uiso   1.00
C832   C     0.15094   0.48479   0.52079   0.00000  Uiso   1.00
C833   C     0.10873   0.49464   0.54056   0.00000  Uiso   1.00
C834   C     0.08206   0.50644   0.52041   0.00000  Uiso   1.00
H835   H     0.27585   0.43412   0.52228   0.00000  Uiso   1.00
H836   H     0.03240   0.51268   0.57143   0.00000  Uiso   1.00
H837   H     0.01777   0.48911   0.53169   0.00000  Uiso   1.00
H838   H     0.24205   0.65525   0.69750   0.00000  Uiso   1.00
H839   H     0.20803   0.34967   0.68715   0.00000  Uiso   1.00
H840   H     0.28096   0.47229   0.61010   0.00000  Uiso   1.00
H841   H     0.29118   0.42872   0.57980   0.00000  Uiso   1.00
H842   H     0.01693   0.52705   0.71482   0.00000  Uiso   1.00
H843   H     0.31798   0.47328   0.78499   0.00000  Uiso   1.00
H844   H     0.12362   0.66461   0.78265   0.00000  Uiso   1.00
H845   H     0.14191   0.49345   0.60052   0.00000  Uiso   1.00
H846   H     0.03970   0.53087   0.97410   0.00000  Uiso   1.00
H847   H     0.06693   0.53666   0.90395   0.00000  Uiso   1.00
H848   H     0.09461   0.49087   0.57141   0.00000  Uiso   1.00
H849   H     0.20889   0.45734   0.92677   0.00000  Uiso   1.00
N850   N     0.03827   0.51372   0.54112   0.00000  Uiso   1.00
N851   N     0.21891   0.34248   0.71005   0.00000  Uiso   1.00
N852   N     0.26631   0.44397   0.59961   0.00000  Uiso   1.00
N853   N     0.29494   0.41554   0.93440   0.00000  Uiso   1.00
N854   N     0.24231   0.53151   0.88953   0.00000  Uiso   1.00
O855   O     0.16667   0.50000   0.75000   0.00000  Uiso   1.00
O856   O     0.15693   0.45726   0.66625   0.00000  Uiso   1.00
O857   O     0.12687   0.53979   0.83749   0.00000  Uiso   1.00
O858   O     0.21088   0.50826   0.65877   0.00000  Uiso   1.00
O859   O     0.17198   0.49468   0.83749   0.00000  Uiso   1.00
O860   O     0.17849   0.41434   0.77821   0.00000  Uiso   1.00
O861   O     0.14581   0.59469   0.76767   0.00000  Uiso   1.00
O862   O     0.07452   0.46584   0.73607   0.00000  Uiso   1.00
O863   O     0.26785   0.52512   0.71806   0.00000  Uiso   1.00
O864   O     0.06990   0.52293   0.77820   0.00000  Uiso   1.00
O865   O     0.25440   0.48610   0.76768   0.00000  Uiso   1.00
O866   O     0.13800   0.40236   0.73607   0.00000  Uiso   1.00
O867   O     0.20437   0.58860   0.71806   0.00000  Uiso   1.00
Zn868  Zn    0.19244   0.47423   0.78278   0.00000  Uiso   1.00
Zn869  Zn    0.13459   0.45711   0.72258   0.00000  Uiso   1.00
Zn870  Zn    0.21166   0.52997   0.71188   0.00000  Uiso   1.00
Zn871  Zn    0.12798   0.53868   0.78277   0.00000  Uiso   1.00
C872   C     0.38586   0.49324   0.75867   0.00000  Uiso   1.00
C873   C     0.53485   0.46452   0.95837   0.00000  Uiso   1.00
C874   C     0.56101   0.45071   0.97750   0.00000  Uiso   1.00
C875   C     0.61445   0.50693   0.74116   0.00000  Uiso   1.00
C876   C     0.55110   0.45670   0.51886   0.00000  Uiso   1.00
C877   C     0.51206   0.47314   0.54089   0.00000  Uiso   1.00
C878   C     0.57937   0.44660   0.53864   0.00000  Uiso   1.00
C879   C     0.57023   0.45354   0.57968   0.00000  Uiso   1.00
C880   C     0.50310   0.47915   0.58226   0.00000  Uiso   1.00
C881   C     0.66047   0.50964   0.73751   0.00000  Uiso   1.00
C882   C     0.34046   0.49074   0.76203   0.00000  Uiso   1.00
C883   C     0.42192   0.52945   0.91950   0.00000  Uiso   1.00
C884   C     0.51550   0.65604   0.73800   0.00000  Uiso   1.00
C885   C     0.48523   0.34531   0.76164   0.00000  Uiso   1.00
C886   C     0.48878   0.38951   0.75930   0.00000  Uiso   1.00
C887   C     0.51057   0.61115   0.74133   0.00000  Uiso   1.00
C888   C     0.52167   0.47868   0.64397   0.00000  Uiso   1.00
C889   C     0.47875   0.52086   0.85615   0.00000  Uiso   1.00
C890   C     0.46481   0.52368   0.89951   0.00000  Uiso   1.00
C891   C     0.53175   0.46972   0.60129   0.00000  Uiso   1.00
C892   C     0.40612   0.52512   0.95959   0.00000  Uiso   1.00
C893   C     0.59838   0.43115   0.95356   0.00000  Uiso   1.00
C894   C     0.49244   0.51488   0.92040   0.00000  Uiso   1.00
C895   C     0.53876   0.52405   0.90325   0.00000  Uiso   1.00
C896   C     0.47494   0.50373   0.95963   0.00000  Uiso   1.00
C897   C     0.43193   0.51179   0.98002   0.00000  Uiso   1.00
C898   C     0.49879   0.48532   0.97933   0.00000  Uiso   1.00
C899   C     0.48428   0.48479   0.52079   0.00000  Uiso   1.00
C900   C     0.44206   0.49464   0.54056   0.00000  Uiso   1.00
C901   C     0.41539   0.50644   0.52041   0.00000  Uiso   1.00
H902   H     0.60918   0.43412   0.52228   0.00000  Uiso   1.00
H903   H     0.36573   0.51268   0.57143   0.00000  Uiso   1.00
H904   H     0.35110   0.48911   0.53169   0.00000  Uiso   1.00
H905   H     0.57539   0.65525   0.69750   0.00000  Uiso   1.00
H906   H     0.54137   0.34967   0.68715   0.00000  Uiso   1.00
H907   H     0.61429   0.47229   0.61010   0.00000  Uiso   1.00
H908   H     0.62451   0.42872   0.57980   0.00000  Uiso   1.00
H909   H     0.35027   0.52705   0.71482   0.00000  Uiso   1.00
H910   H     0.65131   0.47328   0.78499   0.00000  Uiso   1.00
H911   H     0.45695   0.66461   0.78265   0.00000  Uiso   1.00
H912   H     0.47524   0.49345   0.60052   0.00000  Uiso   1.00
H913   H     0.37303   0.53087   0.97410   0.00000  Uiso   1.00
H914   H     0.40026   0.53666   0.90395   0.00000  Uiso   1.00
H915   H     0.42795   0.49087   0.57141   0.00000  Uiso   1.00
H916   H     0.54223   0.45734   0.92677   0.00000  Uiso   1.00
N917   N     0.37160   0.51372   0.54112   0.00000  Uiso   1.00
N918   N     0.55224   0.34248   0.71005   0.00000  Uiso   1.00
N919   N     0.59964   0.44397   0.59961   0.00000  Uiso   1.00
N920   N     0.62827   0.41554   0.93440   0.00000  Uiso   1.00
N921   N     0.57565   0.53151   0.88953   0.00000  Uiso   1.00
O922   O     0.50000   0.50000   0.75000   0.00000  Uiso   1.00
O923   O     0.49027   0.45726   0.66625   0.00000  Uiso   1.00
O924   O     0.46020   0.53979   0.83749   0.00000  Uiso   1.00
O925   O     0.54421   0.50826   0.65877   0.00000  Uiso   1.00
O926   O     0.50532   0.49468   0.83749   0.00000  Uiso   1.00
O927   O     0.51182   0.41434   0.77821   0.00000  Uiso   1.00
O928   O     0.47914   0.59469   0.76767   0.00000  Uiso   1.00
O929   O     0.40785   0.46584   0.73607   0.00000  Uiso   1.00
O930   O     0.60119   0.52512   0.71806   0.00000  Uiso   1.00
O931   O     0.40323   0.52293   0.77820   0.00000  Uiso   1.00
O932   O     0.58773   0.48610   0.76768   0.00000  Uiso   1.00
O933   O     0.47133   0.40236   0.73607   0.00000  Uiso   1.00
O934   O     0.53771   0.58860   0.71806   0.00000  Uiso   1.00
Zn935  Zn    0.52577   0.47423   0.78278   0.00000  Uiso   1.00
Zn936  Zn    0.46792   0.45711   0.72258   0.00000  Uiso   1.00
Zn937  Zn    0.54500   0.52997   0.71188   0.00000  Uiso   1.00
Zn938  Zn    0.46131   0.53868   0.78277   0.00000  Uiso   1.00
C939   C     0.71920   0.49324   0.75867   0.00000  Uiso   1.00
C940   C     0.86818   0.46452   0.95837   0.00000  Uiso   1.00
C941   C     0.89435   0.45071   0.97750   0.00000  Uiso   1.00
C942   C     0.94779   0.50693   0.74116   0.00000  Uiso   1.00
C943   C     0.88443   0.45670   0.51886   0.00000  Uiso   1.00
C944   C     0.84540   0.47314   0.54089   0.00000  Uiso   1.00
C945   C     0.91270   0.44660   0.53864   0.00000  Uiso   1.00
C946   C     0.90357   0.45354   0.57968   0.00000  Uiso   1.00
C947   C     0.83643   0.47915   0.58226   0.00000  Uiso   1.00
C948   C     0.99381   0.50964   0.73751   0.00000  Uiso   1.00
C949   C     0.67380   0.49074   0.76203   0.00000  Uiso   1.00
C950   C     0.75525   0.52945   0.91950   0.00000  Uiso   1.00
C951   C     0.84883   0.65604   0.73800   0.00000  Uiso   1.00
C952   C     0.81856   0.34531   0.76164   0.00000  Uiso   1.00
C953   C     0.82211   0.38951   0.75930   0.00000  Uiso   1.00
C954   C     0.84390   0.61115   0.74133   0.00000  Uiso   1.00
C955   C     0.85500   0.47868   0.64397   0.00000  Uiso   1.00
C956   C     0.81208   0.52086   0.85615   0.00000  Uiso   1.00
C957   C     0.79814   0.52368   0.89951   0.00000  Uiso   1.00
C958   C     0.86509   0.46972   0.60129   0.00000  Uiso   1.00
C959   C     0.73946   0.52512   0.95959   0.00000  Uiso   1.00
C960   C     0.93171   0.43115   0.95356   0.00000  Uiso   1.00
C961   C     0.82577   0.51488   0.92040   0.00000  Uiso   1.00
C962   C     0.87209   0.52405   0.90325   0.00000  Uiso   1.00
C963   C     0.80827   0.50373   0.95963   0.00000  Uiso   1.00
C964   C     0.76526   0.51179   0.98002   0.00000  Uiso   1.00
C965   C     0.83212   0.48532   0.97933   0.00000  Uiso   1.00
C966   C     0.81761   0.48479   0.52079   0.00000  Uiso   1.00
C967   C     0.77540   0.49464   0.54056   0.00000  Uiso   1.00
C968   C     0.74872   0.50644   0.52041   0.00000  Uiso   1.00
H969   H     0.94252   0.43412   0.52228   0.00000  Uiso   1.00
H970   H     0.69907   0.51268   0.57143   0.00000  Uiso   1.00
H971   H     0.68444   0.48911   0.53169   0.00000  Uiso   1.00
H972   H     0.90872   0.65525   0.69750   0.00000  Uiso   1.00
H973   H     0.87470   0.34967   0.68715   0.00000  Uiso   1.00
H974   H     0.94763   0.47229   0.61010   0.00000  Uiso   1.00
H975   H     0.95785   0.42872   0.57980   0.00000  Uiso   1.00
H976   H     0.68360   0.52705   0.71482   0.00000  Uiso   1.00
H977   H     0.98465   0.47328   0.78499   0.00000  Uiso   1.00
H978   H     0.79029   0.66461   0.78265   0.00000  Uiso   1.00
H979   H     0.80858   0.49345   0.60052   0.00000  Uiso   1.00
H980   H     0.70637   0.53087   0.97410   0.00000  Uiso   1.00
H981   H     0.73360   0.53666   0.90395   0.00000  Uiso   1.00
H982   H     0.76128   0.49087   0.57141   0.00000  Uiso   1.00
H983   H     0.87556   0.45734   0.92677   0.00000  Uiso   1.00
N984   N     0.70493   0.51372   0.54112   0.00000  Uiso   1.00
N985   N     0.88557   0.34248   0.71005   0.00000  Uiso   1.00
N986   N     0.93297   0.44397   0.59961   0.00000  Uiso   1.00
N987   N     0.96160   0.41554   0.93440   0.00000  Uiso   1.00
N988   N     0.90898   0.53151   0.88953   0.00000  Uiso   1.00
O989   O     0.83333   0.50000   0.75000   0.00000  Uiso   1.00
O990   O     0.82360   0.45726   0.66625   0.00000  Uiso   1.00
O991   O     0.79354   0.53979   0.83749   0.00000  Uiso   1.00
O992   O     0.87755   0.50826   0.65877   0.00000  Uiso   1.00
O993   O     0.83865   0.49468   0.83749   0.00000  Uiso   1.00
O994   O     0.84515   0.41434   0.77821   0.00000  Uiso   1.00
O995   O     0.81247   0.59469   0.76767   0.00000  Uiso   1.00
O996   O     0.74119   0.46584   0.73607   0.00000  Uiso   1.00
O997   O     0.93452   0.52512   0.71806   0.00000  Uiso   1.00
O998   O     0.73656   0.52293   0.77820   0.00000  Uiso   1.00
O999   O     0.92106   0.48610   0.76768   0.00000  Uiso   1.00
O1000  O     0.80467   0.40236   0.73607   0.00000  Uiso   1.00
O1001  O     0.87104   0.58860   0.71806   0.00000  Uiso   1.00
Zn1002 Zn    0.85910   0.47423   0.78278   0.00000  Uiso   1.00
Zn1003 Zn    0.80125   0.45711   0.72258   0.00000  Uiso   1.00
Zn1004 Zn    0.87833   0.52997   0.71188   0.00000  Uiso   1.00
Zn1005 Zn    0.79465   0.53868   0.78277   0.00000  Uiso   1.00
C1006  C     0.05253   0.82657   0.75867   0.00000  Uiso   1.00
C1007  C     0.20152   0.79786   0.95837   0.00000  Uiso   1.00
C1008  C     0.22768   0.78405   0.97750   0.00000  Uiso   1.00
C1009  C     0.28112   0.84026   0.74116   0.00000  Uiso   1.00
C1010  C     0.21777   0.79003   0.51886   0.00000  Uiso   1.00
C1011  C     0.17873   0.80648   0.54089   0.00000  Uiso   1.00
C1012  C     0.24604   0.77994   0.53864   0.00000  Uiso   1.00
C1013  C     0.23690   0.78687   0.57968   0.00000  Uiso   1.00
C1014  C     0.16976   0.81248   0.58226   0.00000  Uiso   1.00
C1015  C     0.32714   0.84297   0.73751   0.00000  Uiso   1.00
C1016  C     0.00713   0.82408   0.76203   0.00000  Uiso   1.00
C1017  C     0.08858   0.86278   0.91950   0.00000  Uiso   1.00
C1018  C     0.18217   0.98938   0.73800   0.00000  Uiso   1.00
C1019  C     0.15190   0.67865   0.76164   0.00000  Uiso   1.00
C1020  C     0.15544   0.72284   0.75930   0.00000  Uiso   1.00
C1021  C     0.17724   0.94449   0.74133   0.00000  Uiso   1.00
C1022  C     0.18833   0.81201   0.64397   0.00000  Uiso   1.00
C1023  C     0.14542   0.85419   0.85615   0.00000  Uiso   1.00
C1024  C     0.13147   0.85701   0.89951   0.00000  Uiso   1.00
C1025  C     0.19842   0.80305   0.60129   0.00000  Uiso   1.00
C1026  C     0.07279   0.85846   0.95959   0.00000  Uiso   1.00
C1027  C     0.26504   0.76449   0.95356   0.00000  Uiso   1.00
C1028  C     0.15911   0.84821   0.92040   0.00000  Uiso   1.00
C1029  C     0.20543   0.85738   0.90325   0.00000  Uiso   1.00
C1030  C     0.14161   0.83706   0.95963   0.00000  Uiso   1.00
C1031  C     0.09859   0.84512   0.98002   0.00000  Uiso   1.00
C1032  C     0.16546   0.81865   0.97933   0.00000  Uiso   1.00
C1033  C     0.15094   0.81813   0.52079   0.00000  Uiso   1.00
C1034  C     0.10873   0.82797   0.54056   0.00000  Uiso   1.00
C1035  C     0.08206   0.83977   0.52041   0.00000  Uiso   1.00
H1036  H     0.27585   0.76745   0.52228   0.00000  Uiso   1.00
H1037  H     0.03240   0.84601   0.57143   0.00000  Uiso   1.00
H1038  H     0.01777   0.82244   0.53169   0.00000  Uiso   1.00
H1039  H     0.24205   0.98859   0.69750   0.00000  Uiso   1.00
H1040  H     0.20803   0.68300   0.68715   0.00000  Uiso   1.00
H1041  H     0.28096   0.80563   0.61010   0.00000  Uiso   1.00
H1042  H     0.29118   0.76206   0.57980   0.00000  Uiso   1.00
H1043  H     0.01693   0.86038   0.71482   0.00000  Uiso   1.00
H1044  H     0.31798   0.80661   0.78499   0.00000  Uiso   1.00
H1045  H     0.12362   0.99794   0.78265   0.00000  Uiso   1.00
H1046  H     0.14191   0.82678   0.60052   0.00000  Uiso   1.00
H1047  H     0.03970   0.86420   0.97410   0.00000  Uiso   1.00
H1048  H     0.06693   0.86999   0.90395   0.00000  Uiso   1.00
H1049  H     0.09461   0.82420   0.57141   0.00000  Uiso   1.00
H1050  H     0.20889   0.79068   0.92677   0.00000  Uiso   1.00
N1051  N     0.03827   0.84705   0.54112   0.00000  Uiso   1.00
N1052  N     0.21891   0.67581   0.71005   0.00000  Uiso   1.00
N1053  N     0.26631   0.77730   0.59961   0.00000  Uiso   1.00
N1054  N     0.29494   0.74888   0.93440   0.00000  Uiso   1.00
N1055  N     0.24231   0.86484   0.88953   0.00000  Uiso   1.00
O1056  O     0.16667   0.83333   0.75000   0.00000  Uiso   1.00
O1057  O     0.15693   0.79060   0.66625   0.00000  Uiso   1.00
O1058  O     0.12687   0.87313   0.83749   0.00000  Uiso   1.00
O1059  O     0.21088   0.84159   0.65877   0.00000  Uiso   1.00
O1060  O     0.17198   0.82802   0.83749   0.00000  Uiso   1.00
O1061  O     0.17849   0.74768   0.77821   0.00000  Uiso   1.00
O1062  O     0.14581   0.92803   0.76767   0.00000  Uiso   1.00
O1063  O     0.07452   0.79917   0.73607   0.00000  Uiso   1.00
O1064  O     0.26785   0.85845   0.71806   0.00000  Uiso   1.00
O1065  O     0.06990   0.85627   0.77820   0.00000  Uiso   1.00
O1066  O     0.25440   0.81944   0.76768   0.00000  Uiso   1.00
O1067  O     0.13800   0.73570   0.73607   0.00000  Uiso   1.00
O1068  O     0.20437   0.92193   0.71806   0.00000  Uiso   1.00
Zn1069 Zn    0.19244   0.80756   0.78278   0.00000  Uiso   1.00
Zn1070 Zn    0.13459   0.79044   0.72258   0.00000  Uiso   1.00
Zn1071 Zn    0.21166   0.86331   0.71188   0.00000  Uiso   1.00
Zn1072 Zn    0.12798   0.87202   0.78277   0.00000  Uiso   1.00
C1073  C     0.38586   0.82657   0.75867   0.00000  Uiso   1.00
C1074  C     0.53485   0.79786   0.95837   0.00000  Uiso   1.00
C1075  C     0.56101   0.78405   0.97750   0.00000  Uiso   1.00
C1076  C     0.61445   0.84026   0.74116   0.00000  Uiso   1.00
C1077  C     0.55110   0.79003   0.51886   0.00000  Uiso   1.00
C1078  C     0.51206   0.80648   0.54089   0.00000  Uiso   1.00
C1079  C     0.57937   0.77994   0.53864   0.00000  Uiso   1.00
C1080  C     0.57023   0.78687   0.57968   0.00000  Uiso   1.00
C1081  C     0.50310   0.81248   0.58226   0.00000  Uiso   1.00
C1082  C     0.66047   0.84297   0.73751   0.00000  Uiso   1.00
C1083  C     0.34046   0.82408   0.76203   0.00000  Uiso   1.00
C1084  C     0.42192   0.86278   0.91950   0.00000  Uiso   1.00
C1085  C     0.51550   0.98938   0.73800   0.00000  Uiso   1.00
C1086  C     0.48523   0.67865   0.76164   0.00000  Uiso   1.00
C1087  C     0.48878   0.72284   0.75930   0.00000  Uiso   1.00
C1088  C     0.51057   0.94449   0.74133   0.00000  Uiso   1.00
C1089  C     0.52167   0.81201   0.64397   0.00000  Uiso   1.00
C1090  C     0.47875   0.85419   0.85615   0.00000  Uiso   1.00
C1091  C     0.46481   0.85701   0.89951   0.00000  Uiso   1.00
C1092  C     0.53175   0.80305   0.60129   0.00000  Uiso   1.00
C1093  C     0.40612   0.85846   0.95959   0.00000  Uiso   1.00
C1094  C     0.59838   0.76449   0.95356   0.00000  Uiso   1.00
C1095  C     0.49244   0.84821   0.92040   0.00000  Uiso   1.00
C1096  C     0.53876   0.85738   0.90325   0.00000  Uiso   1.00
C1097  C     0.47494   0.83706   0.95963   0.00000  Uiso   1.00
C1098  C     0.43193   0.84512   0.98002   0.00000  Uiso   1.00
C1099  C     0.49879   0.81865   0.97933   0.00000  Uiso   1.00
C1100  C     0.48428   0.81813   0.52079   0.00000  Uiso   1.00
C1101  C     0.44206   0.82797   0.54056   0.00000  Uiso   1.00
C1102  C     0.41539   0.83977   0.52041   0.00000  Uiso   1.00
H1103  H     0.60918   0.76745   0.52228   0.00000  Uiso   1.00
H1104  H     0.36573   0.84601   0.57143   0.00000  Uiso   1.00
H1105  H     0.35110   0.82244   0.53169   0.00000  Uiso   1.00
H1106  H     0.57539   0.98859   0.69750   0.00000  Uiso   1.00
H1107  H     0.54137   0.68300   0.68715   0.00000  Uiso   1.00
H1108  H     0.61429   0.80563   0.61010   0.00000  Uiso   1.00
H1109  H     0.62451   0.76206   0.57980   0.00000  Uiso   1.00
H1110  H     0.35027   0.86038   0.71482   0.00000  Uiso   1.00
H1111  H     0.65131   0.80661   0.78499   0.00000  Uiso   1.00
H1112  H     0.45695   0.99794   0.78265   0.00000  Uiso   1.00
H1113  H     0.47524   0.82678   0.60052   0.00000  Uiso   1.00
H1114  H     0.37303   0.86420   0.97410   0.00000  Uiso   1.00
H1115  H     0.40026   0.86999   0.90395   0.00000  Uiso   1.00
H1116  H     0.42795   0.82420   0.57141   0.00000  Uiso   1.00
H1117  H     0.54223   0.79068   0.92677   0.00000  Uiso   1.00
N1118  N     0.37160   0.84705   0.54112   0.00000  Uiso   1.00
N1119  N     0.55224   0.67581   0.71005   0.00000  Uiso   1.00
N1120  N     0.59964   0.77730   0.59961   0.00000  Uiso   1.00
N1121  N     0.62827   0.74888   0.93440   0.00000  Uiso   1.00
N1122  N     0.57565   0.86484   0.88953   0.00000  Uiso   1.00
O1123  O     0.50000   0.83333   0.75000   0.00000  Uiso   1.00
O1124  O     0.49027   0.79060   0.66625   0.00000  Uiso   1.00
O1125  O     0.46020   0.87313   0.83749   0.00000  Uiso   1.00
O1126  O     0.54421   0.84159   0.65877   0.00000  Uiso   1.00
O1127  O     0.50532   0.82802   0.83749   0.00000  Uiso   1.00
O1128  O     0.51182   0.74768   0.77821   0.00000  Uiso   1.00
O1129  O     0.47914   0.92803   0.76767   0.00000  Uiso   1.00
O1130  O     0.40785   0.79917   0.73607   0.00000  Uiso   1.00
O1131  O     0.60119   0.85845   0.71806   0.00000  Uiso   1.00
O1132  O     0.40323   0.85627   0.77820   0.00000  Uiso   1.00
O1133  O     0.58773   0.81944   0.76768   0.00000  Uiso   1.00
O1134  O     0.47133   0.73570   0.73607   0.00000  Uiso   1.00
O1135  O     0.53771   0.92193   0.71806   0.00000  Uiso   1.00
Zn1136 Zn    0.52577   0.80756   0.78278   0.00000  Uiso   1.00
Zn1137 Zn    0.46792   0.79044   0.72258   0.00000  Uiso   1.00
Zn1138 Zn    0.54500   0.86331   0.71188   0.00000  Uiso   1.00
Zn1139 Zn    0.46131   0.87202   0.78277   0.00000  Uiso   1.00
C1140  C     0.71920   0.82657   0.75867   0.00000  Uiso   1.00
C1141  C     0.86818   0.79786   0.95837   0.00000  Uiso   1.00
C1142  C     0.89435   0.78405   0.97750   0.00000  Uiso   1.00
C1143  C     0.94779   0.84026   0.74116   0.00000  Uiso   1.00
C1144  C     0.88443   0.79003   0.51886   0.00000  Uiso   1.00
C1145  C     0.84540   0.80648   0.54089   0.00000  Uiso   1.00
C1146  C     0.91270   0.77994   0.53864   0.00000  Uiso   1.00
C1147  C     0.90357   0.78687   0.57968   0.00000  Uiso   1.00
C1148  C     0.83643   0.81248   0.58226   0.00000  Uiso   1.00
C1149  C     0.99381   0.84297   0.73751   0.00000  Uiso   1.00
C1150  C     0.67380   0.82408   0.76203   0.00000  Uiso   1.00
C1151  C     0.75525   0.86278   0.91950   0.00000  Uiso   1.00
C1152  C     0.84883   0.98938   0.73800   0.00000  Uiso   1.00
C1153  C     0.81856   0.67865   0.76164   0.00000  Uiso   1.00
C1154  C     0.82211   0.72284   0.75930   0.00000  Uiso   1.00
C1155  C     0.84390   0.94449   0.74133   0.00000  Uiso   1.00
C1156  C     0.85500   0.81201   0.64397   0.00000  Uiso   1.00
C1157  C     0.81208   0.85419   0.85615   0.00000  Uiso   1.00
C1158  C     0.79814   0.85701   0.89951   0.00000  Uiso   1.00
C1159  C     0.86509   0.80305   0.60129   0.00000  Uiso   1.00
C1160  C     0.73946   0.85846   0.95959   0.00000  Uiso   1.00
C1161  C     0.93171   0.76449   0.95356   0.00000  Uiso   1.00
C1162  C     0.82577   0.84821   0.92040   0.00000  Uiso   1.00
C1163  C     0.87209   0.85738   0.90325   0.00000  Uiso   1.00
C1164  C     0.80827   0.83706   0.95963   0.00000  Uiso   1.00
C1165  C     0.76526   0.84512   0.98002   0.00000  Uiso   1.00
C1166  C     0.83212   0.81865   0.97933   0.00000  Uiso   1.00
C1167  C     0.81761   0.81813   0.52079   0.00000  Uiso   1.00
C1168  C     0.77540   0.82797   0.54056   0.00000  Uiso   1.00
C1169  C     0.74872   0.83977   0.52041   0.00000  Uiso   1.00
H1170  H     0.94252   0.76745   0.52228   0.00000  Uiso   1.00
H1171  H     0.69907   0.84601   0.57143   0.00000  Uiso   1.00
H1172  H     0.68444   0.82244   0.53169   0.00000  Uiso   1.00
H1173  H     0.90872   0.98859   0.69750   0.00000  Uiso   1.00
H1174  H     0.87470   0.68300   0.68715   0.00000  Uiso   1.00
H1175  H     0.94763   0.80563   0.61010   0.00000  Uiso   1.00
H1176  H     0.95785   0.76206   0.57980   0.00000  Uiso   1.00
H1177  H     0.68360   0.86038   0.71482   0.00000  Uiso   1.00
H1178  H     0.98465   0.80661   0.78499   0.00000  Uiso   1.00
H1179  H     0.79029   0.99794   0.78265   0.00000  Uiso   1.00
H1180  H     0.80858   0.82678   0.60052   0.00000  Uiso   1.00
H1181  H     0.70637   0.86420   0.97410   0.00000  Uiso   1.00
H1182  H     0.73360   0.86999   0.90395   0.00000  Uiso   1.00
H1183  H     0.76128   0.82420   0.57141   0.00000  Uiso   1.00
H1184  H     0.87556   0.79068   0.92677   0.00000  Uiso   1.00
N1185  N     0.70493   0.84705   0.54112   0.00000  Uiso   1.00
N1186  N     0.88557   0.67581   0.71005   0.00000  Uiso   1.00
N1187  N     0.93297   0.77730   0.59961   0.00000  Uiso   1.00
N1188  N     0.96160   0.74888   0.93440   0.00000  Uiso   1.00
N1189  N     0.90898   0.86484   0.88953   0.00000  Uiso   1.00
O1190  O     0.83333   0.83333   0.75000   0.00000  Uiso   1.00
O1191  O     0.82360   0.79060   0.66625   0.00000  Uiso   1.00
O1192  O     0.79354   0.87313   0.83749   0.00000  Uiso   1.00
O1193  O     0.87755   0.84159   0.65877   0.00000  Uiso   1.00
O1194  O     0.83865   0.82802   0.83749   0.00000  Uiso   1.00
O1195  O     0.84515   0.74768   0.77821   0.00000  Uiso   1.00
O1196  O     0.81247   0.92803   0.76767   0.00000  Uiso   1.00
O1197  O     0.74119   0.79917   0.73607   0.00000  Uiso   1.00
O1198  O     0.93452   0.85845   0.71806   0.00000  Uiso   1.00
O1199  O     0.73656   0.85627   0.77820   0.00000  Uiso   1.00
O1200  O     0.92106   0.81944   0.76768   0.00000  Uiso   1.00
O1201  O     0.80467   0.73570   0.73607   0.00000  Uiso   1.00
O1202  O     0.87104   0.92193   0.71806   0.00000  Uiso   1.00
Zn1203 Zn    0.85910   0.80756   0.78278   0.00000  Uiso   1.00
Zn1204 Zn    0.80125   0.79044   0.72258   0.00000  Uiso   1.00
Zn1205 Zn    0.87833   0.86331   0.71188   0.00000  Uiso   1.00
Zn1206 Zn    0.79465   0.87202   0.78277   0.00000  Uiso   1.00
loop_
_geom_bond_atom_site_label_1
_geom_bond_atom_site_label_2
_geom_bond_distance
_geom_bond_site_symmetry_2
_ccdc_geom_bond_type
C1     O58     1.272   .     A
C1     O60     1.272   .     A
C1     C11     1.438   .     S
C2     C3      1.390   .     A
C2     C27     1.409   .     A
C2     H45     1.081   .     S
C3     C22     1.447   .     S
C3     C608    1.407   .     S
C4     O59     1.279   .     A
C4     C10     1.455   .     S
C4     O61     1.275   .     A
C5     C6      1.424   .     A
C5     C7      1.410   .     A
C5     C606    1.407   1_554 S
C6     C9      1.409   .     A
C6     C28     1.426   .     A
C7     C8      1.399   .     A
C7     H31     1.083   .     S
C8     N48     1.438   .     S
C8     C20     1.402   .     A
C9     H41     1.079   .     S
C9     C20     1.393   .     A
C10    C78     1.335   .     S
C10    H105    1.088   .     S
C11    C144    1.335   1_455 S
C11    H173    1.086   1_455 S
C12    C19     1.398   .     A
C12    C21     1.390   .     A
C12    H43     1.083   .     S
C13    C16     1.463   .     S
C13    C215    1.338   .     S
C13    N248    1.443   .     S
C14    C15     1.438   .     S
C14    C415    1.338   1_545 S
C14    H442    1.086   1_545 S
C15    O56     1.277   .     A
C15    O62     1.275   .     A
C16    O63     1.269   .     A
C16    O57     1.275   .     A
C17    O54     1.271   .     A
C17    C20     1.458   .     S
C17    O52     1.274   .     A
C18    O53     1.284   .     A
C18    O55     1.285   .     A
C18    C19     1.473   .     S
C19    C23     1.405   .     A
C21    C26     1.407   .     A
C21    H42     1.083   .     S
C22    N49     1.157   .     T
C23    C24     1.453   .     S
C23    C25     1.423   .     A
C24    N50     1.158   .     T
C25    C27     1.425   .     A
C25    C26     1.422   .     A
C26    C633    1.408   .     S
C27    C631    1.416   .     S
C28    C29     1.412   .     A
C28    C630    1.416   1_554 S
C29    C30     1.400   .     A
C29    H44     1.077   .     S
C30    N46     1.440   .     S
C30    C629    1.408   1_554 S
H32    N46     1.046   .     S
H33    N46     1.046   .     S
H34    N248    1.044   .     S
H35    N47     1.046   .     S
H36    N48     1.045   .     S
H37    N48     1.046   .     S
H38    C144    1.088   1_455 S
H39    C78     1.086   .     S
H40    C215    1.086   .     S
N47    C415    1.443   1_545 S
N47    H436    1.044   1_545 S
O51    Zn67    1.939   .     S
O51    Zn64    1.957   .     S
O51    Zn65    1.942   .     S
O51    Zn66    1.926   .     S
O52    Zn65    1.927   .     S
O53    Zn67    1.936   .     S
O54    Zn66    1.934   .     S
O55    Zn64    1.927   .     S
O56    Zn64    1.929   .     S
O57    Zn67    1.928   .     S
O58    Zn65    1.928   .     S
O59    Zn66    1.937   .     S
O60    Zn67    1.930   .     S
O61    Zn64    1.921   .     S
O62    Zn65    1.936   .     S
O63    Zn66    1.934   .     S
C68    O125    1.272   .     A
C68    O127    1.272   .     A
C68    C78     1.438   .     S
C69    C70     1.390   .     A
C69    C94     1.409   .     A
C69    H112    1.081   .     S
C70    C89     1.447   .     S
C70    C675    1.407   .     S
C71    O126    1.279   .     A
C71    C77     1.455   .     S
C71    O128    1.275   .     A
C72    C73     1.424   .     A
C72    C74     1.410   .     A
C72    C673    1.407   1_554 S
C73    C76     1.409   .     A
C73    C95     1.426   .     A
C74    C75     1.399   .     A
C74    H98     1.083   .     S
C75    N115    1.438   .     S
C75    C87     1.402   .     A
C76    H108    1.079   .     S
C76    C87     1.393   .     A
C77    C145    1.335   .     S
C77    H172    1.088   .     S
C79    C86     1.398   .     A
C79    C88     1.390   .     A
C79    H110    1.083   .     S
C80    C83     1.463   .     S
C80    C282    1.338   .     S
C80    N315    1.443   .     S
C81    C82     1.438   .     S
C81    C482    1.338   1_545 S
C81    H509    1.086   1_545 S
C82    O123    1.277   .     A
C82    O129    1.275   .     A
C83    O130    1.269   .     A
C83    O124    1.275   .     A
C84    O121    1.271   .     A
C84    C87     1.458   .     S
C84    O119    1.274   .     A
C85    O120    1.284   .     A
C85    O122    1.285   .     A
C85    C86     1.473   .     S
C86    C90     1.405   .     A
C88    C93     1.407   .     A
C88    H109    1.083   .     S
C89    N116    1.157   .     T
C90    C91     1.453   .     S
C90    C92     1.423   .     A
C91    N117    1.158   .     T
C92    C94     1.425   .     A
C92    C93     1.422   .     A
C93    C700    1.408   .     S
C94    C698    1.416   .     S
C95    C96     1.412   .     A
C95    C697    1.416   1_554 S
C96    C97     1.400   .     A
C96    H111    1.077   .     S
C97    N113    1.440   .     S
C97    C696    1.408   1_554 S
H99    N113    1.046   .     S
H100   N113    1.046   .     S
H101   N315    1.044   .     S
H102   N114    1.046   .     S
H103   N115    1.045   .     S
H104   N115    1.046   .     S
H106   C145    1.086   .     S
H107   C282    1.086   .     S
N114   C482    1.443   1_545 S
N114   H503    1.044   1_545 S
O118   Zn134   1.939   .     S
O118   Zn131   1.957   .     S
O118   Zn132   1.942   .     S
O118   Zn133   1.926   .     S
O119   Zn132   1.927   .     S
O120   Zn134   1.936   .     S
O121   Zn133   1.934   .     S
O122   Zn131   1.927   .     S
O123   Zn131   1.929   .     S
O124   Zn134   1.928   .     S
O125   Zn132   1.928   .     S
O126   Zn133   1.937   .     S
O127   Zn134   1.930   .     S
O128   Zn131   1.921   .     S
O129   Zn132   1.936   .     S
O130   Zn133   1.934   .     S
C135   O192    1.272   .     A
C135   O194    1.272   .     A
C135   C145    1.438   .     S
C136   C137    1.390   .     A
C136   C161    1.409   .     A
C136   H179    1.081   .     S
C137   C156    1.447   .     S
C137   C742    1.407   .     S
C138   O193    1.279   .     A
C138   C144    1.455   .     S
C138   O195    1.275   .     A
C139   C140    1.424   .     A
C139   C141    1.410   .     A
C139   C740    1.407   1_554 S
C140   C143    1.409   .     A
C140   C162    1.426   .     A
C141   C142    1.399   .     A
C141   H165    1.083   .     S
C142   N182    1.438   .     S
C142   C154    1.402   .     A
C143   H175    1.079   .     S
C143   C154    1.393   .     A
C144   C11     1.335   1_655 S
C144   H38     1.088   1_655 S
C146   C153    1.398   .     A
C146   C155    1.390   .     A
C146   H177    1.083   .     S
C147   C150    1.463   .     S
C147   C349    1.338   .     S
C147   N382    1.443   .     S
C148   C149    1.438   .     S
C148   C549    1.338   1_545 S
C148   H576    1.086   1_545 S
C149   O190    1.277   .     A
C149   O196    1.275   .     A
C150   O197    1.269   .     A
C150   O191    1.275   .     A
C151   O188    1.271   .     A
C151   C154    1.458   .     S
C151   O186    1.274   .     A
C152   O187    1.284   .     A
C152   O189    1.285   .     A
C152   C153    1.473   .     S
C153   C157    1.405   .     A
C155   C160    1.407   .     A
C155   H176    1.083   .     S
C156   N183    1.157   .     T
C157   C158    1.453   .     S
C157   C159    1.423   .     A
C158   N184    1.158   .     T
C159   C161    1.425   .     A
C159   C160    1.422   .     A
C160   C767    1.408   .     S
C161   C765    1.416   .     S
C162   C163    1.412   .     A
C162   C764    1.416   1_554 S
C163   C164    1.400   .     A
C163   H178    1.077   .     S
C164   N180    1.440   .     S
C164   C763    1.408   1_554 S
H166   N180    1.046   .     S
H167   N180    1.046   .     S
H168   N382    1.044   .     S
H169   N181    1.046   .     S
H170   N182    1.045   .     S
H171   N182    1.046   .     S
H173   C11     1.086   1_655 S
H174   C349    1.086   .     S
N181   C549    1.443   1_545 S
N181   H570    1.044   1_545 S
O185   Zn201   1.939   .     S
O185   Zn198   1.957   .     S
O185   Zn199   1.942   .     S
O185   Zn200   1.926   .     S
O186   Zn199   1.927   .     S
O187   Zn201   1.936   .     S
O188   Zn200   1.934   .     S
O189   Zn198   1.927   .     S
O190   Zn198   1.929   .     S
O191   Zn201   1.928   .     S
O192   Zn199   1.928   .     S
O193   Zn200   1.937   .     S
O194   Zn201   1.930   .     S
O195   Zn198   1.921   .     S
O196   Zn199   1.936   .     S
O197   Zn200   1.934   .     S
C202   O259    1.272   .     A
C202   O261    1.272   .     A
C202   C212    1.438   .     S
C203   C204    1.390   .     A
C203   C228    1.409   .     A
C203   H246    1.081   .     S
C204   C223    1.447   .     S
C204   C809    1.407   .     S
C205   O260    1.279   .     A
C205   C211    1.455   .     S
C205   O262    1.275   .     A
C206   C207    1.424   .     A
C206   C208    1.410   .     A
C206   C807    1.407   1_554 S
C207   C210    1.409   .     A
C207   C229    1.426   .     A
C208   C209    1.399   .     A
C208   H232    1.083   .     S
C209   N249    1.438   .     S
C209   C221    1.402   .     A
C210   H242    1.079   .     S
C210   C221    1.393   .     A
C211   C279    1.335   .     S
C211   H306    1.088   .     S
C212   C345    1.335   1_455 S
C212   H374    1.086   1_455 S
C213   C220    1.398   .     A
C213   C222    1.390   .     A
C213   H244    1.083   .     S
C214   C217    1.463   .     S
C214   C416    1.338   .     S
C214   N449    1.443   .     S
C215   C216    1.438   .     S
C216   O257    1.277   .     A
C216   O263    1.275   .     A
C217   O264    1.269   .     A
C217   O258    1.275   .     A
C218   O255    1.271   .     A
C218   C221    1.458   .     S
C218   O253    1.274   .     A
C219   O254    1.284   .     A
C219   O256    1.285   .     A
C219   C220    1.473   .     S
C220   C224    1.405   .     A
C222   C227    1.407   .     A
C222   H243    1.083   .     S
C223   N250    1.157   .     T
C224   C225    1.453   .     S
C224   C226    1.423   .     A
C225   N251    1.158   .     T
C226   C228    1.425   .     A
C226   C227    1.422   .     A
C227   C834    1.408   .     S
C228   C832    1.416   .     S
C229   C230    1.412   .     A
C229   C831    1.416   1_554 S
C230   C231    1.400   .     A
C230   H245    1.077   .     S
C231   N247    1.440   .     S
C231   C830    1.408   1_554 S
H233   N247    1.046   .     S
H234   N247    1.046   .     S
H235   N449    1.044   .     S
H236   N248    1.046   .     S
H237   N249    1.045   .     S
H238   N249    1.046   .     S
H239   C345    1.088   1_455 S
H240   C279    1.086   .     S
H241   C416    1.086   .     S
O252   Zn268   1.939   .     S
O252   Zn265   1.957   .     S
O252   Zn266   1.942   .     S
O252   Zn267   1.926   .     S
O253   Zn266   1.927   .     S
O254   Zn268   1.936   .     S
O255   Zn267   1.934   .     S
O256   Zn265   1.927   .     S
O257   Zn265   1.929   .     S
O258   Zn268   1.928   .     S
O259   Zn266   1.928   .     S
O260   Zn267   1.937   .     S
O261   Zn268   1.930   .     S
O262   Zn265   1.921   .     S
O263   Zn266   1.936   .     S
O264   Zn267   1.934   .     S
C269   O326    1.272   .     A
C269   O328    1.272   .     A
C269   C279    1.438   .     S
C270   C271    1.390   .     A
C270   C295    1.409   .     A
C270   H313    1.081   .     S
C271   C290    1.447   .     S
C271   C876    1.407   .     S
C272   O327    1.279   .     A
C272   C278    1.455   .     S
C272   O329    1.275   .     A
C273   C274    1.424   .     A
C273   C275    1.410   .     A
C273   C874    1.407   1_554 S
C274   C277    1.409   .     A
C274   C296    1.426   .     A
C275   C276    1.399   .     A
C275   H299    1.083   .     S
C276   N316    1.438   .     S
C276   C288    1.402   .     A
C277   H309    1.079   .     S
C277   C288    1.393   .     A
C278   C346    1.335   .     S
C278   H373    1.088   .     S
C280   C287    1.398   .     A
C280   C289    1.390   .     A
C280   H311    1.083   .     S
C281   C284    1.463   .     S
C281   C483    1.338   .     S
C281   N516    1.443   .     S
C282   C283    1.438   .     S
C283   O324    1.277   .     A
C283   O330    1.275   .     A
C284   O331    1.269   .     A
C284   O325    1.275   .     A
C285   O322    1.271   .     A
C285   C288    1.458   .     S
C285   O320    1.274   .     A
C286   O321    1.284   .     A
C286   O323    1.285   .     A
C286   C287    1.473   .     S
C287   C291    1.405   .     A
C289   C294    1.407   .     A
C289   H310    1.083   .     S
C290   N317    1.157   .     T
C291   C292    1.453   .     S
C291   C293    1.423   .     A
C292   N318    1.158   .     T
C293   C295    1.425   .     A
C293   C294    1.422   .     A
C294   C901    1.408   .     S
C295   C899    1.416   .     S
C296   C297    1.412   .     A
C296   C898    1.416   1_554 S
C297   C298    1.400   .     A
C297   H312    1.077   .     S
C298   N314    1.440   .     S
C298   C897    1.408   1_554 S
H300   N314    1.046   .     S
H301   N314    1.046   .     S
H302   N516    1.044   .     S
H303   N315    1.046   .     S
H304   N316    1.045   .     S
H305   N316    1.046   .     S
H307   C346    1.086   .     S
H308   C483    1.086   .     S
O319   Zn335   1.939   .     S
O319   Zn332   1.957   .     S
O319   Zn333   1.942   .     S
O319   Zn334   1.926   .     S
O320   Zn333   1.927   .     S
O321   Zn335   1.936   .     S
O322   Zn334   1.934   .     S
O323   Zn332   1.927   .     S
O324   Zn332   1.929   .     S
O325   Zn335   1.928   .     S
O326   Zn333   1.928   .     S
O327   Zn334   1.937   .     S
O328   Zn335   1.930   .     S
O329   Zn332   1.921   .     S
O330   Zn333   1.936   .     S
O331   Zn334   1.934   .     S
C336   O393    1.272   .     A
C336   O395    1.272   .     A
C336   C346    1.438   .     S
C337   C338    1.390   .     A
C337   C362    1.409   .     A
C337   H380    1.081   .     S
C338   C357    1.447   .     S
C338   C943    1.407   .     S
C339   O394    1.279   .     A
C339   C345    1.455   .     S
C339   O396    1.275   .     A
C340   C341    1.424   .     A
C340   C342    1.410   .     A
C340   C941    1.407   1_554 S
C341   C344    1.409   .     A
C341   C363    1.426   .     A
C342   C343    1.399   .     A
C342   H366    1.083   .     S
C343   N383    1.438   .     S
C343   C355    1.402   .     A
C344   H376    1.079   .     S
C344   C355    1.393   .     A
C345   C212    1.335   1_655 S
C345   H239    1.088   1_655 S
C347   C354    1.398   .     A
C347   C356    1.390   .     A
C347   H378    1.083   .     S
C348   C351    1.463   .     S
C348   C550    1.338   .     S
C348   N583    1.443   .     S
C349   C350    1.438   .     S
C350   O391    1.277   .     A
C350   O397    1.275   .     A
C351   O398    1.269   .     A
C351   O392    1.275   .     A
C352   O389    1.271   .     A
C352   C355    1.458   .     S
C352   O387    1.274   .     A
C353   O388    1.284   .     A
C353   O390    1.285   .     A
C353   C354    1.473   .     S
C354   C358    1.405   .     A
C356   C361    1.407   .     A
C356   H377    1.083   .     S
C357   N384    1.157   .     T
C358   C359    1.453   .     S
C358   C360    1.423   .     A
C359   N385    1.158   .     T
C360   C362    1.425   .     A
C360   C361    1.422   .     A
C361   C968    1.408   .     S
C362   C966    1.416   .     S
C363   C364    1.412   .     A
C363   C965    1.416   1_554 S
C364   C365    1.400   .     A
C364   H379    1.077   .     S
C365   N381    1.440   .     S
C365   C964    1.408   1_554 S
H367   N381    1.046   .     S
H368   N381    1.046   .     S
H369   N583    1.044   .     S
H370   N382    1.046   .     S
H371   N383    1.045   .     S
H372   N383    1.046   .     S
H374   C212    1.086   1_655 S
H375   C550    1.086   .     S
O386   Zn402   1.939   .     S
O386   Zn399   1.957   .     S
O386   Zn400   1.942   .     S
O386   Zn401   1.926   .     S
O387   Zn400   1.927   .     S
O388   Zn402   1.936   .     S
O389   Zn401   1.934   .     S
O390   Zn399   1.927   .     S
O391   Zn399   1.929   .     S
O392   Zn402   1.928   .     S
O393   Zn400   1.928   .     S
O394   Zn401   1.937   .     S
O395   Zn402   1.930   .     S
O396   Zn399   1.921   .     S
O397   Zn400   1.936   .     S
O398   Zn401   1.934   .     S
C403   O460    1.272   .     A
C403   O462    1.272   .     A
C403   C413    1.438   .     S
C404   C405    1.390   .     A
C404   C429    1.409   .     A
C404   H447    1.081   .     S
C405   C424    1.447   .     S
C405   C1010   1.407   .     S
C406   O461    1.279   .     A
C406   C412    1.455   .     S
C406   O463    1.275   .     A
C407   C408    1.424   .     A
C407   C409    1.410   .     A
C407   C1008   1.407   1_554 S
C408   C411    1.409   .     A
C408   C430    1.426   .     A
C409   C410    1.399   .     A
C409   H433    1.083   .     S
C410   N450    1.438   .     S
C410   C422    1.402   .     A
C411   H443    1.079   .     S
C411   C422    1.393   .     A
C412   C480    1.335   .     S
C412   H507    1.088   .     S
C413   C546    1.335   1_455 S
C413   H575    1.086   1_455 S
C414   C421    1.398   .     A
C414   C423    1.390   .     A
C414   H445    1.083   .     S
C415   C418    1.463   .     S
C415   C14     1.338   1_565 S
C415   N47     1.443   1_565 S
C416   C417    1.438   .     S
C417   O458    1.277   .     A
C417   O464    1.275   .     A
C418   O465    1.269   .     A
C418   O459    1.275   .     A
C419   O456    1.271   .     A
C419   C422    1.458   .     S
C419   O454    1.274   .     A
C420   O455    1.284   .     A
C420   O457    1.285   .     A
C420   C421    1.473   .     S
C421   C425    1.405   .     A
C423   C428    1.407   .     A
C423   H444    1.083   .     S
C424   N451    1.157   .     T
C425   C426    1.453   .     S
C425   C427    1.423   .     A
C426   N452    1.158   .     T
C427   C429    1.425   .     A
C427   C428    1.422   .     A
C428   C1035   1.408   .     S
C429   C1033   1.416   .     S
C430   C431    1.412   .     A
C430   C1032   1.416   1_554 S
C431   C432    1.400   .     A
C431   H446    1.077   .     S
C432   N448    1.440   .     S
C432   C1031   1.408   1_554 S
H434   N448    1.046   .     S
H435   N448    1.046   .     S
H436   N47     1.044   1_565 S
H437   N449    1.046   .     S
H438   N450    1.045   .     S
H439   N450    1.046   .     S
H440   C546    1.088   1_455 S
H441   C480    1.086   .     S
H442   C14     1.086   1_565 S
O453   Zn469   1.939   .     S
O453   Zn466   1.957   .     S
O453   Zn467   1.942   .     S
O453   Zn468   1.926   .     S
O454   Zn467   1.927   .     S
O455   Zn469   1.936   .     S
O456   Zn468   1.934   .     S
O457   Zn466   1.927   .     S
O458   Zn466   1.929   .     S
O459   Zn469   1.928   .     S
O460   Zn467   1.928   .     S
O461   Zn468   1.937   .     S
O462   Zn469   1.930   .     S
O463   Zn466   1.921   .     S
O464   Zn467   1.936   .     S
O465   Zn468   1.934   .     S
C470   O527    1.272   .     A
C470   O529    1.272   .     A
C470   C480    1.438   .     S
C471   C472    1.390   .     A
C471   C496    1.409   .     A
C471   H514    1.081   .     S
C472   C491    1.447   .     S
C472   C1077   1.407   .     S
C473   O528    1.279   .     A
C473   C479    1.455   .     S
C473   O530    1.275   .     A
C474   C475    1.424   .     A
C474   C476    1.410   .     A
C474   C1075   1.407   1_554 S
C475   C478    1.409   .     A
C475   C497    1.426   .     A
C476   C477    1.399   .     A
C476   H500    1.083   .     S
C477   N517    1.438   .     S
C477   C489    1.402   .     A
C478   H510    1.079   .     S
C478   C489    1.393   .     A
C479   C547    1.335   .     S
C479   H574    1.088   .     S
C481   C488    1.398   .     A
C481   C490    1.390   .     A
C481   H512    1.083   .     S
C482   C485    1.463   .     S
C482   C81     1.338   1_565 S
C482   N114    1.443   1_565 S
C483   C484    1.438   .     S
C484   O525    1.277   .     A
C484   O531    1.275   .     A
C485   O532    1.269   .     A
C485   O526    1.275   .     A
C486   O523    1.271   .     A
C486   C489    1.458   .     S
C486   O521    1.274   .     A
C487   O522    1.284   .     A
C487   O524    1.285   .     A
C487   C488    1.473   .     S
C488   C492    1.405   .     A
C490   C495    1.407   .     A
C490   H511    1.083   .     S
C491   N518    1.157   .     T
C492   C493    1.453   .     S
C492   C494    1.423   .     A
C493   N519    1.158   .     T
C494   C496    1.425   .     A
C494   C495    1.422   .     A
C495   C1102   1.408   .     S
C496   C1100   1.416   .     S
C497   C498    1.412   .     A
C497   C1099   1.416   1_554 S
C498   C499    1.400   .     A
C498   H513    1.077   .     S
C499   N515    1.440   .     S
C499   C1098   1.408   1_554 S
H501   N515    1.046   .     S
H502   N515    1.046   .     S
H503   N114    1.044   1_565 S
H504   N516    1.046   .     S
H505   N517    1.045   .     S
H506   N517    1.046   .     S
H508   C547    1.086   .     S
H509   C81     1.086   1_565 S
O520   Zn536   1.939   .     S
O520   Zn533   1.957   .     S
O520   Zn534   1.942   .     S
O520   Zn535   1.926   .     S
O521   Zn534   1.927   .     S
O522   Zn536   1.936   .     S
O523   Zn535   1.934   .     S
O524   Zn533   1.927   .     S
O525   Zn533   1.929   .     S
O526   Zn536   1.928   .     S
O527   Zn534   1.928   .     S
O528   Zn535   1.937   .     S
O529   Zn536   1.930   .     S
O530   Zn533   1.921   .     S
O531   Zn534   1.936   .     S
O532   Zn535   1.934   .     S
C537   O594    1.272   .     A
C537   O596    1.272   .     A
C537   C547    1.438   .     S
C538   C539    1.390   .     A
C538   C563    1.409   .     A
C538   H581    1.081   .     S
C539   C558    1.447   .     S
C539   C1144   1.407   .     S
C540   O595    1.279   .     A
C540   C546    1.455   .     S
C540   O597    1.275   .     A
C541   C542    1.424   .     A
C541   C543    1.410   .     A
C541   C1142   1.407   1_554 S
C542   C545    1.409   .     A
C542   C564    1.426   .     A
C543   C544    1.399   .     A
C543   H567    1.083   .     S
C544   N584    1.438   .     S
C544   C556    1.402   .     A
C545   H577    1.079   .     S
C545   C556    1.393   .     A
C546   C413    1.335   1_655 S
C546   H440    1.088   1_655 S
C548   C555    1.398   .     A
C548   C557    1.390   .     A
C548   H579    1.083   .     S
C549   C552    1.463   .     S
C549   C148    1.338   1_565 S
C549   N181    1.443   1_565 S
C550   C551    1.438   .     S
C551   O592    1.277   .     A
C551   O598    1.275   .     A
C552   O599    1.269   .     A
C552   O593    1.275   .     A
C553   O590    1.271   .     A
C553   C556    1.458   .     S
C553   O588    1.274   .     A
C554   O589    1.284   .     A
C554   O591    1.285   .     A
C554   C555    1.473   .     S
C555   C559    1.405   .     A
C557   C562    1.407   .     A
C557   H578    1.083   .     S
C558   N585    1.157   .     T
C559   C560    1.453   .     S
C559   C561    1.423   .     A
C560   N586    1.158   .     T
C561   C563    1.425   .     A
C561   C562    1.422   .     A
C562   C1169   1.408   .     S
C563   C1167   1.416   .     S
C564   C565    1.412   .     A
C564   C1166   1.416   1_554 S
C565   C566    1.400   .     A
C565   H580    1.077   .     S
C566   N582    1.440   .     S
C566   C1165   1.408   1_554 S
H568   N582    1.046   .     S
H569   N582    1.046   .     S
H570   N181    1.044   1_565 S
H571   N583    1.046   .     S
H572   N584    1.045   .     S
H573   N584    1.046   .     S
H575   C413    1.086   1_655 S
H576   C148    1.086   1_565 S
O587   Zn603   1.939   .     S
O587   Zn600   1.957   .     S
O587   Zn601   1.942   .     S
O587   Zn602   1.926   .     S
O588   Zn601   1.927   .     S
O589   Zn603   1.936   .     S
O590   Zn602   1.934   .     S
O591   Zn600   1.927   .     S
O592   Zn600   1.929   .     S
O593   Zn603   1.928   .     S
O594   Zn601   1.928   .     S
O595   Zn602   1.937   .     S
O596   Zn603   1.930   .     S
O597   Zn600   1.921   .     S
O598   Zn601   1.936   .     S
O599   Zn602   1.934   .     S
C604   O661    1.272   .     A
C604   O663    1.272   .     A
C604   C614    1.438   .     S
C605   C606    1.390   .     A
C605   C630    1.409   .     A
C605   H648    1.081   .     S
C606   C625    1.447   .     S
C606   C5      1.407   1_556 S
C607   O662    1.279   .     A
C607   C613    1.455   .     S
C607   O664    1.275   .     A
C608   C609    1.424   .     A
C608   C610    1.410   .     A
C609   C612    1.409   .     A
C609   C631    1.426   .     A
C610   C611    1.399   .     A
C610   H634    1.083   .     S
C611   N651    1.438   .     S
C611   C623    1.402   .     A
C612   H644    1.079   .     S
C612   C623    1.393   .     A
C613   C681    1.335   .     S
C613   H708    1.088   .     S
C614   C747    1.335   1_455 S
C614   H776    1.086   1_455 S
C615   C622    1.398   .     A
C615   C624    1.390   .     A
C615   H646    1.083   .     S
C616   C619    1.463   .     S
C616   C818    1.338   .     S
C616   N851    1.443   .     S
C617   C618    1.438   .     S
C617   C1018   1.338   1_545 S
C617   H1045   1.086   1_545 S
C618   O659    1.277   .     A
C618   O665    1.275   .     A
C619   O666    1.269   .     A
C619   O660    1.275   .     A
C620   O657    1.271   .     A
C620   C623    1.458   .     S
C620   O655    1.274   .     A
C621   O656    1.284   .     A
C621   O658    1.285   .     A
C621   C622    1.473   .     S
C622   C626    1.405   .     A
C624   C629    1.407   .     A
C624   H645    1.083   .     S
C625   N652    1.157   .     T
C626   C627    1.453   .     S
C626   C628    1.423   .     A
C627   N653    1.158   .     T
C628   C630    1.425   .     A
C628   C629    1.422   .     A
C629   C30     1.408   1_556 S
C630   C28     1.416   1_556 S
C631   C632    1.412   .     A
C632   C633    1.400   .     A
C632   H647    1.077   .     S
C633   N649    1.440   .     S
H635   N649    1.046   .     S
H636   N649    1.046   .     S
H637   N851    1.044   .     S
H638   N650    1.046   .     S
H639   N651    1.045   .     S
H640   N651    1.046   .     S
H641   C747    1.088   1_455 S
H642   C681    1.086   .     S
H643   C818    1.086   .     S
N650   C1018   1.443   1_545 S
N650   H1039   1.044   1_545 S
O654   Zn670   1.939   .     S
O654   Zn667   1.957   .     S
O654   Zn668   1.942   .     S
O654   Zn669   1.926   .     S
O655   Zn668   1.927   .     S
O656   Zn670   1.936   .     S
O657   Zn669   1.934   .     S
O658   Zn667   1.927   .     S
O659   Zn667   1.929   .     S
O660   Zn670   1.928   .     S
O661   Zn668   1.928   .     S
O662   Zn669   1.937   .     S
O663   Zn670   1.930   .     S
O664   Zn667   1.921   .     S
O665   Zn668   1.936   .     S
O666   Zn669   1.934   .     S
C671   O728    1.272   .     A
C671   O730    1.272   .     A
C671   C681    1.438   .     S
C672   C673    1.390   .     A
C672   C697    1.409   .     A
C672   H715    1.081   .     S
C673   C692    1.447   .     S
C673   C72     1.407   1_556 S
C674   O729    1.279   .     A
C674   C680    1.455   .     S
C674   O731    1.275   .     A
C675   C676    1.424   .     A
C675   C677    1.410   .     A
C676   C679    1.409   .     A
C676   C698    1.426   .     A
C677   C678    1.399   .     A
C677   H701    1.083   .     S
C678   N718    1.438   .     S
C678   C690    1.402   .     A
C679   H711    1.079   .     S
C679   C690    1.393   .     A
C680   C748    1.335   .     S
C680   H775    1.088   .     S
C682   C689    1.398   .     A
C682   C691    1.390   .     A
C682   H713    1.083   .     S
C683   C686    1.463   .     S
C683   C885    1.338   .     S
C683   N918    1.443   .     S
C684   C685    1.438   .     S
C684   C1085   1.338   1_545 S
C684   H1112   1.086   1_545 S
C685   O726    1.277   .     A
C685   O732    1.275   .     A
C686   O733    1.269   .     A
C686   O727    1.275   .     A
C687   O724    1.271   .     A
C687   C690    1.458   .     S
C687   O722    1.274   .     A
C688   O723    1.284   .     A
C688   O725    1.285   .     A
C688   C689    1.473   .     S
C689   C693    1.405   .     A
C691   C696    1.407   .     A
C691   H712    1.083   .     S
C692   N719    1.157   .     T
C693   C694    1.453   .     S
C693   C695    1.423   .     A
C694   N720    1.158   .     T
C695   C697    1.425   .     A
C695   C696    1.422   .     A
C696   C97     1.408   1_556 S
C697   C95     1.416   1_556 S
C698   C699    1.412   .     A
C699   C700    1.400   .     A
C699   H714    1.077   .     S
C700   N716    1.440   .     S
H702   N716    1.046   .     S
H703   N716    1.046   .     S
H704   N918    1.044   .     S
H705   N717    1.046   .     S
H706   N718    1.045   .     S
H707   N718    1.046   .     S
H709   C748    1.086   .     S
H710   C885    1.086   .     S
N717   C1085   1.443   1_545 S
N717   H1106   1.044   1_545 S
O721   Zn737   1.939   .     S
O721   Zn734   1.957   .     S
O721   Zn735   1.942   .     S
O721   Zn736   1.926   .     S
O722   Zn735   1.927   .     S
O723   Zn737   1.936   .     S
O724   Zn736   1.934   .     S
O725   Zn734   1.927   .     S
O726   Zn734   1.929   .     S
O727   Zn737   1.928   .     S
O728   Zn735   1.928   .     S
O729   Zn736   1.937   .     S
O730   Zn737   1.930   .     S
O731   Zn734   1.921   .     S
O732   Zn735   1.936   .     S
O733   Zn736   1.934   .     S
C738   O795    1.272   .     A
C738   O797    1.272   .     A
C738   C748    1.438   .     S
C739   C740    1.390   .     A
C739   C764    1.409   .     A
C739   H782    1.081   .     S
C740   C759    1.447   .     S
C740   C139    1.407   1_556 S
C741   O796    1.279   .     A
C741   C747    1.455   .     S
C741   O798    1.275   .     A
C742   C743    1.424   .     A
C742   C744    1.410   .     A
C743   C746    1.409   .     A
C743   C765    1.426   .     A
C744   C745    1.399   .     A
C744   H768    1.083   .     S
C745   N785    1.438   .     S
C745   C757    1.402   .     A
C746   H778    1.079   .     S
C746   C757    1.393   .     A
C747   C614    1.335   1_655 S
C747   H641    1.088   1_655 S
C749   C756    1.398   .     A
C749   C758    1.390   .     A
C749   H780    1.083   .     S
C750   C753    1.463   .     S
C750   C952    1.338   .     S
C750   N985    1.443   .     S
C751   C752    1.438   .     S
C751   C1152   1.338   1_545 S
C751   H1179   1.086   1_545 S
C752   O793    1.277   .     A
C752   O799    1.275   .     A
C753   O800    1.269   .     A
C753   O794    1.275   .     A
C754   O791    1.271   .     A
C754   C757    1.458   .     S
C754   O789    1.274   .     A
C755   O790    1.284   .     A
C755   O792    1.285   .     A
C755   C756    1.473   .     S
C756   C760    1.405   .     A
C758   C763    1.407   .     A
C758   H779    1.083   .     S
C759   N786    1.157   .     T
C760   C761    1.453   .     S
C760   C762    1.423   .     A
C761   N787    1.158   .     T
C762   C764    1.425   .     A
C762   C763    1.422   .     A
C763   C164    1.408   1_556 S
C764   C162    1.416   1_556 S
C765   C766    1.412   .     A
C766   C767    1.400   .     A
C766   H781    1.077   .     S
C767   N783    1.440   .     S
H769   N783    1.046   .     S
H770   N783    1.046   .     S
H771   N985    1.044   .     S
H772   N784    1.046   .     S
H773   N785    1.045   .     S
H774   N785    1.046   .     S
H776   C614    1.086   1_655 S
H777   C952    1.086   .     S
N784   C1152   1.443   1_545 S
N784   H1173   1.044   1_545 S
O788   Zn804   1.939   .     S
O788   Zn801   1.957   .     S
O788   Zn802   1.942   .     S
O788   Zn803   1.926   .     S
O789   Zn802   1.927   .     S
O790   Zn804   1.936   .     S
O791   Zn803   1.934   .     S
O792   Zn801   1.927   .     S
O793   Zn801   1.929   .     S
O794   Zn804   1.928   .     S
O795   Zn802   1.928   .     S
O796   Zn803   1.937   .     S
O797   Zn804   1.930   .     S
O798   Zn801   1.921   .     S
O799   Zn802   1.936   .     S
O800   Zn803   1.934   .     S
C805   O862    1.272   .     A
C805   O864    1.272   .     A
C805   C815    1.438   .     S
C806   C807    1.390   .     A
C806   C831    1.409   .     A
C806   H849    1.081   .     S
C807   C826    1.447   .     S
C807   C206    1.407   1_556 S
C808   O863    1.279   .     A
C808   C814    1.455   .     S
C808   O865    1.275   .     A
C809   C810    1.424   .     A
C809   C811    1.410   .     A
C810   C813    1.409   .     A
C810   C832    1.426   .     A
C811   C812    1.399   .     A
C811   H835    1.083   .     S
C812   N852    1.438   .     S
C812   C824    1.402   .     A
C813   H845    1.079   .     S
C813   C824    1.393   .     A
C814   C882    1.335   .     S
C814   H909    1.088   .     S
C815   C948    1.335   1_455 S
C815   H977    1.086   1_455 S
C816   C823    1.398   .     A
C816   C825    1.390   .     A
C816   H847    1.083   .     S
C817   C820    1.463   .     S
C817   C1019   1.338   .     S
C817   N1052   1.443   .     S
C818   C819    1.438   .     S
C819   O860    1.277   .     A
C819   O866    1.275   .     A
C820   O867    1.269   .     A
C820   O861    1.275   .     A
C821   O858    1.271   .     A
C821   C824    1.458   .     S
C821   O856    1.274   .     A
C822   O857    1.284   .     A
C822   O859    1.285   .     A
C822   C823    1.473   .     S
C823   C827    1.405   .     A
C825   C830    1.407   .     A
C825   H846    1.083   .     S
C826   N853    1.157   .     T
C827   C828    1.453   .     S
C827   C829    1.423   .     A
C828   N854    1.158   .     T
C829   C831    1.425   .     A
C829   C830    1.422   .     A
C830   C231    1.408   1_556 S
C831   C229    1.416   1_556 S
C832   C833    1.412   .     A
C833   C834    1.400   .     A
C833   H848    1.077   .     S
C834   N850    1.440   .     S
H836   N850    1.046   .     S
H837   N850    1.046   .     S
H838   N1052   1.044   .     S
H839   N851    1.046   .     S
H840   N852    1.045   .     S
H841   N852    1.046   .     S
H842   C948    1.088   1_455 S
H843   C882    1.086   .     S
H844   C1019   1.086   .     S
O855   Zn871   1.939   .     S
O855   Zn868   1.957   .     S
O855   Zn869   1.942   .     S
O855   Zn870   1.926   .     S
O856   Zn869   1.927   .     S
O857   Zn871   1.936   .     S
O858   Zn870   1.934   .     S
O859   Zn868   1.927   .     S
O860   Zn868   1.929   .     S
O861   Zn871   1.928   .     S
O862   Zn869   1.928   .     S
O863   Zn870   1.937   .     S
O864   Zn871   1.930   .     S
O865   Zn868   1.921   .     S
O866   Zn869   1.936   .     S
O867   Zn870   1.934   .     S
C872   O929    1.272   .     A
C872   O931    1.272   .     A
C872   C882    1.438   .     S
C873   C874    1.390   .     A
C873   C898    1.409   .     A
C873   H916    1.081   .     S
C874   C893    1.447   .     S
C874   C273    1.407   1_556 S
C875   O930    1.279   .     A
C875   C881    1.455   .     S
C875   O932    1.275   .     A
C876   C877    1.424   .     A
C876   C878    1.410   .     A
C877   C880    1.409   .     A
C877   C899    1.426   .     A
C878   C879    1.399   .     A
C878   H902    1.083   .     S
C879   N919    1.438   .     S
C879   C891    1.402   .     A
C880   H912    1.079   .     S
C880   C891    1.393   .     A
C881   C949    1.335   .     S
C881   H976    1.088   .     S
C883   C890    1.398   .     A
C883   C892    1.390   .     A
C883   H914    1.083   .     S
C884   C887    1.463   .     S
C884   C1086   1.338   .     S
C884   N1119   1.443   .     S
C885   C886    1.438   .     S
C886   O927    1.277   .     A
C886   O933    1.275   .     A
C887   O934    1.269   .     A
C887   O928    1.275   .     A
C888   O925    1.271   .     A
C888   C891    1.458   .     S
C888   O923    1.274   .     A
C889   O924    1.284   .     A
C889   O926    1.285   .     A
C889   C890    1.473   .     S
C890   C894    1.405   .     A
C892   C897    1.407   .     A
C892   H913    1.083   .     S
C893   N920    1.157   .     T
C894   C895    1.453   .     S
C894   C896    1.423   .     A
C895   N921    1.158   .     T
C896   C898    1.425   .     A
C896   C897    1.422   .     A
C897   C298    1.408   1_556 S
C898   C296    1.416   1_556 S
C899   C900    1.412   .     A
C900   C901    1.400   .     A
C900   H915    1.077   .     S
C901   N917    1.440   .     S
H903   N917    1.046   .     S
H904   N917    1.046   .     S
H905   N1119   1.044   .     S
H906   N918    1.046   .     S
H907   N919    1.045   .     S
H908   N919    1.046   .     S
H910   C949    1.086   .     S
H911   C1086   1.086   .     S
O922   Zn938   1.939   .     S
O922   Zn935   1.957   .     S
O922   Zn936   1.942   .     S
O922   Zn937   1.926   .     S
O923   Zn936   1.927   .     S
O924   Zn938   1.936   .     S
O925   Zn937   1.934   .     S
O926   Zn935   1.927   .     S
O927   Zn935   1.929   .     S
O928   Zn938   1.928   .     S
O929   Zn936   1.928   .     S
O930   Zn937   1.937   .     S
O931   Zn938   1.930   .     S
O932   Zn935   1.921   .     S
O933   Zn936   1.936   .     S
O934   Zn937   1.934   .     S
C939   O996    1.272   .     A
C939   O998    1.272   .     A
C939   C949    1.438   .     S
C940   C941    1.390   .     A
C940   C965    1.409   .     A
C940   H983    1.081   .     S
C941   C960    1.447   .     S
C941   C340    1.407   1_556 S
C942   O997    1.279   .     A
C942   C948    1.455   .     S
C942   O999    1.275   .     A
C943   C944    1.424   .     A
C943   C945    1.410   .     A
C944   C947    1.409   .     A
C944   C966    1.426   .     A
C945   C946    1.399   .     A
C945   H969    1.083   .     S
C946   N986    1.438   .     S
C946   C958    1.402   .     A
C947   H979    1.079   .     S
C947   C958    1.393   .     A
C948   C815    1.335   1_655 S
C948   H842    1.088   1_655 S
C950   C957    1.398   .     A
C950   C959    1.390   .     A
C950   H981    1.083   .     S
C951   C954    1.463   .     S
C951   C1153   1.338   .     S
C951   N1186   1.443   .     S
C952   C953    1.438   .     S
C953   O994    1.277   .     A
C953   O1000   1.275   .     A
C954   O1001   1.269   .     A
C954   O995    1.275   .     A
C955   O992    1.271   .     A
C955   C958    1.458   .     S
C955   O990    1.274   .     A
C956   O991    1.284   .     A
C956   O993    1.285   .     A
C956   C957    1.473   .     S
C957   C961    1.405   .     A
C959   C964    1.407   .     A
C959   H980    1.083   .     S
C960   N987    1.157   .     T
C961   C962    1.453   .     S
C961   C963    1.423   .     A
C962   N988    1.158   .     T
C963   C965    1.425   .     A
C963   C964    1.422   .     A
C964   C365    1.408   1_556 S
C965   C363    1.416   1_556 S
C966   C967    1.412   .     A
C967   C968    1.400   .     A
C967   H982    1.077   .     S
C968   N984    1.440   .     S
H970   N984    1.046   .     S
H971   N984    1.046   .     S
H972   N1186   1.044   .     S
H973   N985    1.046   .     S
H974   N986    1.045   .     S
H975   N986    1.046   .     S
H977   C815    1.086   1_655 S
H978   C1153   1.086   .     S
O989   Zn1005  1.939   .     S
O989   Zn1002  1.957   .     S
O989   Zn1003  1.942   .     S
O989   Zn1004  1.926   .     S
O990   Zn1003  1.927   .     S
O991   Zn1005  1.936   .     S
O992   Zn1004  1.934   .     S
O993   Zn1002  1.927   .     S
O994   Zn1002  1.929   .     S
O995   Zn1005  1.928   .     S
O996   Zn1003  1.928   .     S
O997   Zn1004  1.937   .     S
O998   Zn1005  1.930   .     S
O999   Zn1002  1.921   .     S
O1000  Zn1003  1.936   .     S
O1001  Zn1004  1.934   .     S
C1006  O1063   1.272   .     A
C1006  O1065   1.272   .     A
C1006  C1016   1.438   .     S
C1007  C1008   1.390   .     A
C1007  C1032   1.409   .     A
C1007  H1050   1.081   .     S
C1008  C1027   1.447   .     S
C1008  C407    1.407   1_556 S
C1009  O1064   1.279   .     A
C1009  C1015   1.455   .     S
C1009  O1066   1.275   .     A
C1010  C1011   1.424   .     A
C1010  C1012   1.410   .     A
C1011  C1014   1.409   .     A
C1011  C1033   1.426   .     A
C1012  C1013   1.399   .     A
C1012  H1036   1.083   .     S
C1013  N1053   1.438   .     S
C1013  C1025   1.402   .     A
C1014  H1046   1.079   .     S
C1014  C1025   1.393   .     A
C1015  C1083   1.335   .     S
C1015  H1110   1.088   .     S
C1016  C1149   1.335   1_455 S
C1016  H1178   1.086   1_455 S
C1017  C1024   1.398   .     A
C1017  C1026   1.390   .     A
C1017  H1048   1.083   .     S
C1018  C1021   1.463   .     S
C1018  C617    1.338   1_565 S
C1018  N650    1.443   1_565 S
C1019  C1020   1.438   .     S
C1020  O1061   1.277   .     A
C1020  O1067   1.275   .     A
C1021  O1068   1.269   .     A
C1021  O1062   1.275   .     A
C1022  O1059   1.271   .     A
C1022  C1025   1.458   .     S
C1022  O1057   1.274   .     A
C1023  O1058   1.284   .     A
C1023  O1060   1.285   .     A
C1023  C1024   1.473   .     S
C1024  C1028   1.405   .     A
C1026  C1031   1.407   .     A
C1026  H1047   1.083   .     S
C1027  N1054   1.157   .     T
C1028  C1029   1.453   .     S
C1028  C1030   1.423   .     A
C1029  N1055   1.158   .     T
C1030  C1032   1.425   .     A
C1030  C1031   1.422   .     A
C1031  C432    1.408   1_556 S
C1032  C430    1.416   1_556 S
C1033  C1034   1.412   .     A
C1034  C1035   1.400   .     A
C1034  H1049   1.077   .     S
C1035  N1051   1.440   .     S
H1037  N1051   1.046   .     S
H1038  N1051   1.046   .     S
H1039  N650    1.044   1_565 S
H1040  N1052   1.046   .     S
H1041  N1053   1.045   .     S
H1042  N1053   1.046   .     S
H1043  C1149   1.088   1_455 S
H1044  C1083   1.086   .     S
H1045  C617    1.086   1_565 S
O1056  Zn1072  1.939   .     S
O1056  Zn1069  1.957   .     S
O1056  Zn1070  1.942   .     S
O1056  Zn1071  1.926   .     S
O1057  Zn1070  1.927   .     S
O1058  Zn1072  1.936   .     S
O1059  Zn1071  1.934   .     S
O1060  Zn1069  1.927   .     S
O1061  Zn1069  1.929   .     S
O1062  Zn1072  1.928   .     S
O1063  Zn1070  1.928   .     S
O1064  Zn1071  1.937   .     S
O1065  Zn1072  1.930   .     S
O1066  Zn1069  1.921   .     S
O1067  Zn1070  1.936   .     S
O1068  Zn1071  1.934   .     S
C1073  O1130   1.272   .     A
C1073  O1132   1.272   .     A
C1073  C1083   1.438   .     S
C1074  C1075   1.390   .     A
C1074  C1099   1.409   .     A
C1074  H1117   1.081   .     S
C1075  C1094   1.447   .     S
C1075  C474    1.407   1_556 S
C1076  O1131   1.279   .     A
C1076  C1082   1.455   .     S
C1076  O1133   1.275   .     A
C1077  C1078   1.424   .     A
C1077  C1079   1.410   .     A
C1078  C1081   1.409   .     A
C1078  C1100   1.426   .     A
C1079  C1080   1.399   .     A
C1079  H1103   1.083   .     S
C1080  N1120   1.438   .     S
C1080  C1092   1.402   .     A
C1081  H1113   1.079   .     S
C1081  C1092   1.393   .     A
C1082  C1150   1.335   .     S
C1082  H1177   1.088   .     S
C1084  C1091   1.398   .     A
C1084  C1093   1.390   .     A
C1084  H1115   1.083   .     S
C1085  C1088   1.463   .     S
C1085  C684    1.338   1_565 S
C1085  N717    1.443   1_565 S
C1086  C1087   1.438   .     S
C1087  O1128   1.277   .     A
C1087  O1134   1.275   .     A
C1088  O1135   1.269   .     A
C1088  O1129   1.275   .     A
C1089  O1126   1.271   .     A
C1089  C1092   1.458   .     S
C1089  O1124   1.274   .     A
C1090  O1125   1.284   .     A
C1090  O1127   1.285   .     A
C1090  C1091   1.473   .     S
C1091  C1095   1.405   .     A
C1093  C1098   1.407   .     A
C1093  H1114   1.083   .     S
C1094  N1121   1.157   .     T
C1095  C1096   1.453   .     S
C1095  C1097   1.423   .     A
C1096  N1122   1.158   .     T
C1097  C1099   1.425   .     A
C1097  C1098   1.422   .     A
C1098  C499    1.408   1_556 S
C1099  C497    1.416   1_556 S
C1100  C1101   1.412   .     A
C1101  C1102   1.400   .     A
C1101  H1116   1.077   .     S
C1102  N1118   1.440   .     S
H1104  N1118   1.046   .     S
H1105  N1118   1.046   .     S
H1106  N717    1.044   1_565 S
H1107  N1119   1.046   .     S
H1108  N1120   1.045   .     S
H1109  N1120   1.046   .     S
H1111  C1150   1.086   .     S
H1112  C684    1.086   1_565 S
O1123  Zn1139  1.939   .     S
O1123  Zn1136  1.957   .     S
O1123  Zn1137  1.942   .     S
O1123  Zn1138  1.926   .     S
O1124  Zn1137  1.927   .     S
O1125  Zn1139  1.936   .     S
O1126  Zn1138  1.934   .     S
O1127  Zn1136  1.927   .     S
O1128  Zn1136  1.929   .     S
O1129  Zn1139  1.928   .     S
O1130  Zn1137  1.928   .     S
O1131  Zn1138  1.937   .     S
O1132  Zn1139  1.930   .     S
O1133  Zn1136  1.921   .     S
O1134  Zn1137  1.936   .     S
O1135  Zn1138  1.934   .     S
C1140  O1197   1.272   .     A
C1140  O1199   1.272   .     A
C1140  C1150   1.438   .     S
C1141  C1142   1.390   .     A
C1141  C1166   1.409   .     A
C1141  H1184   1.081   .     S
C1142  C1161   1.447   .     S
C1142  C541    1.407   1_556 S
C1143  O1198   1.279   .     A
C1143  C1149   1.455   .     S
C1143  O1200   1.275   .     A
C1144  C1145   1.424   .     A
C1144  C1146   1.410   .     A
C1145  C1148   1.409   .     A
C1145  C1167   1.426   .     A
C1146  C1147   1.399   .     A
C1146  H1170   1.083   .     S
C1147  N1187   1.438   .     S
C1147  C1159   1.402   .     A
C1148  H1180   1.079   .     S
C1148  C1159   1.393   .     A
C1149  C1016   1.335   1_655 S
C1149  H1043   1.088   1_655 S
C1151  C1158   1.398   .     A
C1151  C1160   1.390   .     A
C1151  H1182   1.083   .     S
C1152  C1155   1.463   .     S
C1152  C751    1.338   1_565 S
C1152  N784    1.443   1_565 S
C1153  C1154   1.438   .     S
C1154  O1195   1.277   .     A
C1154  O1201   1.275   .     A
C1155  O1202   1.269   .     A
C1155  O1196   1.275   .     A
C1156  O1193   1.271   .     A
C1156  C1159   1.458   .     S
C1156  O1191   1.274   .     A
C1157  O1192   1.284   .     A
C1157  O1194   1.285   .     A
C1157  C1158   1.473   .     S
C1158  C1162   1.405   .     A
C1160  C1165   1.407   .     A
C1160  H1181   1.083   .     S
C1161  N1188   1.157   .     T
C1162  C1163   1.453   .     S
C1162  C1164   1.423   .     A
C1163  N1189   1.158   .     T
C1164  C1166   1.425   .     A
C1164  C1165   1.422   .     A
C1165  C566    1.408   1_556 S
C1166  C564    1.416   1_556 S
C1167  C1168   1.412   .     A
C1168  C1169   1.400   .     A
C1168  H1183   1.077   .     S
C1169  N1185   1.440   .     S
H1171  N1185   1.046   .     S
H1172  N1185   1.046   .     S
H1173  N784    1.044   1_565 S
H1174  N1186   1.046   .     S
H1175  N1187   1.045   .     S
H1176  N1187   1.046   .     S
H1178  C1016   1.086   1_655 S
H1179  C751    1.086   1_565 S
O1190  Zn1206  1.939   .     S
O1190  Zn1203  1.957   .     S
O1190  Zn1204  1.942   .     S
O1190  Zn1205  1.926   .     S
O1191  Zn1204  1.927   .     S
O1192  Zn1206  1.936   .     S
O1193  Zn1205  1.934   .     S
O1194  Zn1203  1.927   .     S
O1195  Zn1203  1.929   .     S
O1196  Zn1206  1.928   .     S
O1197  Zn1204  1.928   .     S
O1198  Zn1205  1.937   .     S
O1199  Zn1206  1.930   .     S
O1200  Zn1203  1.921   .     S
O1201  Zn1204  1.936   .     S
O1202  Zn1205  1.934   .     S
