data_str_m1_o2_o5_pcu_sym.14
_audit_creation_date              2020-01-03
_audit_creation_method            'Materials Studio'
_symmetry_space_group_name_H-M    'P1'
_symmetry_Int_Tables_number       1
_symmetry_cell_setting            triclinic
loop_
_symmetry_equiv_pos_as_xyz
  x,y,z
_cell_length_a                    24.5269
_cell_length_b                    24.5151
_cell_length_c                    22.3727
_cell_angle_alpha                 89.9879
_cell_angle_beta                  89.9869
_cell_angle_gamma                 90.0126
loop_
_atom_site_label
_atom_site_type_symbol
_atom_site_fract_x
_atom_site_fract_y
_atom_site_fract_z
_atom_site_U_iso_or_equiv
_atom_site_adp_type
_atom_site_occupancy
C1     C     0.22877   0.27191   0.24956   0.00000  Uiso   1.00
C2     C     0.23123   0.72629   0.24583   0.00000  Uiso   1.00
C3     C     0.20332   0.63200   0.26102   0.00000  Uiso   1.00
C4     C     0.34022   0.17595   0.69676   0.00000  Uiso   1.00
C5     C     0.63597   0.79924   0.27159   0.00000  Uiso   1.00
C6     C     0.17560   0.66010   0.69670   0.00000  Uiso   1.00
C7     C     0.79932   0.36398   0.27175   0.00000  Uiso   1.00
C8     C     0.34204   0.82107   0.30136   0.00000  Uiso   1.00
C9     C     0.63605   0.20071   0.72822   0.00000  Uiso   1.00
C10    C     0.17447   0.33891   0.30352   0.00000  Uiso   1.00
C11    C     0.79933   0.63602   0.72827   0.00000  Uiso   1.00
C12    C     0.65983   0.17584   0.30329   0.00000  Uiso   1.00
C13    C     0.72855   0.77146   0.75000   0.00000  Uiso   1.00
C14    C     0.36386   0.79937   0.72790   0.00000  Uiso   1.00
C15    C     0.82401   0.65973   0.30323   0.00000  Uiso   1.00
C16    C     0.20070   0.36401   0.72834   0.00000  Uiso   1.00
C17    C     0.14761   0.35272   0.24982   0.00000  Uiso   1.00
C18    C     0.85213   0.64787   0.75002   0.00000  Uiso   1.00
C19    C     0.35294   0.85172   0.24918   0.00000  Uiso   1.00
C20    C     0.64787   0.14787   0.74996   0.00000  Uiso   1.00
C21    C     0.85247   0.64755   0.25000   0.00000  Uiso   1.00
C22    C     0.14787   0.35214   0.75003   0.00000  Uiso   1.00
C23    C     0.64753   0.14753   0.25001   0.00000  Uiso   1.00
C24    C     0.27123   0.22938   0.24948   0.00000  Uiso   1.00
C25    C     0.35215   0.85209   0.75005   0.00000  Uiso   1.00
C26    C     0.85250   0.35244   0.74999   0.00000  Uiso   1.00
C27    C     0.14899   0.64639   0.24695   0.00000  Uiso   1.00
C28    C     0.64752   0.85245   0.75000   0.00000  Uiso   1.00
C29    C     0.35217   0.14805   0.24983   0.00000  Uiso   1.00
C30    C     0.14754   0.64749   0.75006   0.00000  Uiso   1.00
C31    C     0.85213   0.35213   0.25000   0.00000  Uiso   1.00
C32    C     0.35249   0.14756   0.75001   0.00000  Uiso   1.00
C33    C     0.64786   0.85213   0.25001   0.00000  Uiso   1.00
C34    C     0.26296   0.27765   0.11799   0.00000  Uiso   1.00
C35    C     0.22860   0.72845   0.75014   0.00000  Uiso   1.00
C36    C     0.86206   0.82194   0.73676   0.00000  Uiso   1.00
C37    C     0.27229   0.74282   0.11382   0.00000  Uiso   1.00
C38    C     0.82183   0.13784   0.73666   0.00000  Uiso   1.00
C39    C     0.74134   0.72726   0.11710   0.00000  Uiso   1.00
C40    C     0.13800   0.17807   0.73668   0.00000  Uiso   1.00
C41    C     0.72704   0.25898   0.11718   0.00000  Uiso   1.00
C42    C     0.17809   0.86202   0.73815   0.00000  Uiso   1.00
C43    C     0.74104   0.27297   0.88280   0.00000  Uiso   1.00
C44    C     0.14421   0.82048   0.26849   0.00000  Uiso   1.00
C45    C     0.72696   0.74104   0.88283   0.00000  Uiso   1.00
C46    C     0.77104   0.27103   0.25002   0.00000  Uiso   1.00
C47    C     0.17773   0.13853   0.25611   0.00000  Uiso   1.00
C48    C     0.25965   0.72608   0.88276   0.00000  Uiso   1.00
C49    C     0.86207   0.17808   0.26329   0.00000  Uiso   1.00
C50    C     0.27296   0.25886   0.88288   0.00000  Uiso   1.00
C51    C     0.82180   0.86211   0.26372   0.00000  Uiso   1.00
C52    C     0.75896   0.77306   0.61718   0.00000  Uiso   1.00
C53    C     0.36257   0.32253   0.24288   0.00000  Uiso   1.00
C54    C     0.77304   0.24107   0.61714   0.00000  Uiso   1.00
C55    C     0.33138   0.65535   0.22588   0.00000  Uiso   1.00
C56    C     0.24116   0.22708   0.61720   0.00000  Uiso   1.00
C57    C     0.27147   0.22857   0.75004   0.00000  Uiso   1.00
C58    C     0.63792   0.67811   0.23628   0.00000  Uiso   1.00
C59    C     0.22639   0.75967   0.61753   0.00000  Uiso   1.00
C60    C     0.67817   0.36212   0.23674   0.00000  Uiso   1.00
C61    C     0.24633   0.76435   0.38104   0.00000  Uiso   1.00
C62    C     0.63799   0.32192   0.76325   0.00000  Uiso   1.00
C63    C     0.22340   0.23752   0.38115   0.00000  Uiso   1.00
C64    C     0.67815   0.63786   0.76327   0.00000  Uiso   1.00
C65    C     0.75893   0.22694   0.38284   0.00000  Uiso   1.00
C66    C     0.36223   0.67797   0.76218   0.00000  Uiso   1.00
C67    C     0.77268   0.75865   0.38290   0.00000  Uiso   1.00
C68    C     0.72894   0.77103   0.24999   0.00000  Uiso   1.00
C69    C     0.32183   0.36218   0.76343   0.00000  Uiso   1.00
C70    C     0.15591   0.38251   0.11505   0.00000  Uiso   1.00
C71    C     0.91457   0.71493   0.85532   0.00000  Uiso   1.00
C72    C     0.37573   0.85032   0.11194   0.00000  Uiso   1.00
C73    C     0.71490   0.08529   0.85520   0.00000  Uiso   1.00
C74    C     0.84834   0.62304   0.11342   0.00000  Uiso   1.00
C75    C     0.08530   0.28497   0.85523   0.00000  Uiso   1.00
C76    C     0.62269   0.15202   0.11353   0.00000  Uiso   1.00
C77    C     0.28580   0.91397   0.85627   0.00000  Uiso   1.00
C78    C     0.84803   0.37726   0.88648   0.00000  Uiso   1.00
C79    C    -0.00001   0.49999   0.47328   0.00000  Uiso   1.00
C80    C     0.08009   0.71902   0.15125   0.00000  Uiso   1.00
C81    C     0.62265   0.84799   0.88647   0.00000  Uiso   1.00
C82    C     0.28882   0.08892   0.13982   0.00000  Uiso   1.00
C83    C     0.15258   0.62175   0.88630   0.00000  Uiso   1.00
C84    C     0.91461   0.28506   0.14471   0.00000  Uiso   1.00
C85    C     0.37723   0.15189   0.88652   0.00000  Uiso   1.00
C86    C     0.71516   0.91492   0.14507   0.00000  Uiso   1.00
C87    C     0.65197   0.87731   0.61351   0.00000  Uiso   1.00
C88    C     0.41115   0.21154   0.35978   0.00000  Uiso   1.00
C89    C     0.87744   0.34802   0.61354   0.00000  Uiso   1.00
C90    C     0.00000   0.50000   0.52672   0.00000  Uiso   1.00
C91    C     0.22626   0.54701   0.22873   0.00000  Uiso   1.00
C92    C     0.34816   0.12287   0.61349   0.00000  Uiso   1.00
C93    C     0.58510   0.78478   0.35494   0.00000  Uiso   1.00
C94    C     0.12192   0.65275   0.61385   0.00000  Uiso   1.00
C95    C     0.78508   0.41466   0.35527   0.00000  Uiso   1.00
C96    C     0.35105   0.87124   0.38670   0.00000  Uiso   1.00
C97    C     0.58540   0.21497   0.64471   0.00000  Uiso   1.00
C98    C     0.11887   0.34446   0.38504   0.00000  Uiso   1.00
C99    C     0.78512   0.58536   0.64473   0.00000  Uiso   1.00
C100   C     0.65195   0.12261   0.38648   0.00000  Uiso   1.00
C101   C     0.50000  -0.00000   0.47328   0.00000  Uiso   1.00
C102   C     0.41395   0.78569   0.64385   0.00000  Uiso   1.00
C103   C     0.87700   0.65173   0.38655   0.00000  Uiso   1.00
C104   C     0.21500   0.41475   0.64484   0.00000  Uiso   1.00
C105   C     0.77104   0.72897   0.75001   0.00000  Uiso   1.00
C106   C     0.50000   0.00001   0.52672   0.00000  Uiso   1.00
C107   C     0.49999   0.00000   0.97328   0.00000  Uiso   1.00
C108   C     0.50000   0.00000   0.02672   0.00000  Uiso   1.00
C109   C     0.00000   0.50000   0.97328   0.00000  Uiso   1.00
C110   C     0.00001   0.50001   0.02672   0.00000  Uiso   1.00
C111   C     0.00000   0.50000   0.09007   0.00000  Uiso   1.00
C112   C     0.00000   0.50000   0.90993   0.00000  Uiso   1.00
C113   C     0.50000   0.00000   0.09008   0.00000  Uiso   1.00
C114   C     0.50000   0.00000   0.90992   0.00000  Uiso   1.00
C115   C     0.50000   0.00000   0.59007   0.00000  Uiso   1.00
C116   C     0.27333   0.76918   0.24711   0.00000  Uiso   1.00
C117   C     0.50000  -0.00000   0.40993   0.00000  Uiso   1.00
C118   C     0.00000   0.50000   0.59008   0.00000  Uiso   1.00
C119   C    -0.00001   0.50000   0.40992   0.00000  Uiso   1.00
C120   C     0.10534   0.60512   0.24967   0.00000  Uiso   1.00
C121   C     0.89486   0.39484   0.75000   0.00000  Uiso   1.00
C122   C     0.60528   0.89471   0.25000   0.00000  Uiso   1.00
C123   C     0.39485   0.10516   0.75000   0.00000  Uiso   1.00
C124   C     0.89471   0.39471   0.25000   0.00000  Uiso   1.00
C125   C     0.10515   0.60514   0.75001   0.00000  Uiso   1.00
C126   C     0.39471   0.10533   0.24998   0.00000  Uiso   1.00
C127   C     0.72897   0.22896   0.74996   0.00000  Uiso   1.00
C128   C     0.60515   0.89484   0.75000   0.00000  Uiso   1.00
C129   C     0.89472   0.60529   0.75001   0.00000  Uiso   1.00
C130   C     0.10515   0.39491   0.24997   0.00000  Uiso   1.00
C131   C     0.39471   0.89471   0.75000   0.00000  Uiso   1.00
C132   C     0.60515   0.10515   0.25000   0.00000  Uiso   1.00
C133   C     0.10529   0.39471   0.75001   0.00000  Uiso   1.00
C134   C     0.89485   0.60516   0.25000   0.00000  Uiso   1.00
C135   C     0.60528   0.10529   0.74999   0.00000  Uiso   1.00
C136   C     0.39485   0.89474   0.24996   0.00000  Uiso   1.00
C137   C     0.20245   0.28642   0.19556   0.00000  Uiso   1.00
C138   C     0.77143   0.72854   0.24999   0.00000  Uiso   1.00
C139   C     0.82454   0.74203   0.76758   0.00000  Uiso   1.00
C140   C     0.28485   0.79925   0.19463   0.00000  Uiso   1.00
C141   C     0.74201   0.17542   0.76750   0.00000  Uiso   1.00
C142   C     0.79940   0.71582   0.19646   0.00000  Uiso   1.00
C143   C     0.17545   0.25796   0.76757   0.00000  Uiso   1.00
C144   C     0.71570   0.20072   0.19644   0.00000  Uiso   1.00
C145   C     0.25813   0.82437   0.76815   0.00000  Uiso   1.00
C146   C     0.79929   0.28427   0.80355   0.00000  Uiso   1.00
C147   C     0.17715   0.74058   0.23169   0.00000  Uiso   1.00
C148   C     0.71567   0.79929   0.80357   0.00000  Uiso   1.00
C149   C     0.22897   0.27105   0.75005   0.00000  Uiso   1.00
C150   C     0.25869   0.17642   0.22958   0.00000  Uiso   1.00
C151   C     0.20102   0.71528   0.80379   0.00000  Uiso   1.00
C152   C     0.82455   0.25796   0.23246   0.00000  Uiso   1.00
C153   C     0.28430   0.20068   0.80359   0.00000  Uiso   1.00
C154   C     0.74202   0.82461   0.23260   0.00000  Uiso   1.00
C155   C     0.70071   0.78431   0.69643   0.00000  Uiso   1.00
C156   C     0.32417   0.24179   0.26948   0.00000  Uiso   1.00
C157   C     0.78436   0.29929   0.69641   0.00000  Uiso   1.00
C158   C     0.24453   0.67156   0.25945   0.00000  Uiso   1.00
C159   C     0.29934   0.21576   0.69647   0.00000  Uiso   1.00
C160   C     0.72855   0.22854   0.25002   0.00000  Uiso   1.00
C161   C     0.67539   0.75792   0.26739   0.00000  Uiso   1.00
C162   C     0.21546   0.70095   0.69645   0.00000  Uiso   1.00
C163   C     0.75800   0.32456   0.26756   0.00000  Uiso   1.00
C164   C     0.30197   0.78033   0.30059   0.00000  Uiso   1.00
C165   C     0.67547   0.24203   0.73241   0.00000  Uiso   1.00
C166   C     0.21435   0.29810   0.30367   0.00000  Uiso   1.00
C167   C     0.75800   0.67543   0.73245   0.00000  Uiso   1.00
C168   C     0.70071   0.21567   0.30359   0.00000  Uiso   1.00
C169   C     0.32449   0.75800   0.73215   0.00000  Uiso   1.00
C170   C     0.78418   0.70059   0.30352   0.00000  Uiso   1.00
C171   C     0.27109   0.77094   0.75017   0.00000  Uiso   1.00
C172   C     0.24203   0.32461   0.73253   0.00000  Uiso   1.00
C173   C     0.16152   0.32618   0.19596   0.00000  Uiso   1.00
C174   C     0.86395   0.70071   0.77177   0.00000  Uiso   1.00
C175   C     0.32406   0.84067   0.19592   0.00000  Uiso   1.00
C176   C     0.70068   0.13600   0.77169   0.00000  Uiso   1.00
C177   C     0.84028   0.67601   0.19677   0.00000  Uiso   1.00
C178   C     0.13603   0.29928   0.77175   0.00000  Uiso   1.00
C179   C     0.67587   0.15985   0.19673   0.00000  Uiso   1.00
C180   C     0.29946   0.86379   0.77228   0.00000  Uiso   1.00
C181   C     0.84018   0.32409   0.80326   0.00000  Uiso   1.00
C182   C     0.77147   0.27144   0.74997   0.00000  Uiso   1.00
C183   C     0.13678   0.70018   0.22885   0.00000  Uiso   1.00
C184   C     0.67584   0.84015   0.80327   0.00000  Uiso   1.00
C185   C     0.30004   0.13702   0.22566   0.00000  Uiso   1.00
C186   C     0.16011   0.67549   0.80346   0.00000  Uiso   1.00
C187   C     0.86396   0.29929   0.22826   0.00000  Uiso   1.00
C188   C     0.32412   0.15981   0.80328   0.00000  Uiso   1.00
C189   C     0.70071   0.86403   0.22842   0.00000  Uiso   1.00
C190   C     0.65983   0.82412   0.69673   0.00000  Uiso   1.00
C191   C     0.36336   0.20027   0.27376   0.00000  Uiso   1.00
C192   C     0.82419   0.34015   0.69671   0.00000  Uiso   1.00
H1     H     0.29754   0.25382   0.13638   0.00000  Uiso   1.00
H2     H     0.82813   0.16751   0.69984   0.00000  Uiso   1.00
H3     H     0.95686   0.72055   0.87175   0.00000  Uiso   1.00
H4     H     0.89896   0.67601   0.87452   0.00000  Uiso   1.00
H5     H     0.88995   0.74981   0.87202   0.00000  Uiso   1.00
H6     H     0.41313   0.84469   0.13945   0.00000  Uiso   1.00
H7     H     0.38604   0.87936   0.07563   0.00000  Uiso   1.00
H8     H     0.36406   0.81118   0.09064   0.00000  Uiso   1.00
H9     H     0.74982   0.10985   0.87189   0.00000  Uiso   1.00
H10    H     0.72046   0.04295   0.87161   0.00000  Uiso   1.00
H11    H     0.67604   0.10094   0.87445   0.00000  Uiso   1.00
H12    H     0.84086   0.58674   0.14222   0.00000  Uiso   1.00
H13    H     0.79996   0.10108   0.72000   0.00000  Uiso   1.00
H14    H     0.87795   0.61062   0.07850   0.00000  Uiso   1.00
H15    H     0.81019   0.63508   0.09037   0.00000  Uiso   1.00
H16    H     0.04298   0.27936   0.87161   0.00000  Uiso   1.00
H17    H     0.10091   0.32386   0.87448   0.00000  Uiso   1.00
H18    H     0.10987   0.25006   0.87192   0.00000  Uiso   1.00
H19    H     0.58647   0.15937   0.14246   0.00000  Uiso   1.00
H20    H     0.61021   0.12250   0.07853   0.00000  Uiso   1.00
H21    H     0.63467   0.19027   0.09059   0.00000  Uiso   1.00
H22    H     0.28023   0.95618   0.87303   0.00000  Uiso   1.00
H23    H     0.32485   0.89832   0.87502   0.00000  Uiso   1.00
H24    H     0.86267   0.12446   0.75208   0.00000  Uiso   1.00
H25    H     0.25109   0.88918   0.87312   0.00000  Uiso   1.00
H26    H     0.84062   0.41348   0.85757   0.00000  Uiso   1.00
H27    H     0.87757   0.38977   0.92143   0.00000  Uiso   1.00
H28    H     0.80983   0.36525   0.90949   0.00000  Uiso   1.00
H29    H     0.03669   0.72540   0.13919   0.00000  Uiso   1.00
H30    H     0.09394   0.68106   0.12848   0.00000  Uiso   1.00
H31    H     0.10347   0.75462   0.13425   0.00000  Uiso   1.00
H32    H     0.58644   0.84061   0.85755   0.00000  Uiso   1.00
H33    H     0.61015   0.87751   0.92145   0.00000  Uiso   1.00
H34    H     0.63462   0.80975   0.90943   0.00000  Uiso   1.00
H35    H     0.70620   0.75052   0.13508   0.00000  Uiso   1.00
H36    H     0.28333   0.04719   0.12165   0.00000  Uiso   1.00
H37    H     0.32864   0.10455   0.12303   0.00000  Uiso   1.00
H38    H     0.25495   0.11451   0.12238   0.00000  Uiso   1.00
H39    H     0.15960   0.58566   0.85708   0.00000  Uiso   1.00
H40    H     0.12329   0.60917   0.92148   0.00000  Uiso   1.00
H41    H     0.19102   0.63348   0.90896   0.00000  Uiso   1.00
H42    H     0.89001   0.25015   0.12803   0.00000  Uiso   1.00
H43    H     0.95691   0.27945   0.12828   0.00000  Uiso   1.00
H44    H     0.89900   0.32396   0.12549   0.00000  Uiso   1.00
H45    H     0.41347   0.15928   0.85763   0.00000  Uiso   1.00
H46    H     0.73383   0.68267   0.12187   0.00000  Uiso   1.00
H47    H     0.38968   0.12233   0.92150   0.00000  Uiso   1.00
H48    H     0.36524   0.19011   0.90948   0.00000  Uiso   1.00
H49    H     0.72076   0.95730   0.12878   0.00000  Uiso   1.00
H50    H     0.67635   0.89929   0.12568   0.00000  Uiso   1.00
H51    H     0.75013   0.89041   0.12841   0.00000  Uiso   1.00
H52    H     0.65935   0.91354   0.64242   0.00000  Uiso   1.00
H53    H     0.62245   0.88980   0.57854   0.00000  Uiso   1.00
H54    H     0.69019   0.86534   0.59054   0.00000  Uiso   1.00
H55    H     0.45281   0.21696   0.37813   0.00000  Uiso   1.00
H56    H     0.39534   0.17180   0.37664   0.00000  Uiso   1.00
H57    H     0.74370   0.73614   0.06855   0.00000  Uiso   1.00
H58    H     0.38561   0.24555   0.37699   0.00000  Uiso   1.00
H59    H     0.91365   0.34072   0.64248   0.00000  Uiso   1.00
H60    H     0.88990   0.37753   0.57850   0.00000  Uiso   1.00
H61    H     0.86551   0.30973   0.59064   0.00000  Uiso   1.00
H62    H     0.19151   0.54750   0.19673   0.00000  Uiso   1.00
H63    H     0.23180   0.50420   0.24360   0.00000  Uiso   1.00
H64    H     0.26430   0.55969   0.20575   0.00000  Uiso   1.00
H65    H     0.34071   0.08661   0.64236   0.00000  Uiso   1.00
H66    H     0.37773   0.11039   0.57855   0.00000  Uiso   1.00
H67    H     0.30999   0.13489   0.59047   0.00000  Uiso   1.00
H68    H     0.16771   0.17179   0.69992   0.00000  Uiso   1.00
H69    H     0.54275   0.77917   0.37123   0.00000  Uiso   1.00
H70    H     0.60071   0.82361   0.37432   0.00000  Uiso   1.00
H71    H     0.60961   0.74981   0.37159   0.00000  Uiso   1.00
H72    H     0.08586   0.65984   0.64309   0.00000  Uiso   1.00
H73    H     0.10926   0.62346   0.57870   0.00000  Uiso   1.00
H74    H     0.13371   0.69118   0.59116   0.00000  Uiso   1.00
H75    H     0.77949   0.45698   0.37168   0.00000  Uiso   1.00
H76    H     0.82394   0.39902   0.37450   0.00000  Uiso   1.00
H77    H     0.75017   0.39007   0.37197   0.00000  Uiso   1.00
H78    H     0.34139   0.90801   0.35942   0.00000  Uiso   1.00
H79    H     0.10128   0.19994   0.71994   0.00000  Uiso   1.00
H80    H     0.38175   0.88368   0.42045   0.00000  Uiso   1.00
H81    H     0.31427   0.85759   0.41129   0.00000  Uiso   1.00
H82    H     0.54310   0.22059   0.62830   0.00000  Uiso   1.00
H83    H     0.60099   0.17606   0.62549   0.00000  Uiso   1.00
H84    H     0.61002   0.24987   0.62800   0.00000  Uiso   1.00
H85    H     0.08345   0.33822   0.35466   0.00000  Uiso   1.00
H86    H     0.10553   0.37290   0.42073   0.00000  Uiso   1.00
H87    H     0.13004   0.30544   0.40686   0.00000  Uiso   1.00
H88    H     0.77954   0.54303   0.62831   0.00000  Uiso   1.00
H89    H     0.82400   0.60101   0.62551   0.00000  Uiso   1.00
H90    H     0.12460   0.13721   0.75209   0.00000  Uiso   1.00
H91    H     0.75022   0.60994   0.62804   0.00000  Uiso   1.00
H92    H     0.65931   0.08639   0.35755   0.00000  Uiso   1.00
H93    H     0.62242   0.11010   0.42147   0.00000  Uiso   1.00
H94    H     0.69018   0.13456   0.40944   0.00000  Uiso   1.00
H95    H     0.38916   0.75096   0.62707   0.00000  Uiso   1.00
H96    H     0.45613   0.78012   0.62703   0.00000  Uiso   1.00
H97    H     0.39830   0.82477   0.62508   0.00000  Uiso   1.00
H98    H     0.91327   0.65920   0.35774   0.00000  Uiso   1.00
H99    H     0.88943   0.62212   0.42149   0.00000  Uiso   1.00
H100   H     0.86495   0.68990   0.40958   0.00000  Uiso   1.00
H101   H     0.75033   0.29410   0.13522   0.00000  Uiso   1.00
H102   H     0.22061   0.45708   0.62843   0.00000  Uiso   1.00
H103   H     0.17614   0.39912   0.62557   0.00000  Uiso   1.00
H104   H     0.24990   0.39016   0.62816   0.00000  Uiso   1.00
H105   H     0.27025   0.32205   0.12478   0.00000  Uiso   1.00
H106   H     0.68248   0.26650   0.12205   0.00000  Uiso   1.00
H107   H     0.73584   0.25675   0.06861   0.00000  Uiso   1.00
H108   H     0.17155   0.83251   0.70124   0.00000  Uiso   1.00
H109   H     0.19984   0.89887   0.72149   0.00000  Uiso   1.00
H110   H     0.13735   0.87532   0.75397   0.00000  Uiso   1.00
H111   H     0.70592   0.24969   0.86476   0.00000  Uiso   1.00
H112   H     0.73356   0.31755   0.87793   0.00000  Uiso   1.00
H113   H     0.74326   0.26415   0.93137   0.00000  Uiso   1.00
H114   H     0.17762   0.82755   0.30097   0.00000  Uiso   1.00
H115   H     0.11013   0.79774   0.28998   0.00000  Uiso   1.00
H116   H     0.26215   0.27036   0.06907   0.00000  Uiso   1.00
H117   H     0.12822   0.86099   0.25511   0.00000  Uiso   1.00
H118   H     0.75026   0.70593   0.86481   0.00000  Uiso   1.00
H119   H     0.68241   0.73351   0.87795   0.00000  Uiso   1.00
H120   H     0.73573   0.74329   0.93140   0.00000  Uiso   1.00
H121   H     0.17014   0.16746   0.29333   0.00000  Uiso   1.00
H122   H     0.19896   0.10141   0.27281   0.00000  Uiso   1.00
H123   H     0.13746   0.12552   0.23863   0.00000  Uiso   1.00
H124   H     0.29467   0.74950   0.86468   0.00000  Uiso   1.00
H125   H     0.26712   0.68154   0.87750   0.00000  Uiso   1.00
H126   H     0.25765   0.73456   0.93141   0.00000  Uiso   1.00
H127   H     0.83241   0.82823   0.69995   0.00000  Uiso   1.00
H128   H     0.83243   0.17179   0.30012   0.00000  Uiso   1.00
H129   H     0.89884   0.19995   0.27994   0.00000  Uiso   1.00
H130   H     0.87543   0.13722   0.24787   0.00000  Uiso   1.00
H131   H     0.24967   0.29399   0.86488   0.00000  Uiso   1.00
H132   H     0.31751   0.26640   0.87802   0.00000  Uiso   1.00
H133   H     0.26416   0.25657   0.93145   0.00000  Uiso   1.00
H134   H     0.82801   0.83235   0.30047   0.00000  Uiso   1.00
H135   H     0.79990   0.89883   0.28044   0.00000  Uiso   1.00
H136   H     0.86267   0.87553   0.24842   0.00000  Uiso   1.00
H137   H     0.79406   0.74976   0.63521   0.00000  Uiso   1.00
H138   H     0.89882   0.80009   0.72008   0.00000  Uiso   1.00
H139   H     0.76646   0.81763   0.62207   0.00000  Uiso   1.00
H140   H     0.75672   0.76428   0.56861   0.00000  Uiso   1.00
H141   H     0.33395   0.33003   0.20537   0.00000  Uiso   1.00
H142   H     0.39974   0.30111   0.22661   0.00000  Uiso   1.00
H143   H     0.37556   0.36286   0.26025   0.00000  Uiso   1.00
H144   H     0.74972   0.20595   0.63515   0.00000  Uiso   1.00
H145   H     0.81759   0.23353   0.62202   0.00000  Uiso   1.00
H146   H     0.76427   0.24334   0.56857   0.00000  Uiso   1.00
H147   H     0.35080   0.69576   0.21923   0.00000  Uiso   1.00
H148   H     0.31048   0.64225   0.18405   0.00000  Uiso   1.00
H149   H     0.87542   0.86280   0.75218   0.00000  Uiso   1.00
H150   H     0.36455   0.62564   0.23449   0.00000  Uiso   1.00
H151   H     0.20604   0.25034   0.63523   0.00000  Uiso   1.00
H152   H     0.23367   0.18250   0.62204   0.00000  Uiso   1.00
H153   H     0.24343   0.23591   0.56864   0.00000  Uiso   1.00
H154   H     0.66764   0.67192   0.19951   0.00000  Uiso   1.00
H155   H     0.60119   0.70000   0.21960   0.00000  Uiso   1.00
H156   H     0.62453   0.63720   0.25157   0.00000  Uiso   1.00
H157   H     0.24977   0.79468   0.63568   0.00000  Uiso   1.00
H158   H     0.18186   0.76715   0.62272   0.00000  Uiso   1.00
H159   H     0.23496   0.75771   0.56890   0.00000  Uiso   1.00
H160   H     0.24639   0.70821   0.12844   0.00000  Uiso   1.00
H161   H     0.67186   0.33245   0.19993   0.00000  Uiso   1.00
H162   H     0.70005   0.39888   0.22005   0.00000  Uiso   1.00
H163   H     0.63733   0.37551   0.25217   0.00000  Uiso   1.00
H164   H     0.21065   0.74276   0.36184   0.00000  Uiso   1.00
H165   H     0.23910   0.80916   0.38050   0.00000  Uiso   1.00
H166   H     0.24953   0.75183   0.42856   0.00000  Uiso   1.00
H167   H     0.66767   0.32823   0.80003   0.00000  Uiso   1.00
H168   H     0.60125   0.30005   0.77997   0.00000  Uiso   1.00
H169   H     0.62462   0.36278   0.74782   0.00000  Uiso   1.00
H170   H     0.24709   0.20291   0.36258   0.00000  Uiso   1.00
H171   H     0.31611   0.73275   0.12096   0.00000  Uiso   1.00
H172   H     0.17898   0.23026   0.37463   0.00000  Uiso   1.00
H173   H     0.23092   0.23826   0.43003   0.00000  Uiso   1.00
H174   H     0.67184   0.66754   0.80006   0.00000  Uiso   1.00
H175   H     0.70001   0.60111   0.77997   0.00000  Uiso   1.00
H176   H     0.63732   0.62447   0.74784   0.00000  Uiso   1.00
H177   H     0.79404   0.25024   0.36482   0.00000  Uiso   1.00
H178   H     0.76642   0.18236   0.37796   0.00000  Uiso   1.00
H179   H     0.75667   0.23571   0.43142   0.00000  Uiso   1.00
H180   H     0.33282   0.67150   0.79921   0.00000  Uiso   1.00
H181   H     0.39910   0.69975   0.77868   0.00000  Uiso   1.00
H182   H     0.26622   0.74764   0.06498   0.00000  Uiso   1.00
H183   H     0.37548   0.63718   0.74642   0.00000  Uiso   1.00
H184   H     0.76379   0.75628   0.43144   0.00000  Uiso   1.00
H185   H     0.74942   0.79380   0.36491   0.00000  Uiso   1.00
H186   H     0.81724   0.76620   0.37815   0.00000  Uiso   1.00
H187   H     0.32810   0.33250   0.80023   0.00000  Uiso   1.00
H188   H     0.29995   0.39893   0.78010   0.00000  Uiso   1.00
H189   H     0.36268   0.37558   0.74803   0.00000  Uiso   1.00
H190   H     0.16152   0.41782   0.14575   0.00000  Uiso   1.00
H191   H     0.12773   0.39580   0.07911   0.00000  Uiso   1.00
H192   H     0.19525   0.37185   0.09363   0.00000  Uiso   1.00
O1     O     0.00000   0.50000   0.25000   0.00000  Uiso   1.00
O2     O     0.00000   0.45454   0.88202   0.00000  Uiso   1.00
O3     O     0.71350   0.91582   0.20813   0.00000  Uiso   1.00
O4     O     0.62974   0.83275   0.64521   0.00000  Uiso   1.00
O5     O     0.41431   0.21237   0.29679   0.00000  Uiso   1.00
O6     O     0.83288   0.37025   0.64517   0.00000  Uiso   1.00
O7     O     0.21628   0.57968   0.27951   0.00000  Uiso   1.00
O8     O     0.37036   0.16738   0.64525   0.00000  Uiso   1.00
O9     O     0.58421   0.78643   0.29188   0.00000  Uiso   1.00
O10    O     0.16665   0.63033   0.64501   0.00000  Uiso   1.00
O11    O     0.78658   0.41571   0.29220   0.00000  Uiso   1.00
O12    O     0.37300   0.82809   0.35255   0.00000  Uiso   1.00
O13    O     0.54546   0.00000   0.11798   0.00000  Uiso   1.00
O14    O     0.58435   0.21348   0.70777   0.00000  Uiso   1.00
O15    O     0.16434   0.36752   0.35574   0.00000  Uiso   1.00
O16    O     0.78659   0.58429   0.70780   0.00000  Uiso   1.00
O17    O     0.62974   0.16718   0.35482   0.00000  Uiso   1.00
O18    O     0.41542   0.78674   0.70692   0.00000  Uiso   1.00
O19    O     0.83255   0.62952   0.35471   0.00000  Uiso   1.00
O20    O     0.21345   0.41576   0.70790   0.00000  Uiso   1.00
O21    O     0.45454   0.00000   0.88202   0.00000  Uiso   1.00
O22    O     0.50000   0.95454   0.61798   0.00000  Uiso   1.00
O23    O     0.50000   0.04546   0.38202   0.00000  Uiso   1.00
O24    O     0.95454   0.50000   0.61798   0.00000  Uiso   1.00
O25    O     0.04546   0.50000   0.38202   0.00000  Uiso   1.00
O26    O     0.50000   0.04546   0.61798   0.00000  Uiso   1.00
O27    O     0.50000   0.95454   0.38202   0.00000  Uiso   1.00
O28    O     0.04546   0.50000   0.61798   0.00000  Uiso   1.00
O29    O    -0.00000   0.50000   0.75000   0.00000  Uiso   1.00
O30    O     0.95454   0.50000   0.38202   0.00000  Uiso   1.00
O31    O     0.06399   0.60947   0.21539   0.00000  Uiso   1.00
O32    O     0.93601   0.39053   0.78461   0.00000  Uiso   1.00
O33    O     0.60947   0.93601   0.21539   0.00000  Uiso   1.00
O34    O     0.39053   0.06399   0.78461   0.00000  Uiso   1.00
O35    O     0.93601   0.39053   0.21539   0.00000  Uiso   1.00
O36    O     0.06399   0.60947   0.78461   0.00000  Uiso   1.00
O37    O     0.39053   0.06399   0.21539   0.00000  Uiso   1.00
O38    O     0.60947   0.93601   0.78461   0.00000  Uiso   1.00
O39    O     0.93601   0.60947   0.78461   0.00000  Uiso   1.00
O40    O     0.50000   0.00000   0.25000   0.00000  Uiso   1.00
O41    O     0.06399   0.39053   0.21539   0.00000  Uiso   1.00
O42    O     0.39053   0.93601   0.78461   0.00000  Uiso   1.00
O43    O     0.60947   0.06399   0.21539   0.00000  Uiso   1.00
O44    O     0.06399   0.39053   0.78461   0.00000  Uiso   1.00
O45    O     0.93601   0.60947   0.21539   0.00000  Uiso   1.00
O46    O     0.60947   0.06399   0.78461   0.00000  Uiso   1.00
O47    O     0.39053   0.93601   0.21539   0.00000  Uiso   1.00
O48    O     0.56399   0.10947   0.71539   0.00000  Uiso   1.00
O49    O     0.43601   0.89053   0.28461   0.00000  Uiso   1.00
O50    O     0.10947   0.43601   0.71539   0.00000  Uiso   1.00
O51    O     0.50000   0.00000   0.75000   0.00000  Uiso   1.00
O52    O     0.89053   0.56399   0.28461   0.00000  Uiso   1.00
O53    O     0.43601   0.89053   0.71539   0.00000  Uiso   1.00
O54    O     0.56399   0.10947   0.28461   0.00000  Uiso   1.00
O55    O     0.89053   0.56399   0.71539   0.00000  Uiso   1.00
O56    O     0.10947   0.43601   0.28461   0.00000  Uiso   1.00
O57    O     0.43601   0.10947   0.28461   0.00000  Uiso   1.00
O58    O     0.56399   0.89053   0.71539   0.00000  Uiso   1.00
O59    O     0.89053   0.43601   0.28461   0.00000  Uiso   1.00
O60    O     0.10947   0.56399   0.71539   0.00000  Uiso   1.00
O61    O     0.56399   0.89053   0.28461   0.00000  Uiso   1.00
O62    O     0.00000   0.45454   0.11798   0.00000  Uiso   1.00
O63    O     0.43601   0.10947   0.71539   0.00000  Uiso   1.00
O64    O     0.10947   0.56399   0.28461   0.00000  Uiso   1.00
O65    O     0.89053   0.43601   0.71539   0.00000  Uiso   1.00
O66    O     0.21309   0.25936   0.14240   0.00000  Uiso   1.00
O67    O     0.83746   0.79460   0.78515   0.00000  Uiso   1.00
O68    O     0.25559   0.79150   0.14226   0.00000  Uiso   1.00
O69    O     0.79454   0.16246   0.78505   0.00000  Uiso   1.00
O70    O     0.79041   0.74467   0.14406   0.00000  Uiso   1.00
O71    O     0.16252   0.20539   0.78511   0.00000  Uiso   1.00
O72    O     0.74445   0.20982   0.14400   0.00000  Uiso   1.00
O73    O     0.00000   0.54546   0.88202   0.00000  Uiso   1.00
O74    O     0.20570   0.83720   0.78620   0.00000  Uiso   1.00
O75    O     0.79016   0.25551   0.85599   0.00000  Uiso   1.00
O76    O     0.16404   0.79387   0.21709   0.00000  Uiso   1.00
O77    O     0.74439   0.79020   0.85601   0.00000  Uiso   1.00
O78    O     0.20675   0.16410   0.20953   0.00000  Uiso   1.00
O79    O     0.21039   0.74370   0.85639   0.00000  Uiso   1.00
O80    O     0.83747   0.20540   0.21490   0.00000  Uiso   1.00
O81    O     0.25554   0.20973   0.85603   0.00000  Uiso   1.00
O82    O     0.79460   0.83760   0.21520   0.00000  Uiso   1.00
O83    O     0.70983   0.75558   0.64399   0.00000  Uiso   1.00
O84    O     0.45454   0.00000   0.11798   0.00000  Uiso   1.00
O85    O     0.33662   0.29377   0.28940   0.00000  Uiso   1.00
O86    O     0.75563   0.29022   0.64396   0.00000  Uiso   1.00
O87    O     0.29676   0.65644   0.27633   0.00000  Uiso   1.00
O88    O     0.29027   0.24454   0.64404   0.00000  Uiso   1.00
O89    O     0.66242   0.70531   0.28480   0.00000  Uiso   1.00
O90    O     0.24394   0.71035   0.64390   0.00000  Uiso   1.00
O91    O     0.70546   0.33750   0.28513   0.00000  Uiso   1.00
O92    O     0.29477   0.74884   0.35146   0.00000  Uiso   1.00
O93    O     0.66257   0.29460   0.71485   0.00000  Uiso   1.00
O94    O     0.24160   0.28743   0.35670   0.00000  Uiso   1.00
O95    O     0.54546   0.00000   0.88202   0.00000  Uiso   1.00
O96    O     0.70547   0.66248   0.71487   0.00000  Uiso   1.00
O97    O     0.70981   0.24440   0.35604   0.00000  Uiso   1.00
O98    O     0.33732   0.70553   0.71415   0.00000  Uiso   1.00
O99    O     0.75532   0.70955   0.35592   0.00000  Uiso   1.00
O100   O     0.29457   0.33758   0.71501   0.00000  Uiso   1.00
O101   O     0.13301   0.33662   0.14376   0.00000  Uiso   1.00
O102   O     0.91564   0.71347   0.79225   0.00000  Uiso   1.00
O103   O     0.33196   0.87212   0.14522   0.00000  Uiso   1.00
O104   O     0.71340   0.08426   0.79213   0.00000  Uiso   1.00
O105   O     0.87050   0.66751   0.14529   0.00000  Uiso   1.00
O106   O     0.00000   0.54546   0.11798   0.00000  Uiso   1.00
O107   O     0.08431   0.28650   0.79216   0.00000  Uiso   1.00
O108   O     0.66722   0.12976   0.14520   0.00000  Uiso   1.00
O109   O     0.28681   0.91538   0.79320   0.00000  Uiso   1.00
O110   O     0.87026   0.33272   0.85479   0.00000  Uiso   1.00
O111   O     0.08393   0.71466   0.21403   0.00000  Uiso   1.00
O112   O     0.66719   0.87025   0.85480   0.00000  Uiso   1.00
O113   O     0.28779   0.08601   0.20283   0.00000  Uiso   1.00
O114   O     0.13026   0.66654   0.85510   0.00000  Uiso   1.00
O115   O     0.91566   0.28654   0.20778   0.00000  Uiso   1.00
O116   O     0.33272   0.12966   0.85479   0.00000  Uiso   1.00
Zn1    Zn    0.06497   0.50000   0.29947   0.00000  Uiso   1.00
Zn2    Zn    0.43503   0.00000   0.20053   0.00000  Uiso   1.00
Zn3    Zn    0.00000   0.43503   0.79947   0.00000  Uiso   1.00
Zn4    Zn    0.00000   0.56497   0.20053   0.00000  Uiso   1.00
Zn5    Zn    0.43503   0.00000   0.79947   0.00000  Uiso   1.00
Zn6    Zn    0.56497   0.00000   0.20053   0.00000  Uiso   1.00
Zn7    Zn    0.00000   0.56497   0.79947   0.00000  Uiso   1.00
Zn8    Zn    0.00000   0.43503   0.20053   0.00000  Uiso   1.00
Zn9    Zn    0.93503   0.50000   0.70053   0.00000  Uiso   1.00
Zn10   Zn    0.50000   0.93503   0.29947   0.00000  Uiso   1.00
Zn11   Zn    0.50000   0.06497   0.70053   0.00000  Uiso   1.00
Zn12   Zn    0.93503   0.50000   0.29947   0.00000  Uiso   1.00
Zn13   Zn    0.06497   0.50000   0.70053   0.00000  Uiso   1.00
Zn14   Zn    0.50000   0.06497   0.29947   0.00000  Uiso   1.00
Zn15   Zn    0.50000   0.93503   0.70053   0.00000  Uiso   1.00
Zn16   Zn    0.56497   0.00000   0.79947   0.00000  Uiso   1.00
loop_
_geom_bond_atom_site_label_1
_geom_bond_atom_site_label_2
_geom_bond_distance
_geom_bond_site_symmetry_2
_ccdc_geom_bond_type
C1     C137    1.415   .     A
C1     C166    1.415   .     A
C1     C24     1.474   .     S
C2     C147    1.408   .     A
C2     C116    1.474   .     S
C2     C158    1.414   .     A
C3     C158    1.401   .     A
C3     O7      1.385   .     S
C3     C27     1.414   .     A
C4     C32     1.412   .     A
C4     O8      1.385   .     S
C4     C159    1.399   .     A
C5     C33     1.414   .     A
C5     C161    1.404   .     A
C5     O9      1.384   .     S
C6     O10     1.385   .     S
C6     C30     1.412   .     A
C6     C162    1.399   .     A
C7     O11     1.384   .     S
C7     C163    1.403   .     A
C7     C31     1.414   .     A
C8     C19     1.414   .     A
C8     C164    1.401   .     A
C8     O12     1.385   .     S
C9     C20     1.414   .     A
C9     C165    1.403   .     A
C9     O14     1.384   .     S
C10    C166    1.399   .     A
C10    O15     1.385   .     S
C10    C17     1.411   .     A
C11    C167    1.403   .     A
C11    O16     1.384   .     S
C11    C18     1.414   .     A
C12    O17     1.385   .     S
C12    C23     1.412   .     A
C12    C168    1.399   .     A
C13    C105    1.474   .     S
C13    C155    1.415   .     A
C13    C148    1.415   .     A
C14    O18     1.384   .     S
C14    C169    1.403   .     A
C14    C25     1.414   .     A
C15    C170    1.399   .     A
C15    O19     1.385   .     S
C15    C21     1.412   .     A
C16    O20     1.384   .     S
C16    C22     1.414   .     A
C16    C172    1.404   .     A
C17    C130    1.468   .     S
C17    C173    1.411   .     A
C18    C174    1.414   .     A
C18    C129    1.477   .     S
C19    C175    1.412   .     A
C19    C136    1.473   .     S
C20    C176    1.414   .     A
C20    C135    1.476   .     S
C21    C177    1.412   .     A
C21    C134    1.470   .     S
C22    C133    1.477   .     S
C22    C178    1.414   .     A
C23    C179    1.412   .     A
C23    C132    1.469   .     S
C24    C156    1.407   .     A
C24    C150    1.407   .     A
C25    C180    1.414   .     A
C25    C131    1.477   .     S
C26    C121    1.469   .     S
C26    C192    1.412   .     A
C26    C181    1.412   .     A
C27    C120    1.474   .     S
C27    C183    1.411   .     A
C28    C184    1.412   .     A
C28    C190    1.412   .     A
C28    C128    1.470   .     S
C29    C191    1.414   .     A
C29    C185    1.414   .     A
C29    C126    1.478   .     S
C30    C186    1.412   .     A
C30    C125    1.469   .     S
C31    C187    1.414   .     A
C31    C124    1.476   .     S
C32    C123    1.470   .     S
C32    C188    1.412   .     A
C33    C189    1.414   .     A
C33    C122    1.477   .     S
C34    H116    1.109   .     S
C34    H1      1.109   .     S
C34    O66     1.412   .     S
C34    H105    1.114   .     S
C35    C171    1.473   .     S
C35    C151    1.415   .     A
C35    C162    1.415   .     A
C36    H138    1.113   .     S
C36    H149    1.109   .     S
C36    H127    1.110   .     S
C36    O67     1.409   .     S
C37    H171    1.114   .     S
C37    H182    1.109   .     S
C37    H160    1.109   .     S
C37    O68     1.413   .     S
C38    H13     1.113   .     S
C38    O69     1.409   .     S
C38    H2      1.110   .     S
C38    H24     1.109   .     S
C39    H35     1.109   .     S
C39    O70     1.412   .     S
C39    H57     1.109   .     S
C39    H46     1.114   .     S
C40    H68     1.110   .     S
C40    H90     1.109   .     S
C40    O71     1.409   .     S
C40    H79     1.113   .     S
C41    H106    1.114   .     S
C41    H101    1.109   .     S
C41    H107    1.109   .     S
C41    O72     1.412   .     S
C42    H108    1.110   .     S
C42    H109    1.113   .     S
C42    O74     1.409   .     S
C42    H110    1.109   .     S
C43    H112    1.114   .     S
C43    H113    1.109   .     S
C43    O75     1.412   .     S
C43    H111    1.109   .     S
C44    H115    1.114   .     S
C44    H117    1.109   .     S
C44    H114    1.109   .     S
C44    O76     1.409   .     S
C45    O77     1.412   .     S
C45    H118    1.109   .     S
C45    H120    1.109   .     S
C45    H119    1.114   .     S
C46    C160    1.473   .     S
C46    C163    1.407   .     A
C46    C152    1.407   .     A
C47    H121    1.110   .     S
C47    O78     1.409   .     S
C47    H122    1.113   .     S
C47    H123    1.109   .     S
C48    H126    1.109   .     S
C48    O79     1.412   .     S
C48    H124    1.109   .     S
C48    H125    1.114   .     S
C49    O80     1.409   .     S
C49    H129    1.113   .     S
C49    H128    1.110   .     S
C49    H130    1.109   .     S
C50    O81     1.412   .     S
C50    H131    1.109   .     S
C50    H132    1.114   .     S
C50    H133    1.109   .     S
C51    O82     1.409   .     S
C51    H134    1.110   .     S
C51    H136    1.109   .     S
C51    H135    1.113   .     S
C52    O83     1.412   .     S
C52    H137    1.109   .     S
C52    H139    1.114   .     S
C52    H140    1.109   .     S
C53    H141    1.110   .     S
C53    H143    1.109   .     S
C53    H142    1.113   .     S
C53    O85     1.409   .     S
C54    H144    1.109   .     S
C54    H146    1.109   .     S
C54    O86     1.412   .     S
C54    H145    1.114   .     S
C55    H148    1.114   .     S
C55    H147    1.109   .     S
C55    H150    1.109   .     S
C55    O87     1.412   .     S
C56    H153    1.109   .     S
C56    O88     1.412   .     S
C56    H152    1.114   .     S
C56    H151    1.109   .     S
C57    C159    1.415   .     A
C57    C153    1.415   .     A
C57    C149    1.474   .     S
C58    H154    1.110   .     S
C58    O89     1.409   .     S
C58    H155    1.113   .     S
C58    H156    1.109   .     S
C59    O90     1.412   .     S
C59    H159    1.109   .     S
C59    H157    1.109   .     S
C59    H158    1.114   .     S
C60    H163    1.109   .     S
C60    H162    1.113   .     S
C60    O91     1.409   .     S
C60    H161    1.110   .     S
C61    H165    1.113   .     S
C61    O92     1.412   .     S
C61    H166    1.109   .     S
C61    H164    1.109   .     S
C62    H169    1.109   .     S
C62    H167    1.110   .     S
C62    O93     1.409   .     S
C62    H168    1.113   .     S
C63    H173    1.109   .     S
C63    H172    1.113   .     S
C63    O94     1.412   .     S
C63    H170    1.109   .     S
C64    O96     1.409   .     S
C64    H175    1.113   .     S
C64    H174    1.110   .     S
C64    H176    1.109   .     S
C65    H178    1.114   .     S
C65    O97     1.412   .     S
C65    H177    1.109   .     S
C65    H179    1.109   .     S
C66    H181    1.113   .     S
C66    H180    1.110   .     S
C66    O98     1.409   .     S
C66    H183    1.109   .     S
C67    H186    1.114   .     S
C67    H184    1.109   .     S
C67    H185    1.109   .     S
C67    O99     1.412   .     S
C68    C138    1.474   .     S
C68    C161    1.407   .     A
C68    C154    1.407   .     A
C69    H187    1.110   .     S
C69    O100    1.409   .     S
C69    H188    1.113   .     S
C69    H189    1.109   .     S
C70    H191    1.109   .     S
C70    H190    1.114   .     S
C70    H192    1.109   .     S
C70    O101    1.412   .     S
C71    H5      1.112   .     S
C71    H3      1.109   .     S
C71    O102    1.412   .     S
C71    H4      1.114   .     S
C72    H7      1.109   .     S
C72    H6      1.113   .     S
C72    O103    1.411   .     S
C72    H8      1.109   .     S
C73    H9      1.111   .     S
C73    H11     1.114   .     S
C73    H10     1.109   .     S
C73    O104    1.412   .     S
C74    H14     1.109   .     S
C74    O105    1.412   .     S
C74    H15     1.108   .     S
C74    H12     1.114   .     S
C75    O107    1.412   .     S
C75    H18     1.111   .     S
C75    H16     1.109   .     S
C75    H17     1.114   .     S
C76    H21     1.108   .     S
C76    H20     1.109   .     S
C76    O108    1.412   .     S
C76    H19     1.114   .     S
C77    H22     1.109   .     S
C77    H25     1.112   .     S
C77    H23     1.114   .     S
C77    O109    1.412   .     S
C78    H27     1.109   .     S
C78    H28     1.108   .     S
C78    H26     1.114   .     S
C78    O110    1.412   .     S
C79    C119    1.418   .     S
C79    C90     1.195   .     S
C80    H29     1.109   .     S
C80    O111    1.412   .     S
C80    H31     1.111   .     S
C80    H30     1.114   .     S
C81    H34     1.108   .     S
C81    H32     1.114   .     S
C81    H33     1.109   .     S
C81    O112    1.412   .     S
C82    H36     1.109   .     S
C82    O113    1.412   .     S
C82    H38     1.112   .     S
C82    H37     1.114   .     S
C83    H40     1.109   .     S
C83    H41     1.109   .     S
C83    H39     1.114   .     S
C83    O114    1.412   .     S
C84    O115    1.412   .     S
C84    H43     1.109   .     S
C84    H42     1.112   .     S
C84    H44     1.114   .     S
C85    H48     1.108   .     S
C85    H45     1.114   .     S
C85    O116    1.412   .     S
C85    H47     1.109   .     S
C86    O3      1.412   .     S
C86    H49     1.109   .     S
C86    H51     1.112   .     S
C86    H50     1.114   .     S
C87    H53     1.109   .     S
C87    H52     1.114   .     S
C87    O4      1.412   .     S
C87    H54     1.108   .     S
C88    H56     1.114   .     S
C88    O5      1.412   .     S
C88    H58     1.112   .     S
C88    H55     1.109   .     S
C89    H60     1.109   .     S
C89    O6      1.412   .     S
C89    H59     1.114   .     S
C89    H61     1.109   .     S
C90    C118    1.417   .     S
C91    H63     1.109   .     S
C91    O7      1.411   .     S
C91    H64     1.110   .     S
C91    H62     1.113   .     S
C92    H65     1.114   .     S
C92    H67     1.108   .     S
C92    H66     1.109   .     S
C92    O8      1.412   .     S
C93    O9      1.412   .     S
C93    H70     1.114   .     S
C93    H69     1.109   .     S
C93    H71     1.111   .     S
C94    O10     1.412   .     S
C94    H73     1.109   .     S
C94    H72     1.114   .     S
C94    H74     1.108   .     S
C95    H75     1.109   .     S
C95    O11     1.412   .     S
C95    H77     1.112   .     S
C95    H76     1.114   .     S
C96    O12     1.412   .     S
C96    H78     1.114   .     S
C96    H81     1.108   .     S
C96    H80     1.109   .     S
C97    H83     1.114   .     S
C97    H82     1.109   .     S
C97    H84     1.112   .     S
C97    O14     1.412   .     S
C98    H87     1.109   .     S
C98    O15     1.412   .     S
C98    H85     1.114   .     S
C98    H86     1.109   .     S
C99    H89     1.114   .     S
C99    O16     1.412   .     S
C99    H88     1.109   .     S
C99    H91     1.112   .     S
C100   H92     1.114   .     S
C100   H94     1.108   .     S
C100   O17     1.412   .     S
C100   H93     1.109   .     S
C101   C117    1.417   .     S
C101   C106    1.195   .     S
C102   H96     1.109   .     S
C102   O18     1.412   .     S
C102   H97     1.114   .     S
C102   H95     1.112   .     S
C103   H99     1.109   .     S
C103   O19     1.412   .     S
C103   H100    1.108   .     S
C103   H98     1.114   .     S
C104   O20     1.412   .     S
C104   H102    1.109   .     S
C104   H103    1.114   .     S
C104   H104    1.111   .     S
C105   C139    1.407   .     A
C105   C167    1.407   .     A
C106   C115    1.417   .     S
C107   C114    1.418   .     S
C107   C108    1.195   1_556 S
C108   C113    1.418   .     S
C108   C107    1.195   1_554 S
C109   C112    1.417   .     S
C109   C110    1.195   1_556 S
C110   C111    1.417   .     S
C110   C109    1.195   1_554 S
C111   O62     1.277   .     A
C111   O106    1.277   .     A
C112   O2      1.278   .     A
C112   O73     1.277   .     A
C113   O13     1.278   .     A
C113   O84     1.278   .     A
C114   O21     1.278   .     S
C114   O95     1.278   .     S
C115   O26     1.278   .     A
C115   O22     1.277   1_545 S
C116   C164    1.414   .     A
C116   C140    1.415   .     A
C117   O27     1.278   1_545 A
C117   O23     1.277   .     S
C118   O28     1.278   .     A
C118   O24     1.278   1_455 S
C119   O30     1.278   1_455 A
C119   O25     1.278   .     S
C120   O64     1.280   .     A
C120   O31     1.276   .     A
C121   O32     1.277   .     A
C121   O65     1.276   .     A
C122   O33     1.279   .     A
C122   O61     1.279   .     A
C123   O63     1.276   .     A
C123   O34     1.276   .     A
C124   O59     1.279   .     A
C124   O35     1.279   .     A
C125   O60     1.276   .     A
C125   O36     1.276   .     A
C126   O57     1.280   .     A
C126   O37     1.279   .     A
C127   C165    1.407   .     A
C127   C141    1.407   .     A
C127   C182    1.473   .     S
C128   O38     1.277   .     A
C128   O58     1.277   .     A
C129   O39     1.279   .     A
C129   O55     1.279   .     A
C130   O56     1.276   .     A
C130   O41     1.276   .     A
C131   O42     1.279   .     A
C131   O53     1.279   .     A
C132   O43     1.277   .     A
C132   O54     1.277   .     A
C133   O44     1.279   .     A
C133   O50     1.279   .     A
C134   O45     1.276   .     A
C134   O52     1.276   .     A
C135   O48     1.279   .     A
C135   O46     1.279   .     A
C136   O47     1.278   .     A
C136   O49     1.277   .     A
C137   C173    1.399   .     A
C137   O66     1.387   .     S
C138   C142    1.415   .     A
C138   C170    1.415   .     A
C139   O67     1.384   .     S
C139   C174    1.404   .     A
C140   O68     1.387   .     S
C140   C175    1.399   .     A
C141   C176    1.403   .     A
C141   O69     1.384   .     S
C142   C177    1.399   .     A
C142   O70     1.387   .     S
C143   C178    1.404   .     A
C143   C149    1.407   .     A
C143   O71     1.384   .     S
C144   C160    1.415   .     A
C144   O72     1.387   .     S
C144   C179    1.399   .     A
C145   O74     1.384   .     S
C145   C180    1.403   .     A
C145   C171    1.407   .     A
C146   C181    1.399   .     A
C146   O75     1.387   .     S
C146   C182    1.415   .     A
C147   O76     1.384   .     S
C147   C183    1.402   .     A
C148   O77     1.387   .     S
C148   C184    1.399   .     A
C149   C172    1.407   .     A
C150   C185    1.403   .     A
C150   O78     1.384   .     S
C151   C186    1.399   .     A
C151   O79     1.387   .     S
C152   O80     1.384   .     S
C152   C187    1.403   .     A
C153   O81     1.387   .     S
C153   C188    1.399   .     A
C154   C189    1.403   .     A
C154   O82     1.384   .     S
C155   O83     1.387   .     S
C155   C190    1.399   .     A
C156   C191    1.403   .     A
C156   O85     1.384   .     S
C157   C182    1.415   .     A
C157   C192    1.399   .     A
C157   O86     1.387   .     S
C158   O87     1.386   .     S
C159   O88     1.387   .     S
C160   C168    1.415   .     A
C161   O89     1.384   .     S
C162   O90     1.387   .     S
C163   O91     1.384   .     S
C164   O92     1.386   .     S
C165   O93     1.384   .     S
C166   O94     1.387   .     S
C167   O96     1.384   .     S
C168   O97     1.387   .     S
C169   C171    1.407   .     A
C169   O98     1.384   .     S
C170   O99     1.387   .     S
C172   O100    1.384   .     S
C173   O101    1.385   .     S
C174   O102    1.384   .     S
C175   O103    1.385   .     S
C176   O104    1.384   .     S
C177   O105    1.385   .     S
C178   O107    1.384   .     S
C179   O108    1.385   .     S
C180   O109    1.384   .     S
C181   O110    1.385   .     S
C183   O111    1.384   .     S
C184   O112    1.385   .     S
C185   O113    1.384   .     S
C186   O114    1.385   .     S
C187   O115    1.384   .     S
C188   O116    1.385   .     S
C189   O3      1.384   .     S
C190   O4      1.385   .     S
C191   O5      1.384   .     S
C192   O6      1.385   .     S
O1     Zn8     1.940   .     S
O1     Zn1     1.940   .     S
O1     Zn4     1.939   .     S
O1     Zn12    1.940   1_455 S
O2     Zn3     1.908   .     S
O13    Zn6     1.908   .     S
O21    Zn5     1.908   .     S
O22    Zn15    1.908   .     S
O22    C115    1.277   1_565 S
O23    Zn14    1.908   .     S
O24    Zn9     1.908   .     S
O24    C118    1.278   1_655 S
O25    Zn1     1.908   .     S
O26    Zn11    1.908   .     S
O27    Zn10    1.908   .     S
O27    C117    1.278   1_565 A
O28    Zn13    1.908   .     S
O29    Zn9     1.940   1_455 S
O29    Zn3     1.939   .     S
O29    Zn7     1.940   .     S
O29    Zn13    1.940   .     S
O30    C119    1.278   1_655 A
O30    Zn12    1.908   .     S
O31    Zn4     1.940   .     S
O32    Zn3     1.940   1_655 S
O33    Zn6     1.940   1_565 S
O34    Zn5     1.940   .     S
O35    Zn8     1.940   1_655 S
O36    Zn7     1.940   .     S
O37    Zn2     1.940   .     S
O38    Zn16    1.940   1_565 S
O39    Zn7     1.940   1_655 S
O40    Zn14    1.940   .     S
O40    Zn2     1.940   .     S
O40    Zn6     1.940   .     S
O40    Zn10    1.939   1_545 S
O41    Zn8     1.940   .     S
O42    Zn5     1.940   1_565 S
O43    Zn6     1.940   .     S
O44    Zn3     1.940   .     S
O45    Zn4     1.940   1_655 S
O46    Zn16    1.939   .     S
O47    Zn2     1.939   1_565 S
O48    Zn11    1.940   .     S
O49    Zn10    1.940   .     S
O50    Zn13    1.940   .     S
O51    Zn15    1.940   1_545 S
O51    Zn5     1.940   .     S
O51    Zn11    1.939   .     S
O51    Zn16    1.940   .     S
O52    Zn12    1.940   .     S
O53    Zn15    1.940   .     S
O54    Zn14    1.940   .     S
O55    Zn9     1.940   .     S
O56    Zn1     1.940   .     S
O57    Zn14    1.940   .     S
O58    Zn15    1.940   .     S
O59    Zn12    1.940   .     S
O60    Zn13    1.940   .     S
O61    Zn10    1.940   .     S
O62    Zn8     1.908   .     S
O63    Zn11    1.940   .     S
O64    Zn1     1.939   .     S
O65    Zn9     1.939   .     S
O73    Zn7     1.908   .     S
O84    Zn2     1.908   .     S
O95    Zn16    1.908   .     S
O106   Zn4     1.908   .     S
Zn2    O47     1.939   1_545 S
Zn3    O32     1.940   1_455 S
Zn4    O45     1.940   1_455 S
Zn5    O42     1.940   1_545 S
Zn6    O33     1.940   1_545 S
Zn7    O39     1.940   1_455 S
Zn8    O35     1.940   1_455 S
Zn9    O29     1.940   1_655 S
Zn10   O40     1.939   1_565 S
Zn12   O1      1.940   1_655 S
Zn15   O51     1.940   1_565 S
Zn16   O38     1.940   1_545 S
