data_str_m1_o10_o18_pcu_sym.146
_audit_creation_date              2020-01-03
_audit_creation_method            'Materials Studio'
_symmetry_space_group_name_H-M    'P1'
_symmetry_Int_Tables_number       1
_symmetry_cell_setting            triclinic
loop_
_symmetry_equiv_pos_as_xyz
  x,y,z
_cell_length_a                    32.6461
_cell_length_b                    32.6876
_cell_length_c                    35.2418
_cell_angle_alpha                 98.0604
_cell_angle_beta                  72.8540
_cell_angle_gamma                 98.2418
loop_
_atom_site_label
_atom_site_type_symbol
_atom_site_fract_x
_atom_site_fract_y
_atom_site_fract_z
_atom_site_U_iso_or_equiv
_atom_site_adp_type
_atom_site_occupancy
Zn1    Zn    0.19244   0.14090   0.28278   0.00000  Uiso   1.00
Zn2    Zn    0.13459   0.12378   0.22258   0.00000  Uiso   1.00
Zn3    Zn    0.21166   0.19664   0.21188   0.00000  Uiso   1.00
Zn4    Zn    0.12798   0.20535   0.28277   0.00000  Uiso   1.00
O5     O     0.16667   0.16667   0.25000   0.00000  Uiso   1.00
O6     O     0.06990   0.18960   0.27820   0.00000  Uiso   1.00
O7     O     0.25440   0.15277   0.26768   0.00000  Uiso   1.00
O8     O     0.13800   0.06903   0.23607   0.00000  Uiso   1.00
O9     O     0.20437   0.25527   0.21806   0.00000  Uiso   1.00
O10    O     0.15693   0.12393   0.16625   0.00000  Uiso   1.00
O11    O     0.12687   0.20646   0.33749   0.00000  Uiso   1.00
O12    O     0.21088   0.17493   0.15877   0.00000  Uiso   1.00
O13    O     0.17198   0.16135   0.33749   0.00000  Uiso   1.00
O14    O     0.17849   0.08101   0.27821   0.00000  Uiso   1.00
O15    O     0.14581   0.26136   0.26767   0.00000  Uiso   1.00
O16    O     0.07452   0.13251   0.23607   0.00000  Uiso   1.00
O17    O     0.26785   0.19179   0.21806   0.00000  Uiso   1.00
C18    C     0.05268   0.16006   0.25907   0.00000  Uiso   1.00
C19    C     0.28115   0.17302   0.24089   0.00000  Uiso   1.00
C20    C     0.15607   0.05638   0.25901   0.00000  Uiso   1.00
C21    C     0.17652   0.27766   0.24110   0.00000  Uiso   1.00
C22    C     0.18828   0.14533   0.14376   0.00000  Uiso   1.00
C23    C     0.14493   0.18752   0.35672   0.00000  Uiso   1.00
C24    C     0.13010   0.19119   0.40116   0.00000  Uiso   1.00
C25    C     0.19800   0.13531   0.10040   0.00000  Uiso   1.00
C26    C     0.07628   0.20753   0.46461   0.00000  Uiso   1.00
C27    C     0.09302   0.21049   0.42328   0.00000  Uiso   1.00
C28    C     0.15063   0.17053   0.42123   0.00000  Uiso   1.00
C29    C     0.13326   0.16485   0.46196   0.00000  Uiso   1.00
C30    C     0.09677   0.18542   0.48469   0.00000  Uiso   1.00
C31    C     0.15345   0.14114   0.48094   0.00000  Uiso   1.00
C32    C     0.14445   0.14725   0.02282   0.00000  Uiso   1.00
C33    C     0.10466   0.16214   0.04494   0.00000  Uiso   1.00
C34    C     0.08205   0.18265   0.02651   0.00000  Uiso   1.00
C35    C     0.18060   0.11012   0.45994   0.00000  Uiso   1.00
C36    C     0.20535   0.09317   0.47934   0.00000  Uiso   1.00
C37    C     0.20394   0.10741   0.01960   0.00000  Uiso   1.00
C38    C     0.17393   0.13577   0.04119   0.00000  Uiso   1.00
C39    C     0.23114   0.09363   0.03915   0.00000  Uiso   1.00
C40    C     0.22569   0.10511   0.08030   0.00000  Uiso   1.00
C41    C     0.17561   0.15330   0.07998   0.00000  Uiso   1.00
H42    H     0.18104   0.15930   0.40457   0.00000  Uiso   1.00
C43    C     0.32732   0.17322   0.23574   0.00000  Uiso   1.00
C44    C     0.00701   0.15879   0.26407   0.00000  Uiso   1.00
C45    C     0.18074   0.32234   0.23837   0.00000  Uiso   1.00
C46    C     0.15106   0.01258   0.26356   0.00000  Uiso   1.00
N47    N     0.04573   0.20250   0.05163   0.00000  Uiso   1.00
O48    O     0.01045   0.18005   0.06839   0.00000  Uiso   1.00
O49    O     0.05117   0.24159   0.06460   0.00000  Uiso   1.00
O50    O     0.26235   0.06783   0.01859   0.00000  Uiso   1.00
C51    C     0.30244   0.09233   0.00755   0.00000  Uiso   1.00
H52    H     0.31324   0.10598   0.03416   0.00000  Uiso   1.00
H53    H     0.30132   0.11729   0.48949   0.00000  Uiso   1.00
H54    H     0.32694   0.07212   0.48880   0.00000  Uiso   1.00
N55    N     0.02422   0.18733   0.19973   0.00000  Uiso   1.00
O56    O     0.01430   0.17993   0.16608   0.00000  Uiso   1.00
O57    O     0.05898   0.21182   0.20122   0.00000  Uiso   1.00
O58    O     0.31094   0.15101   0.30087   0.00000  Uiso   1.00
C59    C     0.32328   0.12042   0.31865   0.00000  Uiso   1.00
H60    H     0.01722   0.13329   0.33115   0.00000  Uiso   1.00
H61    H     0.33153   0.09235   0.29725   0.00000  Uiso   1.00
H62    H     0.29567   0.11054   0.34384   0.00000  Uiso   1.00
N63    N     0.21708   0.00691   0.20864   0.00000  Uiso   1.00
O64    O     0.22820   0.32167   0.17254   0.00000  Uiso   1.00
O65    O     0.24194   0.03884   0.21858   0.00000  Uiso   1.00
O66    O     0.11414   0.32754   0.28985   0.00000  Uiso   1.00
C67    C     0.09538   0.02221   0.32262   0.00000  Uiso   1.00
H68    H     0.07974   0.04547   0.31307   0.00000  Uiso   1.00
H69    H     0.11948   0.03775   0.33817   0.00000  Uiso   1.00
H70    H     0.06988   0.00444   0.34442   0.00000  Uiso   1.00
O71    O     0.15573   0.18841   0.09847   0.00000  Uiso   1.00
C72    C     0.18325   0.22370   0.08428   0.00000  Uiso   1.00
H73    H     0.18835   0.22423   0.05170   0.00000  Uiso   1.00
H74    H     0.21476   0.22544   0.09098   0.00000  Uiso   1.00
H75    H     0.16782   0.25188   0.09979   0.00000  Uiso   1.00
N76    N     0.24889   0.08631   0.10111   0.00000  Uiso   1.00
O77    O     0.25415   0.04700   0.09300   0.00000  Uiso   1.00
O78    O     0.26678   0.10869   0.12671   0.00000  Uiso   1.00
N79    N     0.22927   0.05929   0.45864   0.00000  Uiso   1.00
O80    O     0.26590   0.06620   0.43177   0.00000  Uiso   1.00
O81    O     0.21430   0.02144   0.46662   0.00000  Uiso   1.00
N82    N     0.03766   0.22634   0.48522   0.00000  Uiso   1.00
O83    O     0.03831   0.26657   0.48901   0.00000  Uiso   1.00
O84    O     0.00076   0.20338   0.49270   0.00000  Uiso   1.00
N85    N     0.07146   0.23292   0.40413   0.00000  Uiso   1.00
O86    O     0.08881   0.26911   0.39257   0.00000  Uiso   1.00
O87    O     0.03258   0.21942   0.40221   0.00000  Uiso   1.00
O88    O     0.08613   0.15562   0.08467   0.00000  Uiso   1.00
C89    C     0.06840   0.11373   0.08682   0.00000  Uiso   1.00
H90    H     0.09393   0.09226   0.07646   0.00000  Uiso   1.00
H91    H     0.04431   0.10543   0.06949   0.00000  Uiso   1.00
H92    H     0.05143   0.10923   0.11846   0.00000  Uiso   1.00
N93    N     0.17676   0.08993   0.42193   0.00000  Uiso   1.00
O94    O     0.13885   0.07693   0.41710   0.00000  Uiso   1.00
O95    O     0.21086   0.08466   0.39202   0.00000  Uiso   1.00
Zn96   Zn    0.52577   0.14090   0.28278   0.00000  Uiso   1.00
Zn97   Zn    0.46792   0.12378   0.22258   0.00000  Uiso   1.00
Zn98   Zn    0.54500   0.19664   0.21188   0.00000  Uiso   1.00
Zn99   Zn    0.46131   0.20535   0.28277   0.00000  Uiso   1.00
O100   O     0.50000   0.16667   0.25000   0.00000  Uiso   1.00
O101   O     0.40323   0.18960   0.27820   0.00000  Uiso   1.00
O102   O     0.58773   0.15277   0.26768   0.00000  Uiso   1.00
O103   O     0.47133   0.06903   0.23607   0.00000  Uiso   1.00
O104   O     0.53771   0.25527   0.21806   0.00000  Uiso   1.00
O105   O     0.49027   0.12393   0.16625   0.00000  Uiso   1.00
O106   O     0.46020   0.20646   0.33749   0.00000  Uiso   1.00
O107   O     0.54421   0.17493   0.15877   0.00000  Uiso   1.00
O108   O     0.50532   0.16135   0.33749   0.00000  Uiso   1.00
O109   O     0.51182   0.08101   0.27821   0.00000  Uiso   1.00
O110   O     0.47914   0.26136   0.26767   0.00000  Uiso   1.00
O111   O     0.40785   0.13251   0.23607   0.00000  Uiso   1.00
O112   O     0.60119   0.19179   0.21806   0.00000  Uiso   1.00
C113   C     0.38601   0.16006   0.25907   0.00000  Uiso   1.00
C114   C     0.61449   0.17302   0.24089   0.00000  Uiso   1.00
C115   C     0.48940   0.05638   0.25901   0.00000  Uiso   1.00
C116   C     0.50985   0.27766   0.24110   0.00000  Uiso   1.00
C117   C     0.52162   0.14533   0.14376   0.00000  Uiso   1.00
C118   C     0.47826   0.18752   0.35672   0.00000  Uiso   1.00
C119   C     0.46343   0.19119   0.40116   0.00000  Uiso   1.00
C120   C     0.53134   0.13531   0.10040   0.00000  Uiso   1.00
C121   C     0.40962   0.20753   0.46461   0.00000  Uiso   1.00
C122   C     0.42635   0.21049   0.42328   0.00000  Uiso   1.00
C123   C     0.48396   0.17053   0.42123   0.00000  Uiso   1.00
C124   C     0.46660   0.16485   0.46196   0.00000  Uiso   1.00
C125   C     0.43011   0.18542   0.48469   0.00000  Uiso   1.00
C126   C     0.48678   0.14114   0.48094   0.00000  Uiso   1.00
C127   C     0.47779   0.14725   0.02282   0.00000  Uiso   1.00
C128   C     0.43799   0.16214   0.04494   0.00000  Uiso   1.00
C129   C     0.41538   0.18265   0.02651   0.00000  Uiso   1.00
C130   C     0.51393   0.11012   0.45994   0.00000  Uiso   1.00
C131   C     0.53869   0.09317   0.47934   0.00000  Uiso   1.00
C132   C     0.53727   0.10741   0.01960   0.00000  Uiso   1.00
C133   C     0.50727   0.13577   0.04119   0.00000  Uiso   1.00
C134   C     0.56448   0.09363   0.03915   0.00000  Uiso   1.00
C135   C     0.55903   0.10511   0.08030   0.00000  Uiso   1.00
C136   C     0.50894   0.15330   0.07998   0.00000  Uiso   1.00
H137   H     0.51437   0.15930   0.40457   0.00000  Uiso   1.00
C138   C     0.66065   0.17322   0.23574   0.00000  Uiso   1.00
C139   C     0.34035   0.15879   0.26407   0.00000  Uiso   1.00
C140   C     0.51407   0.32234   0.23837   0.00000  Uiso   1.00
C141   C     0.48439   0.01258   0.26356   0.00000  Uiso   1.00
N142   N     0.37907   0.20250   0.05163   0.00000  Uiso   1.00
O143   O     0.34378   0.18005   0.06839   0.00000  Uiso   1.00
O144   O     0.38451   0.24159   0.06460   0.00000  Uiso   1.00
O145   O     0.59569   0.06783   0.01859   0.00000  Uiso   1.00
C146   C     0.63578   0.09233   0.00755   0.00000  Uiso   1.00
H147   H     0.64658   0.10598   0.03416   0.00000  Uiso   1.00
H148   H     0.63465   0.11729   0.48949   0.00000  Uiso   1.00
H149   H     0.66028   0.07212   0.48880   0.00000  Uiso   1.00
N150   N     0.35755   0.18733   0.19973   0.00000  Uiso   1.00
O151   O     0.34764   0.17993   0.16608   0.00000  Uiso   1.00
O152   O     0.39231   0.21182   0.20122   0.00000  Uiso   1.00
O153   O     0.64428   0.15101   0.30087   0.00000  Uiso   1.00
C154   C     0.65661   0.12042   0.31865   0.00000  Uiso   1.00
H155   H     0.35055   0.13329   0.33115   0.00000  Uiso   1.00
H156   H     0.66486   0.09235   0.29725   0.00000  Uiso   1.00
H157   H     0.62901   0.11054   0.34384   0.00000  Uiso   1.00
N158   N     0.55041   0.00691   0.20864   0.00000  Uiso   1.00
O159   O     0.56154   0.32167   0.17254   0.00000  Uiso   1.00
O160   O     0.57528   0.03884   0.21858   0.00000  Uiso   1.00
O161   O     0.44747   0.32754   0.28985   0.00000  Uiso   1.00
C162   C     0.42871   0.02221   0.32262   0.00000  Uiso   1.00
H163   H     0.41307   0.04547   0.31307   0.00000  Uiso   1.00
H164   H     0.45281   0.03775   0.33817   0.00000  Uiso   1.00
H165   H     0.40321   0.00444   0.34442   0.00000  Uiso   1.00
O166   O     0.48906   0.18841   0.09847   0.00000  Uiso   1.00
C167   C     0.51658   0.22370   0.08428   0.00000  Uiso   1.00
H168   H     0.52168   0.22423   0.05170   0.00000  Uiso   1.00
H169   H     0.54809   0.22544   0.09098   0.00000  Uiso   1.00
H170   H     0.50115   0.25188   0.09979   0.00000  Uiso   1.00
N171   N     0.58223   0.08631   0.10111   0.00000  Uiso   1.00
O172   O     0.58748   0.04700   0.09300   0.00000  Uiso   1.00
O173   O     0.60011   0.10869   0.12671   0.00000  Uiso   1.00
N174   N     0.56260   0.05929   0.45864   0.00000  Uiso   1.00
O175   O     0.59924   0.06620   0.43177   0.00000  Uiso   1.00
O176   O     0.54763   0.02144   0.46662   0.00000  Uiso   1.00
N177   N     0.37099   0.22634   0.48522   0.00000  Uiso   1.00
O178   O     0.37164   0.26657   0.48901   0.00000  Uiso   1.00
O179   O     0.33409   0.20338   0.49270   0.00000  Uiso   1.00
N180   N     0.40480   0.23292   0.40413   0.00000  Uiso   1.00
O181   O     0.42214   0.26911   0.39257   0.00000  Uiso   1.00
O182   O     0.36591   0.21942   0.40221   0.00000  Uiso   1.00
O183   O     0.41946   0.15562   0.08467   0.00000  Uiso   1.00
C184   C     0.40173   0.11373   0.08682   0.00000  Uiso   1.00
H185   H     0.42726   0.09226   0.07646   0.00000  Uiso   1.00
H186   H     0.37764   0.10543   0.06949   0.00000  Uiso   1.00
H187   H     0.38477   0.10923   0.11846   0.00000  Uiso   1.00
N188   N     0.51009   0.08993   0.42193   0.00000  Uiso   1.00
O189   O     0.47219   0.07693   0.41710   0.00000  Uiso   1.00
O190   O     0.54419   0.08466   0.39202   0.00000  Uiso   1.00
Zn191  Zn    0.85910   0.14090   0.28278   0.00000  Uiso   1.00
Zn192  Zn    0.80125   0.12378   0.22258   0.00000  Uiso   1.00
Zn193  Zn    0.87833   0.19664   0.21188   0.00000  Uiso   1.00
Zn194  Zn    0.79465   0.20535   0.28277   0.00000  Uiso   1.00
O195   O     0.83333   0.16667   0.25000   0.00000  Uiso   1.00
O196   O     0.73656   0.18960   0.27820   0.00000  Uiso   1.00
O197   O     0.92106   0.15277   0.26768   0.00000  Uiso   1.00
O198   O     0.80467   0.06903   0.23607   0.00000  Uiso   1.00
O199   O     0.87104   0.25527   0.21806   0.00000  Uiso   1.00
O200   O     0.82360   0.12393   0.16625   0.00000  Uiso   1.00
O201   O     0.79354   0.20646   0.33749   0.00000  Uiso   1.00
O202   O     0.87755   0.17493   0.15877   0.00000  Uiso   1.00
O203   O     0.83865   0.16135   0.33749   0.00000  Uiso   1.00
O204   O     0.84515   0.08101   0.27821   0.00000  Uiso   1.00
O205   O     0.81247   0.26136   0.26767   0.00000  Uiso   1.00
O206   O     0.74119   0.13251   0.23607   0.00000  Uiso   1.00
O207   O     0.93452   0.19179   0.21806   0.00000  Uiso   1.00
C208   C     0.71935   0.16006   0.25907   0.00000  Uiso   1.00
C209   C     0.94782   0.17302   0.24089   0.00000  Uiso   1.00
C210   C     0.82273   0.05638   0.25901   0.00000  Uiso   1.00
C211   C     0.84319   0.27766   0.24110   0.00000  Uiso   1.00
C212   C     0.85495   0.14533   0.14376   0.00000  Uiso   1.00
C213   C     0.81160   0.18752   0.35672   0.00000  Uiso   1.00
C214   C     0.79677   0.19119   0.40116   0.00000  Uiso   1.00
C215   C     0.86467   0.13531   0.10040   0.00000  Uiso   1.00
C216   C     0.74295   0.20753   0.46461   0.00000  Uiso   1.00
C217   C     0.75969   0.21049   0.42328   0.00000  Uiso   1.00
C218   C     0.81729   0.17053   0.42123   0.00000  Uiso   1.00
C219   C     0.79993   0.16485   0.46196   0.00000  Uiso   1.00
C220   C     0.76344   0.18542   0.48469   0.00000  Uiso   1.00
C221   C     0.82011   0.14114   0.48094   0.00000  Uiso   1.00
C222   C     0.81112   0.14725   0.02282   0.00000  Uiso   1.00
C223   C     0.77132   0.16214   0.04494   0.00000  Uiso   1.00
C224   C     0.74872   0.18265   0.02651   0.00000  Uiso   1.00
C225   C     0.84726   0.11012   0.45994   0.00000  Uiso   1.00
C226   C     0.87202   0.09317   0.47934   0.00000  Uiso   1.00
C227   C     0.87060   0.10741   0.01960   0.00000  Uiso   1.00
C228   C     0.84060   0.13577   0.04119   0.00000  Uiso   1.00
C229   C     0.89781   0.09363   0.03915   0.00000  Uiso   1.00
C230   C     0.89236   0.10511   0.08030   0.00000  Uiso   1.00
C231   C     0.84227   0.15330   0.07998   0.00000  Uiso   1.00
H232   H     0.84771   0.15930   0.40457   0.00000  Uiso   1.00
C233   C     0.99399   0.17322   0.23574   0.00000  Uiso   1.00
C234   C     0.67368   0.15879   0.26407   0.00000  Uiso   1.00
C235   C     0.84741   0.32234   0.23837   0.00000  Uiso   1.00
C236   C     0.81772   0.01258   0.26356   0.00000  Uiso   1.00
N237   N     0.71240   0.20250   0.05163   0.00000  Uiso   1.00
O238   O     0.67711   0.18005   0.06839   0.00000  Uiso   1.00
O239   O     0.71784   0.24159   0.06460   0.00000  Uiso   1.00
O240   O     0.92902   0.06783   0.01859   0.00000  Uiso   1.00
C241   C     0.96911   0.09233   0.00755   0.00000  Uiso   1.00
H242   H     0.97991   0.10598   0.03416   0.00000  Uiso   1.00
H243   H     0.96798   0.11729   0.48949   0.00000  Uiso   1.00
H244   H     0.99361   0.07212   0.48880   0.00000  Uiso   1.00
N245   N     0.69089   0.18733   0.19973   0.00000  Uiso   1.00
O246   O     0.68097   0.17993   0.16608   0.00000  Uiso   1.00
O247   O     0.72565   0.21182   0.20122   0.00000  Uiso   1.00
O248   O     0.97761   0.15101   0.30087   0.00000  Uiso   1.00
C249   C     0.98995   0.12042   0.31865   0.00000  Uiso   1.00
H250   H     0.68389   0.13329   0.33115   0.00000  Uiso   1.00
H251   H     0.99820   0.09235   0.29725   0.00000  Uiso   1.00
H252   H     0.96234   0.11054   0.34384   0.00000  Uiso   1.00
N253   N     0.88374   0.00691   0.20864   0.00000  Uiso   1.00
O254   O     0.89487   0.32167   0.17254   0.00000  Uiso   1.00
O255   O     0.90861   0.03884   0.21858   0.00000  Uiso   1.00
O256   O     0.78081   0.32754   0.28985   0.00000  Uiso   1.00
C257   C     0.76205   0.02221   0.32262   0.00000  Uiso   1.00
H258   H     0.74641   0.04547   0.31307   0.00000  Uiso   1.00
H259   H     0.78614   0.03775   0.33817   0.00000  Uiso   1.00
H260   H     0.73654   0.00444   0.34442   0.00000  Uiso   1.00
O261   O     0.82239   0.18841   0.09847   0.00000  Uiso   1.00
C262   C     0.84991   0.22370   0.08428   0.00000  Uiso   1.00
H263   H     0.85502   0.22423   0.05170   0.00000  Uiso   1.00
H264   H     0.88143   0.22544   0.09098   0.00000  Uiso   1.00
H265   H     0.83448   0.25188   0.09979   0.00000  Uiso   1.00
N266   N     0.91556   0.08631   0.10111   0.00000  Uiso   1.00
O267   O     0.92081   0.04700   0.09300   0.00000  Uiso   1.00
O268   O     0.93344   0.10869   0.12671   0.00000  Uiso   1.00
N269   N     0.89594   0.05929   0.45864   0.00000  Uiso   1.00
O270   O     0.93257   0.06620   0.43177   0.00000  Uiso   1.00
O271   O     0.88097   0.02144   0.46662   0.00000  Uiso   1.00
N272   N     0.70432   0.22634   0.48522   0.00000  Uiso   1.00
O273   O     0.70498   0.26657   0.48901   0.00000  Uiso   1.00
O274   O     0.66743   0.20338   0.49270   0.00000  Uiso   1.00
N275   N     0.73813   0.23292   0.40413   0.00000  Uiso   1.00
O276   O     0.75548   0.26911   0.39257   0.00000  Uiso   1.00
O277   O     0.69924   0.21942   0.40221   0.00000  Uiso   1.00
O278   O     0.75280   0.15562   0.08467   0.00000  Uiso   1.00
C279   C     0.73507   0.11373   0.08682   0.00000  Uiso   1.00
H280   H     0.76059   0.09226   0.07646   0.00000  Uiso   1.00
H281   H     0.71098   0.10543   0.06949   0.00000  Uiso   1.00
H282   H     0.71810   0.10923   0.11846   0.00000  Uiso   1.00
N283   N     0.84343   0.08993   0.42193   0.00000  Uiso   1.00
O284   O     0.80552   0.07693   0.41710   0.00000  Uiso   1.00
O285   O     0.87753   0.08466   0.39202   0.00000  Uiso   1.00
Zn286  Zn    0.19244   0.47423   0.28278   0.00000  Uiso   1.00
Zn287  Zn    0.13459   0.45711   0.22258   0.00000  Uiso   1.00
Zn288  Zn    0.21166   0.52997   0.21188   0.00000  Uiso   1.00
Zn289  Zn    0.12798   0.53868   0.28277   0.00000  Uiso   1.00
O290   O     0.16667   0.50000   0.25000   0.00000  Uiso   1.00
O291   O     0.06990   0.52293   0.27820   0.00000  Uiso   1.00
O292   O     0.25440   0.48610   0.26768   0.00000  Uiso   1.00
O293   O     0.13800   0.40236   0.23607   0.00000  Uiso   1.00
O294   O     0.20437   0.58860   0.21806   0.00000  Uiso   1.00
O295   O     0.15693   0.45726   0.16625   0.00000  Uiso   1.00
O296   O     0.12687   0.53979   0.33749   0.00000  Uiso   1.00
O297   O     0.21088   0.50826   0.15877   0.00000  Uiso   1.00
O298   O     0.17198   0.49468   0.33749   0.00000  Uiso   1.00
O299   O     0.17849   0.41434   0.27821   0.00000  Uiso   1.00
O300   O     0.14581   0.59469   0.26767   0.00000  Uiso   1.00
O301   O     0.07452   0.46584   0.23607   0.00000  Uiso   1.00
O302   O     0.26785   0.52512   0.21806   0.00000  Uiso   1.00
C303   C     0.05268   0.49340   0.25907   0.00000  Uiso   1.00
C304   C     0.28115   0.50636   0.24089   0.00000  Uiso   1.00
C305   C     0.15607   0.38972   0.25901   0.00000  Uiso   1.00
C306   C     0.17652   0.61100   0.24110   0.00000  Uiso   1.00
C307   C     0.18828   0.47866   0.14376   0.00000  Uiso   1.00
C308   C     0.14493   0.52085   0.35672   0.00000  Uiso   1.00
C309   C     0.13010   0.52452   0.40116   0.00000  Uiso   1.00
C310   C     0.19800   0.46864   0.10040   0.00000  Uiso   1.00
C311   C     0.07628   0.54086   0.46461   0.00000  Uiso   1.00
C312   C     0.09302   0.54382   0.42328   0.00000  Uiso   1.00
C313   C     0.15063   0.50386   0.42123   0.00000  Uiso   1.00
C314   C     0.13326   0.49818   0.46196   0.00000  Uiso   1.00
C315   C     0.09677   0.51875   0.48469   0.00000  Uiso   1.00
C316   C     0.15345   0.47447   0.48094   0.00000  Uiso   1.00
C317   C     0.14445   0.48058   0.02282   0.00000  Uiso   1.00
C318   C     0.10466   0.49547   0.04494   0.00000  Uiso   1.00
C319   C     0.08205   0.51598   0.02651   0.00000  Uiso   1.00
C320   C     0.18060   0.44345   0.45994   0.00000  Uiso   1.00
C321   C     0.20535   0.42650   0.47934   0.00000  Uiso   1.00
C322   C     0.20394   0.44075   0.01960   0.00000  Uiso   1.00
C323   C     0.17393   0.46911   0.04119   0.00000  Uiso   1.00
C324   C     0.23114   0.42696   0.03915   0.00000  Uiso   1.00
C325   C     0.22569   0.43845   0.08030   0.00000  Uiso   1.00
C326   C     0.17561   0.48663   0.07998   0.00000  Uiso   1.00
H327   H     0.18104   0.49263   0.40457   0.00000  Uiso   1.00
C328   C     0.32732   0.50655   0.23574   0.00000  Uiso   1.00
C329   C     0.00701   0.49213   0.26407   0.00000  Uiso   1.00
C330   C     0.18074   0.65567   0.23837   0.00000  Uiso   1.00
C331   C     0.15106   0.34591   0.26356   0.00000  Uiso   1.00
N332   N     0.04573   0.53583   0.05163   0.00000  Uiso   1.00
O333   O     0.01045   0.51339   0.06839   0.00000  Uiso   1.00
O334   O     0.05117   0.57492   0.06460   0.00000  Uiso   1.00
O335   O     0.26235   0.40116   0.01859   0.00000  Uiso   1.00
C336   C     0.30244   0.42566   0.00755   0.00000  Uiso   1.00
H337   H     0.31324   0.43931   0.03416   0.00000  Uiso   1.00
H338   H     0.30132   0.45063   0.48949   0.00000  Uiso   1.00
H339   H     0.32694   0.40545   0.48880   0.00000  Uiso   1.00
N340   N     0.02422   0.52066   0.19973   0.00000  Uiso   1.00
O341   O     0.01430   0.51326   0.16608   0.00000  Uiso   1.00
O342   O     0.05898   0.54515   0.20122   0.00000  Uiso   1.00
O343   O     0.31094   0.48435   0.30087   0.00000  Uiso   1.00
C344   C     0.32328   0.45375   0.31865   0.00000  Uiso   1.00
H345   H     0.01722   0.46662   0.33115   0.00000  Uiso   1.00
H346   H     0.33153   0.42568   0.29725   0.00000  Uiso   1.00
H347   H     0.29567   0.44387   0.34384   0.00000  Uiso   1.00
N348   N     0.21708   0.34024   0.20864   0.00000  Uiso   1.00
O349   O     0.22820   0.65500   0.17254   0.00000  Uiso   1.00
O350   O     0.24194   0.37218   0.21858   0.00000  Uiso   1.00
O351   O     0.11414   0.66088   0.28985   0.00000  Uiso   1.00
C352   C     0.09538   0.35555   0.32262   0.00000  Uiso   1.00
H353   H     0.07974   0.37881   0.31307   0.00000  Uiso   1.00
H354   H     0.11948   0.37109   0.33817   0.00000  Uiso   1.00
H355   H     0.06988   0.33777   0.34442   0.00000  Uiso   1.00
O356   O     0.15573   0.52174   0.09847   0.00000  Uiso   1.00
C357   C     0.18325   0.55704   0.08428   0.00000  Uiso   1.00
H358   H     0.18835   0.55757   0.05170   0.00000  Uiso   1.00
H359   H     0.21476   0.55877   0.09098   0.00000  Uiso   1.00
H360   H     0.16782   0.58522   0.09979   0.00000  Uiso   1.00
N361   N     0.24889   0.41964   0.10111   0.00000  Uiso   1.00
O362   O     0.25415   0.38033   0.09300   0.00000  Uiso   1.00
O363   O     0.26678   0.44202   0.12671   0.00000  Uiso   1.00
N364   N     0.22927   0.39263   0.45864   0.00000  Uiso   1.00
O365   O     0.26590   0.39953   0.43177   0.00000  Uiso   1.00
O366   O     0.21430   0.35478   0.46662   0.00000  Uiso   1.00
N367   N     0.03766   0.55967   0.48522   0.00000  Uiso   1.00
O368   O     0.03831   0.59991   0.48901   0.00000  Uiso   1.00
O369   O     0.00076   0.53671   0.49270   0.00000  Uiso   1.00
N370   N     0.07146   0.56625   0.40413   0.00000  Uiso   1.00
O371   O     0.08881   0.60244   0.39257   0.00000  Uiso   1.00
O372   O     0.03258   0.55275   0.40221   0.00000  Uiso   1.00
O373   O     0.08613   0.48895   0.08467   0.00000  Uiso   1.00
C374   C     0.06840   0.44706   0.08682   0.00000  Uiso   1.00
H375   H     0.09393   0.42559   0.07646   0.00000  Uiso   1.00
H376   H     0.04431   0.43876   0.06949   0.00000  Uiso   1.00
H377   H     0.05143   0.44257   0.11846   0.00000  Uiso   1.00
N378   N     0.17676   0.42327   0.42193   0.00000  Uiso   1.00
O379   O     0.13885   0.41027   0.41710   0.00000  Uiso   1.00
O380   O     0.21086   0.41799   0.39202   0.00000  Uiso   1.00
Zn381  Zn    0.52577   0.47423   0.28278   0.00000  Uiso   1.00
Zn382  Zn    0.46792   0.45711   0.22258   0.00000  Uiso   1.00
Zn383  Zn    0.54500   0.52997   0.21188   0.00000  Uiso   1.00
Zn384  Zn    0.46131   0.53868   0.28277   0.00000  Uiso   1.00
O385   O     0.50000   0.50000   0.25000   0.00000  Uiso   1.00
O386   O     0.40323   0.52293   0.27820   0.00000  Uiso   1.00
O387   O     0.58773   0.48610   0.26768   0.00000  Uiso   1.00
O388   O     0.47133   0.40236   0.23607   0.00000  Uiso   1.00
O389   O     0.53771   0.58860   0.21806   0.00000  Uiso   1.00
O390   O     0.49027   0.45726   0.16625   0.00000  Uiso   1.00
O391   O     0.46020   0.53979   0.33749   0.00000  Uiso   1.00
O392   O     0.54421   0.50826   0.15877   0.00000  Uiso   1.00
O393   O     0.50532   0.49468   0.33749   0.00000  Uiso   1.00
O394   O     0.51182   0.41434   0.27821   0.00000  Uiso   1.00
O395   O     0.47914   0.59469   0.26767   0.00000  Uiso   1.00
O396   O     0.40785   0.46584   0.23607   0.00000  Uiso   1.00
O397   O     0.60119   0.52512   0.21806   0.00000  Uiso   1.00
C398   C     0.38601   0.49340   0.25907   0.00000  Uiso   1.00
C399   C     0.61449   0.50636   0.24089   0.00000  Uiso   1.00
C400   C     0.48940   0.38972   0.25901   0.00000  Uiso   1.00
C401   C     0.50985   0.61100   0.24110   0.00000  Uiso   1.00
C402   C     0.52162   0.47866   0.14376   0.00000  Uiso   1.00
C403   C     0.47826   0.52085   0.35672   0.00000  Uiso   1.00
C404   C     0.46343   0.52452   0.40116   0.00000  Uiso   1.00
C405   C     0.53134   0.46864   0.10040   0.00000  Uiso   1.00
C406   C     0.40962   0.54086   0.46461   0.00000  Uiso   1.00
C407   C     0.42635   0.54382   0.42328   0.00000  Uiso   1.00
C408   C     0.48396   0.50386   0.42123   0.00000  Uiso   1.00
C409   C     0.46660   0.49818   0.46196   0.00000  Uiso   1.00
C410   C     0.43011   0.51875   0.48469   0.00000  Uiso   1.00
C411   C     0.48678   0.47447   0.48094   0.00000  Uiso   1.00
C412   C     0.47779   0.48058   0.02282   0.00000  Uiso   1.00
C413   C     0.43799   0.49547   0.04494   0.00000  Uiso   1.00
C414   C     0.41538   0.51598   0.02651   0.00000  Uiso   1.00
C415   C     0.51393   0.44345   0.45994   0.00000  Uiso   1.00
C416   C     0.53869   0.42650   0.47934   0.00000  Uiso   1.00
C417   C     0.53727   0.44075   0.01960   0.00000  Uiso   1.00
C418   C     0.50727   0.46911   0.04119   0.00000  Uiso   1.00
C419   C     0.56448   0.42696   0.03915   0.00000  Uiso   1.00
C420   C     0.55903   0.43845   0.08030   0.00000  Uiso   1.00
C421   C     0.50894   0.48663   0.07998   0.00000  Uiso   1.00
H422   H     0.51437   0.49263   0.40457   0.00000  Uiso   1.00
C423   C     0.66065   0.50655   0.23574   0.00000  Uiso   1.00
C424   C     0.34035   0.49213   0.26407   0.00000  Uiso   1.00
C425   C     0.51407   0.65567   0.23837   0.00000  Uiso   1.00
C426   C     0.48439   0.34591   0.26356   0.00000  Uiso   1.00
N427   N     0.37907   0.53583   0.05163   0.00000  Uiso   1.00
O428   O     0.34378   0.51339   0.06839   0.00000  Uiso   1.00
O429   O     0.38451   0.57492   0.06460   0.00000  Uiso   1.00
O430   O     0.59569   0.40116   0.01859   0.00000  Uiso   1.00
C431   C     0.63578   0.42566   0.00755   0.00000  Uiso   1.00
H432   H     0.64658   0.43931   0.03416   0.00000  Uiso   1.00
H433   H     0.63465   0.45063   0.48949   0.00000  Uiso   1.00
H434   H     0.66028   0.40545   0.48880   0.00000  Uiso   1.00
N435   N     0.35755   0.52066   0.19973   0.00000  Uiso   1.00
O436   O     0.34764   0.51326   0.16608   0.00000  Uiso   1.00
O437   O     0.39231   0.54515   0.20122   0.00000  Uiso   1.00
O438   O     0.64428   0.48435   0.30087   0.00000  Uiso   1.00
C439   C     0.65661   0.45375   0.31865   0.00000  Uiso   1.00
H440   H     0.35055   0.46662   0.33115   0.00000  Uiso   1.00
H441   H     0.66486   0.42568   0.29725   0.00000  Uiso   1.00
H442   H     0.62901   0.44387   0.34384   0.00000  Uiso   1.00
N443   N     0.55041   0.34024   0.20864   0.00000  Uiso   1.00
O444   O     0.56154   0.65500   0.17254   0.00000  Uiso   1.00
O445   O     0.57528   0.37218   0.21858   0.00000  Uiso   1.00
O446   O     0.44747   0.66088   0.28985   0.00000  Uiso   1.00
C447   C     0.42871   0.35555   0.32262   0.00000  Uiso   1.00
H448   H     0.41307   0.37881   0.31307   0.00000  Uiso   1.00
H449   H     0.45281   0.37109   0.33817   0.00000  Uiso   1.00
H450   H     0.40321   0.33777   0.34442   0.00000  Uiso   1.00
O451   O     0.48906   0.52174   0.09847   0.00000  Uiso   1.00
C452   C     0.51658   0.55704   0.08428   0.00000  Uiso   1.00
H453   H     0.52168   0.55757   0.05170   0.00000  Uiso   1.00
H454   H     0.54809   0.55877   0.09098   0.00000  Uiso   1.00
H455   H     0.50115   0.58522   0.09979   0.00000  Uiso   1.00
N456   N     0.58223   0.41964   0.10111   0.00000  Uiso   1.00
O457   O     0.58748   0.38033   0.09300   0.00000  Uiso   1.00
O458   O     0.60011   0.44202   0.12671   0.00000  Uiso   1.00
N459   N     0.56260   0.39263   0.45864   0.00000  Uiso   1.00
O460   O     0.59924   0.39953   0.43177   0.00000  Uiso   1.00
O461   O     0.54763   0.35478   0.46662   0.00000  Uiso   1.00
N462   N     0.37099   0.55967   0.48522   0.00000  Uiso   1.00
O463   O     0.37164   0.59991   0.48901   0.00000  Uiso   1.00
O464   O     0.33409   0.53671   0.49270   0.00000  Uiso   1.00
N465   N     0.40480   0.56625   0.40413   0.00000  Uiso   1.00
O466   O     0.42214   0.60244   0.39257   0.00000  Uiso   1.00
O467   O     0.36591   0.55275   0.40221   0.00000  Uiso   1.00
O468   O     0.41946   0.48895   0.08467   0.00000  Uiso   1.00
C469   C     0.40173   0.44706   0.08682   0.00000  Uiso   1.00
H470   H     0.42726   0.42559   0.07646   0.00000  Uiso   1.00
H471   H     0.37764   0.43876   0.06949   0.00000  Uiso   1.00
H472   H     0.38477   0.44257   0.11846   0.00000  Uiso   1.00
N473   N     0.51009   0.42327   0.42193   0.00000  Uiso   1.00
O474   O     0.47219   0.41027   0.41710   0.00000  Uiso   1.00
O475   O     0.54419   0.41799   0.39202   0.00000  Uiso   1.00
Zn476  Zn    0.85910   0.47423   0.28278   0.00000  Uiso   1.00
Zn477  Zn    0.80125   0.45711   0.22258   0.00000  Uiso   1.00
Zn478  Zn    0.87833   0.52997   0.21188   0.00000  Uiso   1.00
Zn479  Zn    0.79465   0.53868   0.28277   0.00000  Uiso   1.00
O480   O     0.83333   0.50000   0.25000   0.00000  Uiso   1.00
O481   O     0.73656   0.52293   0.27820   0.00000  Uiso   1.00
O482   O     0.92106   0.48610   0.26768   0.00000  Uiso   1.00
O483   O     0.80467   0.40236   0.23607   0.00000  Uiso   1.00
O484   O     0.87104   0.58860   0.21806   0.00000  Uiso   1.00
O485   O     0.82360   0.45726   0.16625   0.00000  Uiso   1.00
O486   O     0.79354   0.53979   0.33749   0.00000  Uiso   1.00
O487   O     0.87755   0.50826   0.15877   0.00000  Uiso   1.00
O488   O     0.83865   0.49468   0.33749   0.00000  Uiso   1.00
O489   O     0.84515   0.41434   0.27821   0.00000  Uiso   1.00
O490   O     0.81247   0.59469   0.26767   0.00000  Uiso   1.00
O491   O     0.74119   0.46584   0.23607   0.00000  Uiso   1.00
O492   O     0.93452   0.52512   0.21806   0.00000  Uiso   1.00
C493   C     0.71935   0.49340   0.25907   0.00000  Uiso   1.00
C494   C     0.94782   0.50636   0.24089   0.00000  Uiso   1.00
C495   C     0.82273   0.38972   0.25901   0.00000  Uiso   1.00
C496   C     0.84319   0.61100   0.24110   0.00000  Uiso   1.00
C497   C     0.85495   0.47866   0.14376   0.00000  Uiso   1.00
C498   C     0.81160   0.52085   0.35672   0.00000  Uiso   1.00
C499   C     0.79677   0.52452   0.40116   0.00000  Uiso   1.00
C500   C     0.86467   0.46864   0.10040   0.00000  Uiso   1.00
C501   C     0.74295   0.54086   0.46461   0.00000  Uiso   1.00
C502   C     0.75969   0.54382   0.42328   0.00000  Uiso   1.00
C503   C     0.81729   0.50386   0.42123   0.00000  Uiso   1.00
C504   C     0.79993   0.49818   0.46196   0.00000  Uiso   1.00
C505   C     0.76344   0.51875   0.48469   0.00000  Uiso   1.00
C506   C     0.82011   0.47447   0.48094   0.00000  Uiso   1.00
C507   C     0.81112   0.48058   0.02282   0.00000  Uiso   1.00
C508   C     0.77132   0.49547   0.04494   0.00000  Uiso   1.00
C509   C     0.74872   0.51598   0.02651   0.00000  Uiso   1.00
C510   C     0.84726   0.44345   0.45994   0.00000  Uiso   1.00
C511   C     0.87202   0.42650   0.47934   0.00000  Uiso   1.00
C512   C     0.87060   0.44075   0.01960   0.00000  Uiso   1.00
C513   C     0.84060   0.46911   0.04119   0.00000  Uiso   1.00
C514   C     0.89781   0.42696   0.03915   0.00000  Uiso   1.00
C515   C     0.89236   0.43845   0.08030   0.00000  Uiso   1.00
C516   C     0.84227   0.48663   0.07998   0.00000  Uiso   1.00
H517   H     0.84771   0.49263   0.40457   0.00000  Uiso   1.00
C518   C     0.99399   0.50655   0.23574   0.00000  Uiso   1.00
C519   C     0.67368   0.49213   0.26407   0.00000  Uiso   1.00
C520   C     0.84741   0.65567   0.23837   0.00000  Uiso   1.00
C521   C     0.81772   0.34591   0.26356   0.00000  Uiso   1.00
N522   N     0.71240   0.53583   0.05163   0.00000  Uiso   1.00
O523   O     0.67711   0.51339   0.06839   0.00000  Uiso   1.00
O524   O     0.71784   0.57492   0.06460   0.00000  Uiso   1.00
O525   O     0.92902   0.40116   0.01859   0.00000  Uiso   1.00
C526   C     0.96911   0.42566   0.00755   0.00000  Uiso   1.00
H527   H     0.97991   0.43931   0.03416   0.00000  Uiso   1.00
H528   H     0.96798   0.45063   0.48949   0.00000  Uiso   1.00
H529   H     0.99361   0.40545   0.48880   0.00000  Uiso   1.00
N530   N     0.69089   0.52066   0.19973   0.00000  Uiso   1.00
O531   O     0.68097   0.51326   0.16608   0.00000  Uiso   1.00
O532   O     0.72565   0.54515   0.20122   0.00000  Uiso   1.00
O533   O     0.97761   0.48435   0.30087   0.00000  Uiso   1.00
C534   C     0.98995   0.45375   0.31865   0.00000  Uiso   1.00
H535   H     0.68389   0.46662   0.33115   0.00000  Uiso   1.00
H536   H     0.99820   0.42568   0.29725   0.00000  Uiso   1.00
H537   H     0.96234   0.44387   0.34384   0.00000  Uiso   1.00
N538   N     0.88374   0.34024   0.20864   0.00000  Uiso   1.00
O539   O     0.89487   0.65500   0.17254   0.00000  Uiso   1.00
O540   O     0.90861   0.37218   0.21858   0.00000  Uiso   1.00
O541   O     0.78081   0.66088   0.28985   0.00000  Uiso   1.00
C542   C     0.76205   0.35555   0.32262   0.00000  Uiso   1.00
H543   H     0.74641   0.37881   0.31307   0.00000  Uiso   1.00
H544   H     0.78614   0.37109   0.33817   0.00000  Uiso   1.00
H545   H     0.73654   0.33777   0.34442   0.00000  Uiso   1.00
O546   O     0.82239   0.52174   0.09847   0.00000  Uiso   1.00
C547   C     0.84991   0.55704   0.08428   0.00000  Uiso   1.00
H548   H     0.85502   0.55757   0.05170   0.00000  Uiso   1.00
H549   H     0.88143   0.55877   0.09098   0.00000  Uiso   1.00
H550   H     0.83448   0.58522   0.09979   0.00000  Uiso   1.00
N551   N     0.91556   0.41964   0.10111   0.00000  Uiso   1.00
O552   O     0.92081   0.38033   0.09300   0.00000  Uiso   1.00
O553   O     0.93344   0.44202   0.12671   0.00000  Uiso   1.00
N554   N     0.89594   0.39263   0.45864   0.00000  Uiso   1.00
O555   O     0.93257   0.39953   0.43177   0.00000  Uiso   1.00
O556   O     0.88097   0.35478   0.46662   0.00000  Uiso   1.00
N557   N     0.70432   0.55967   0.48522   0.00000  Uiso   1.00
O558   O     0.70498   0.59991   0.48901   0.00000  Uiso   1.00
O559   O     0.66743   0.53671   0.49270   0.00000  Uiso   1.00
N560   N     0.73813   0.56625   0.40413   0.00000  Uiso   1.00
O561   O     0.75548   0.60244   0.39257   0.00000  Uiso   1.00
O562   O     0.69924   0.55275   0.40221   0.00000  Uiso   1.00
O563   O     0.75280   0.48895   0.08467   0.00000  Uiso   1.00
C564   C     0.73507   0.44706   0.08682   0.00000  Uiso   1.00
H565   H     0.76059   0.42559   0.07646   0.00000  Uiso   1.00
H566   H     0.71098   0.43876   0.06949   0.00000  Uiso   1.00
H567   H     0.71810   0.44257   0.11846   0.00000  Uiso   1.00
N568   N     0.84343   0.42327   0.42193   0.00000  Uiso   1.00
O569   O     0.80552   0.41027   0.41710   0.00000  Uiso   1.00
O570   O     0.87753   0.41799   0.39202   0.00000  Uiso   1.00
Zn571  Zn    0.19244   0.80756   0.28278   0.00000  Uiso   1.00
Zn572  Zn    0.13459   0.79044   0.22258   0.00000  Uiso   1.00
Zn573  Zn    0.21166   0.86331   0.21188   0.00000  Uiso   1.00
Zn574  Zn    0.12798   0.87202   0.28277   0.00000  Uiso   1.00
O575   O     0.16667   0.83333   0.25000   0.00000  Uiso   1.00
O576   O     0.06990   0.85627   0.27820   0.00000  Uiso   1.00
O577   O     0.25440   0.81944   0.26768   0.00000  Uiso   1.00
O578   O     0.13800   0.73570   0.23607   0.00000  Uiso   1.00
O579   O     0.20437   0.92193   0.21806   0.00000  Uiso   1.00
O580   O     0.15693   0.79060   0.16625   0.00000  Uiso   1.00
O581   O     0.12687   0.87313   0.33749   0.00000  Uiso   1.00
O582   O     0.21088   0.84159   0.15877   0.00000  Uiso   1.00
O583   O     0.17198   0.82802   0.33749   0.00000  Uiso   1.00
O584   O     0.17849   0.74768   0.27821   0.00000  Uiso   1.00
O585   O     0.14581   0.92803   0.26767   0.00000  Uiso   1.00
O586   O     0.07452   0.79917   0.23607   0.00000  Uiso   1.00
O587   O     0.26785   0.85845   0.21806   0.00000  Uiso   1.00
C588   C     0.05268   0.82673   0.25907   0.00000  Uiso   1.00
C589   C     0.28115   0.83969   0.24089   0.00000  Uiso   1.00
C590   C     0.15607   0.72305   0.25901   0.00000  Uiso   1.00
C591   C     0.17652   0.94433   0.24110   0.00000  Uiso   1.00
C592   C     0.18828   0.81199   0.14376   0.00000  Uiso   1.00
C593   C     0.14493   0.85418   0.35672   0.00000  Uiso   1.00
C594   C     0.13010   0.85785   0.40116   0.00000  Uiso   1.00
C595   C     0.19800   0.80197   0.10040   0.00000  Uiso   1.00
C596   C     0.07628   0.87420   0.46461   0.00000  Uiso   1.00
C597   C     0.09302   0.87715   0.42328   0.00000  Uiso   1.00
C598   C     0.15063   0.83719   0.42123   0.00000  Uiso   1.00
C599   C     0.13326   0.83151   0.46196   0.00000  Uiso   1.00
C600   C     0.09677   0.85209   0.48469   0.00000  Uiso   1.00
C601   C     0.15345   0.80781   0.48094   0.00000  Uiso   1.00
C602   C     0.14445   0.81392   0.02282   0.00000  Uiso   1.00
C603   C     0.10466   0.82881   0.04494   0.00000  Uiso   1.00
C604   C     0.08205   0.84932   0.02651   0.00000  Uiso   1.00
C605   C     0.18060   0.77678   0.45994   0.00000  Uiso   1.00
C606   C     0.20535   0.75983   0.47934   0.00000  Uiso   1.00
C607   C     0.20394   0.77408   0.01960   0.00000  Uiso   1.00
C608   C     0.17393   0.80244   0.04119   0.00000  Uiso   1.00
C609   C     0.23114   0.76030   0.03915   0.00000  Uiso   1.00
C610   C     0.22569   0.77178   0.08030   0.00000  Uiso   1.00
C611   C     0.17561   0.81997   0.07998   0.00000  Uiso   1.00
H612   H     0.18104   0.82597   0.40457   0.00000  Uiso   1.00
C613   C     0.32732   0.83988   0.23574   0.00000  Uiso   1.00
C614   C     0.00701   0.82546   0.26407   0.00000  Uiso   1.00
C615   C     0.18074   0.98901   0.23837   0.00000  Uiso   1.00
C616   C     0.15106   0.67924   0.26356   0.00000  Uiso   1.00
N617   N     0.04573   0.86916   0.05163   0.00000  Uiso   1.00
O618   O     0.01045   0.84672   0.06839   0.00000  Uiso   1.00
O619   O     0.05117   0.90825   0.06460   0.00000  Uiso   1.00
O620   O     0.26235   0.73450   0.01859   0.00000  Uiso   1.00
C621   C     0.30244   0.75900   0.00755   0.00000  Uiso   1.00
H622   H     0.31324   0.77265   0.03416   0.00000  Uiso   1.00
H623   H     0.30132   0.78396   0.48949   0.00000  Uiso   1.00
H624   H     0.32694   0.73878   0.48880   0.00000  Uiso   1.00
N625   N     0.02422   0.85399   0.19973   0.00000  Uiso   1.00
O626   O     0.01430   0.84659   0.16608   0.00000  Uiso   1.00
O627   O     0.05898   0.87848   0.20122   0.00000  Uiso   1.00
O628   O     0.31094   0.81768   0.30087   0.00000  Uiso   1.00
C629   C     0.32328   0.78708   0.31865   0.00000  Uiso   1.00
H630   H     0.01722   0.79996   0.33115   0.00000  Uiso   1.00
H631   H     0.33153   0.75901   0.29725   0.00000  Uiso   1.00
H632   H     0.29567   0.77720   0.34384   0.00000  Uiso   1.00
N633   N     0.21708   0.67358   0.20864   0.00000  Uiso   1.00
O634   O     0.22820   0.98833   0.17254   0.00000  Uiso   1.00
O635   O     0.24194   0.70551   0.21858   0.00000  Uiso   1.00
O636   O     0.11414   0.99421   0.28985   0.00000  Uiso   1.00
C637   C     0.09538   0.68888   0.32262   0.00000  Uiso   1.00
H638   H     0.07974   0.71214   0.31307   0.00000  Uiso   1.00
H639   H     0.11948   0.70442   0.33817   0.00000  Uiso   1.00
H640   H     0.06988   0.67111   0.34442   0.00000  Uiso   1.00
O641   O     0.15573   0.85508   0.09847   0.00000  Uiso   1.00
C642   C     0.18325   0.89037   0.08428   0.00000  Uiso   1.00
H643   H     0.18835   0.89090   0.05170   0.00000  Uiso   1.00
H644   H     0.21476   0.89211   0.09098   0.00000  Uiso   1.00
H645   H     0.16782   0.91855   0.09979   0.00000  Uiso   1.00
N646   N     0.24889   0.75298   0.10111   0.00000  Uiso   1.00
O647   O     0.25415   0.71367   0.09300   0.00000  Uiso   1.00
O648   O     0.26678   0.77535   0.12671   0.00000  Uiso   1.00
N649   N     0.22927   0.72596   0.45864   0.00000  Uiso   1.00
O650   O     0.26590   0.73287   0.43177   0.00000  Uiso   1.00
O651   O     0.21430   0.68811   0.46662   0.00000  Uiso   1.00
N652   N     0.03766   0.89300   0.48522   0.00000  Uiso   1.00
O653   O     0.03831   0.93324   0.48901   0.00000  Uiso   1.00
O654   O     0.00076   0.87005   0.49270   0.00000  Uiso   1.00
N655   N     0.07146   0.89958   0.40413   0.00000  Uiso   1.00
O656   O     0.08881   0.93577   0.39257   0.00000  Uiso   1.00
O657   O     0.03258   0.88609   0.40221   0.00000  Uiso   1.00
O658   O     0.08613   0.82228   0.08467   0.00000  Uiso   1.00
C659   C     0.06840   0.78039   0.08682   0.00000  Uiso   1.00
H660   H     0.09393   0.75893   0.07646   0.00000  Uiso   1.00
H661   H     0.04431   0.77210   0.06949   0.00000  Uiso   1.00
H662   H     0.05143   0.77590   0.11846   0.00000  Uiso   1.00
N663   N     0.17676   0.75660   0.42193   0.00000  Uiso   1.00
O664   O     0.13885   0.74360   0.41710   0.00000  Uiso   1.00
O665   O     0.21086   0.75132   0.39202   0.00000  Uiso   1.00
Zn666  Zn    0.52577   0.80756   0.28278   0.00000  Uiso   1.00
Zn667  Zn    0.46792   0.79044   0.22258   0.00000  Uiso   1.00
Zn668  Zn    0.54500   0.86331   0.21188   0.00000  Uiso   1.00
Zn669  Zn    0.46131   0.87202   0.28277   0.00000  Uiso   1.00
O670   O     0.50000   0.83333   0.25000   0.00000  Uiso   1.00
O671   O     0.40323   0.85627   0.27820   0.00000  Uiso   1.00
O672   O     0.58773   0.81944   0.26768   0.00000  Uiso   1.00
O673   O     0.47133   0.73570   0.23607   0.00000  Uiso   1.00
O674   O     0.53771   0.92193   0.21806   0.00000  Uiso   1.00
O675   O     0.49027   0.79060   0.16625   0.00000  Uiso   1.00
O676   O     0.46020   0.87313   0.33749   0.00000  Uiso   1.00
O677   O     0.54421   0.84159   0.15877   0.00000  Uiso   1.00
O678   O     0.50532   0.82802   0.33749   0.00000  Uiso   1.00
O679   O     0.51182   0.74768   0.27821   0.00000  Uiso   1.00
O680   O     0.47914   0.92803   0.26767   0.00000  Uiso   1.00
O681   O     0.40785   0.79917   0.23607   0.00000  Uiso   1.00
O682   O     0.60119   0.85845   0.21806   0.00000  Uiso   1.00
C683   C     0.38601   0.82673   0.25907   0.00000  Uiso   1.00
C684   C     0.61449   0.83969   0.24089   0.00000  Uiso   1.00
C685   C     0.48940   0.72305   0.25901   0.00000  Uiso   1.00
C686   C     0.50985   0.94433   0.24110   0.00000  Uiso   1.00
C687   C     0.52162   0.81199   0.14376   0.00000  Uiso   1.00
C688   C     0.47826   0.85418   0.35672   0.00000  Uiso   1.00
C689   C     0.46343   0.85785   0.40116   0.00000  Uiso   1.00
C690   C     0.53134   0.80197   0.10040   0.00000  Uiso   1.00
C691   C     0.40962   0.87420   0.46461   0.00000  Uiso   1.00
C692   C     0.42635   0.87715   0.42328   0.00000  Uiso   1.00
C693   C     0.48396   0.83719   0.42123   0.00000  Uiso   1.00
C694   C     0.46660   0.83151   0.46196   0.00000  Uiso   1.00
C695   C     0.43011   0.85209   0.48469   0.00000  Uiso   1.00
C696   C     0.48678   0.80781   0.48094   0.00000  Uiso   1.00
C697   C     0.47779   0.81392   0.02282   0.00000  Uiso   1.00
C698   C     0.43799   0.82881   0.04494   0.00000  Uiso   1.00
C699   C     0.41538   0.84932   0.02651   0.00000  Uiso   1.00
C700   C     0.51393   0.77678   0.45994   0.00000  Uiso   1.00
C701   C     0.53869   0.75983   0.47934   0.00000  Uiso   1.00
C702   C     0.53727   0.77408   0.01960   0.00000  Uiso   1.00
C703   C     0.50727   0.80244   0.04119   0.00000  Uiso   1.00
C704   C     0.56448   0.76030   0.03915   0.00000  Uiso   1.00
C705   C     0.55903   0.77178   0.08030   0.00000  Uiso   1.00
C706   C     0.50894   0.81997   0.07998   0.00000  Uiso   1.00
H707   H     0.51437   0.82597   0.40457   0.00000  Uiso   1.00
C708   C     0.66065   0.83988   0.23574   0.00000  Uiso   1.00
C709   C     0.34035   0.82546   0.26407   0.00000  Uiso   1.00
C710   C     0.51407   0.98901   0.23837   0.00000  Uiso   1.00
C711   C     0.48439   0.67924   0.26356   0.00000  Uiso   1.00
N712   N     0.37907   0.86916   0.05163   0.00000  Uiso   1.00
O713   O     0.34378   0.84672   0.06839   0.00000  Uiso   1.00
O714   O     0.38451   0.90825   0.06460   0.00000  Uiso   1.00
O715   O     0.59569   0.73450   0.01859   0.00000  Uiso   1.00
C716   C     0.63578   0.75900   0.00755   0.00000  Uiso   1.00
H717   H     0.64658   0.77265   0.03416   0.00000  Uiso   1.00
H718   H     0.63465   0.78396   0.48949   0.00000  Uiso   1.00
H719   H     0.66028   0.73878   0.48880   0.00000  Uiso   1.00
N720   N     0.35755   0.85399   0.19973   0.00000  Uiso   1.00
O721   O     0.34764   0.84659   0.16608   0.00000  Uiso   1.00
O722   O     0.39231   0.87848   0.20122   0.00000  Uiso   1.00
O723   O     0.64428   0.81768   0.30087   0.00000  Uiso   1.00
C724   C     0.65661   0.78708   0.31865   0.00000  Uiso   1.00
H725   H     0.35055   0.79996   0.33115   0.00000  Uiso   1.00
H726   H     0.66486   0.75901   0.29725   0.00000  Uiso   1.00
H727   H     0.62901   0.77720   0.34384   0.00000  Uiso   1.00
N728   N     0.55041   0.67358   0.20864   0.00000  Uiso   1.00
O729   O     0.56154   0.98833   0.17254   0.00000  Uiso   1.00
O730   O     0.57528   0.70551   0.21858   0.00000  Uiso   1.00
O731   O     0.44747   0.99421   0.28985   0.00000  Uiso   1.00
C732   C     0.42871   0.68888   0.32262   0.00000  Uiso   1.00
H733   H     0.41307   0.71214   0.31307   0.00000  Uiso   1.00
H734   H     0.45281   0.70442   0.33817   0.00000  Uiso   1.00
H735   H     0.40321   0.67111   0.34442   0.00000  Uiso   1.00
O736   O     0.48906   0.85508   0.09847   0.00000  Uiso   1.00
C737   C     0.51658   0.89037   0.08428   0.00000  Uiso   1.00
H738   H     0.52168   0.89090   0.05170   0.00000  Uiso   1.00
H739   H     0.54809   0.89211   0.09098   0.00000  Uiso   1.00
H740   H     0.50115   0.91855   0.09979   0.00000  Uiso   1.00
N741   N     0.58223   0.75298   0.10111   0.00000  Uiso   1.00
O742   O     0.58748   0.71367   0.09300   0.00000  Uiso   1.00
O743   O     0.60011   0.77535   0.12671   0.00000  Uiso   1.00
N744   N     0.56260   0.72596   0.45864   0.00000  Uiso   1.00
O745   O     0.59924   0.73287   0.43177   0.00000  Uiso   1.00
O746   O     0.54763   0.68811   0.46662   0.00000  Uiso   1.00
N747   N     0.37099   0.89300   0.48522   0.00000  Uiso   1.00
O748   O     0.37164   0.93324   0.48901   0.00000  Uiso   1.00
O749   O     0.33409   0.87005   0.49270   0.00000  Uiso   1.00
N750   N     0.40480   0.89958   0.40413   0.00000  Uiso   1.00
O751   O     0.42214   0.93577   0.39257   0.00000  Uiso   1.00
O752   O     0.36591   0.88609   0.40221   0.00000  Uiso   1.00
O753   O     0.41946   0.82228   0.08467   0.00000  Uiso   1.00
C754   C     0.40173   0.78039   0.08682   0.00000  Uiso   1.00
H755   H     0.42726   0.75893   0.07646   0.00000  Uiso   1.00
H756   H     0.37764   0.77210   0.06949   0.00000  Uiso   1.00
H757   H     0.38477   0.77590   0.11846   0.00000  Uiso   1.00
N758   N     0.51009   0.75660   0.42193   0.00000  Uiso   1.00
O759   O     0.47219   0.74360   0.41710   0.00000  Uiso   1.00
O760   O     0.54419   0.75132   0.39202   0.00000  Uiso   1.00
Zn761  Zn    0.85910   0.80756   0.28278   0.00000  Uiso   1.00
Zn762  Zn    0.80125   0.79044   0.22258   0.00000  Uiso   1.00
Zn763  Zn    0.87833   0.86331   0.21188   0.00000  Uiso   1.00
Zn764  Zn    0.79465   0.87202   0.28277   0.00000  Uiso   1.00
O765   O     0.83333   0.83333   0.25000   0.00000  Uiso   1.00
O766   O     0.73656   0.85627   0.27820   0.00000  Uiso   1.00
O767   O     0.92106   0.81944   0.26768   0.00000  Uiso   1.00
O768   O     0.80467   0.73570   0.23607   0.00000  Uiso   1.00
O769   O     0.87104   0.92193   0.21806   0.00000  Uiso   1.00
O770   O     0.82360   0.79060   0.16625   0.00000  Uiso   1.00
O771   O     0.79354   0.87313   0.33749   0.00000  Uiso   1.00
O772   O     0.87755   0.84159   0.15877   0.00000  Uiso   1.00
O773   O     0.83865   0.82802   0.33749   0.00000  Uiso   1.00
O774   O     0.84515   0.74768   0.27821   0.00000  Uiso   1.00
O775   O     0.81247   0.92803   0.26767   0.00000  Uiso   1.00
O776   O     0.74119   0.79917   0.23607   0.00000  Uiso   1.00
O777   O     0.93452   0.85845   0.21806   0.00000  Uiso   1.00
C778   C     0.71935   0.82673   0.25907   0.00000  Uiso   1.00
C779   C     0.94782   0.83969   0.24089   0.00000  Uiso   1.00
C780   C     0.82273   0.72305   0.25901   0.00000  Uiso   1.00
C781   C     0.84319   0.94433   0.24110   0.00000  Uiso   1.00
C782   C     0.85495   0.81199   0.14376   0.00000  Uiso   1.00
C783   C     0.81160   0.85418   0.35672   0.00000  Uiso   1.00
C784   C     0.79677   0.85785   0.40116   0.00000  Uiso   1.00
C785   C     0.86467   0.80197   0.10040   0.00000  Uiso   1.00
C786   C     0.74295   0.87420   0.46461   0.00000  Uiso   1.00
C787   C     0.75969   0.87715   0.42328   0.00000  Uiso   1.00
C788   C     0.81729   0.83719   0.42123   0.00000  Uiso   1.00
C789   C     0.79993   0.83151   0.46196   0.00000  Uiso   1.00
C790   C     0.76344   0.85209   0.48469   0.00000  Uiso   1.00
C791   C     0.82011   0.80781   0.48094   0.00000  Uiso   1.00
C792   C     0.81112   0.81392   0.02282   0.00000  Uiso   1.00
C793   C     0.77132   0.82881   0.04494   0.00000  Uiso   1.00
C794   C     0.74872   0.84932   0.02651   0.00000  Uiso   1.00
C795   C     0.84726   0.77678   0.45994   0.00000  Uiso   1.00
C796   C     0.87202   0.75983   0.47934   0.00000  Uiso   1.00
C797   C     0.87060   0.77408   0.01960   0.00000  Uiso   1.00
C798   C     0.84060   0.80244   0.04119   0.00000  Uiso   1.00
C799   C     0.89781   0.76030   0.03915   0.00000  Uiso   1.00
C800   C     0.89236   0.77178   0.08030   0.00000  Uiso   1.00
C801   C     0.84227   0.81997   0.07998   0.00000  Uiso   1.00
H802   H     0.84771   0.82597   0.40457   0.00000  Uiso   1.00
C803   C     0.99399   0.83988   0.23574   0.00000  Uiso   1.00
C804   C     0.67368   0.82546   0.26407   0.00000  Uiso   1.00
C805   C     0.84741   0.98901   0.23837   0.00000  Uiso   1.00
C806   C     0.81772   0.67924   0.26356   0.00000  Uiso   1.00
N807   N     0.71240   0.86916   0.05163   0.00000  Uiso   1.00
O808   O     0.67711   0.84672   0.06839   0.00000  Uiso   1.00
O809   O     0.71784   0.90825   0.06460   0.00000  Uiso   1.00
O810   O     0.92902   0.73450   0.01859   0.00000  Uiso   1.00
C811   C     0.96911   0.75900   0.00755   0.00000  Uiso   1.00
H812   H     0.97991   0.77265   0.03416   0.00000  Uiso   1.00
H813   H     0.96798   0.78396   0.48949   0.00000  Uiso   1.00
H814   H     0.99361   0.73878   0.48880   0.00000  Uiso   1.00
N815   N     0.69089   0.85399   0.19973   0.00000  Uiso   1.00
O816   O     0.68097   0.84659   0.16608   0.00000  Uiso   1.00
O817   O     0.72565   0.87848   0.20122   0.00000  Uiso   1.00
O818   O     0.97761   0.81768   0.30087   0.00000  Uiso   1.00
C819   C     0.98995   0.78708   0.31865   0.00000  Uiso   1.00
H820   H     0.68389   0.79996   0.33115   0.00000  Uiso   1.00
H821   H     0.99820   0.75901   0.29725   0.00000  Uiso   1.00
H822   H     0.96234   0.77720   0.34384   0.00000  Uiso   1.00
N823   N     0.88374   0.67358   0.20864   0.00000  Uiso   1.00
O824   O     0.89487   0.98833   0.17254   0.00000  Uiso   1.00
O825   O     0.90861   0.70551   0.21858   0.00000  Uiso   1.00
O826   O     0.78081   0.99421   0.28985   0.00000  Uiso   1.00
C827   C     0.76205   0.68888   0.32262   0.00000  Uiso   1.00
H828   H     0.74641   0.71214   0.31307   0.00000  Uiso   1.00
H829   H     0.78614   0.70442   0.33817   0.00000  Uiso   1.00
H830   H     0.73654   0.67111   0.34442   0.00000  Uiso   1.00
O831   O     0.82239   0.85508   0.09847   0.00000  Uiso   1.00
C832   C     0.84991   0.89037   0.08428   0.00000  Uiso   1.00
H833   H     0.85502   0.89090   0.05170   0.00000  Uiso   1.00
H834   H     0.88143   0.89211   0.09098   0.00000  Uiso   1.00
H835   H     0.83448   0.91855   0.09979   0.00000  Uiso   1.00
N836   N     0.91556   0.75298   0.10111   0.00000  Uiso   1.00
O837   O     0.92081   0.71367   0.09300   0.00000  Uiso   1.00
O838   O     0.93344   0.77535   0.12671   0.00000  Uiso   1.00
N839   N     0.89594   0.72596   0.45864   0.00000  Uiso   1.00
O840   O     0.93257   0.73287   0.43177   0.00000  Uiso   1.00
O841   O     0.88097   0.68811   0.46662   0.00000  Uiso   1.00
N842   N     0.70432   0.89300   0.48522   0.00000  Uiso   1.00
O843   O     0.70498   0.93324   0.48901   0.00000  Uiso   1.00
O844   O     0.66743   0.87005   0.49270   0.00000  Uiso   1.00
N845   N     0.73813   0.89958   0.40413   0.00000  Uiso   1.00
O846   O     0.75548   0.93577   0.39257   0.00000  Uiso   1.00
O847   O     0.69924   0.88609   0.40221   0.00000  Uiso   1.00
O848   O     0.75280   0.82228   0.08467   0.00000  Uiso   1.00
C849   C     0.73507   0.78039   0.08682   0.00000  Uiso   1.00
H850   H     0.76059   0.75893   0.07646   0.00000  Uiso   1.00
H851   H     0.71098   0.77210   0.06949   0.00000  Uiso   1.00
H852   H     0.71810   0.77590   0.11846   0.00000  Uiso   1.00
N853   N     0.84343   0.75660   0.42193   0.00000  Uiso   1.00
O854   O     0.80552   0.74360   0.41710   0.00000  Uiso   1.00
O855   O     0.87753   0.75132   0.39202   0.00000  Uiso   1.00
Zn856  Zn    0.19244   0.14090   0.78278   0.00000  Uiso   1.00
Zn857  Zn    0.13459   0.12378   0.72258   0.00000  Uiso   1.00
Zn858  Zn    0.21166   0.19664   0.71188   0.00000  Uiso   1.00
Zn859  Zn    0.12798   0.20535   0.78277   0.00000  Uiso   1.00
O860   O     0.16667   0.16667   0.75000   0.00000  Uiso   1.00
O861   O     0.06990   0.18960   0.77820   0.00000  Uiso   1.00
O862   O     0.25440   0.15277   0.76768   0.00000  Uiso   1.00
O863   O     0.13800   0.06903   0.73607   0.00000  Uiso   1.00
O864   O     0.20437   0.25527   0.71806   0.00000  Uiso   1.00
O865   O     0.15693   0.12393   0.66625   0.00000  Uiso   1.00
O866   O     0.12687   0.20646   0.83749   0.00000  Uiso   1.00
O867   O     0.21088   0.17493   0.65877   0.00000  Uiso   1.00
O868   O     0.17198   0.16135   0.83749   0.00000  Uiso   1.00
O869   O     0.17849   0.08101   0.77821   0.00000  Uiso   1.00
O870   O     0.14581   0.26136   0.76767   0.00000  Uiso   1.00
O871   O     0.07452   0.13251   0.73607   0.00000  Uiso   1.00
O872   O     0.26785   0.19179   0.71806   0.00000  Uiso   1.00
C873   C     0.05268   0.16006   0.75907   0.00000  Uiso   1.00
C874   C     0.28115   0.17302   0.74089   0.00000  Uiso   1.00
C875   C     0.15607   0.05638   0.75901   0.00000  Uiso   1.00
C876   C     0.17652   0.27766   0.74110   0.00000  Uiso   1.00
C877   C     0.18828   0.14533   0.64376   0.00000  Uiso   1.00
C878   C     0.14493   0.18752   0.85672   0.00000  Uiso   1.00
C879   C     0.13010   0.19119   0.90116   0.00000  Uiso   1.00
C880   C     0.19800   0.13531   0.60040   0.00000  Uiso   1.00
C881   C     0.07628   0.20753   0.96461   0.00000  Uiso   1.00
C882   C     0.09302   0.21049   0.92328   0.00000  Uiso   1.00
C883   C     0.15063   0.17053   0.92123   0.00000  Uiso   1.00
C884   C     0.13326   0.16485   0.96196   0.00000  Uiso   1.00
C885   C     0.09677   0.18542   0.98469   0.00000  Uiso   1.00
C886   C     0.15345   0.14114   0.98094   0.00000  Uiso   1.00
C887   C     0.14445   0.14725   0.52282   0.00000  Uiso   1.00
C888   C     0.10466   0.16214   0.54494   0.00000  Uiso   1.00
C889   C     0.08205   0.18265   0.52651   0.00000  Uiso   1.00
C890   C     0.18060   0.11012   0.95994   0.00000  Uiso   1.00
C891   C     0.20535   0.09317   0.97934   0.00000  Uiso   1.00
C892   C     0.20394   0.10741   0.51960   0.00000  Uiso   1.00
C893   C     0.17393   0.13577   0.54119   0.00000  Uiso   1.00
C894   C     0.23114   0.09363   0.53915   0.00000  Uiso   1.00
C895   C     0.22569   0.10511   0.58030   0.00000  Uiso   1.00
C896   C     0.17561   0.15330   0.57998   0.00000  Uiso   1.00
H897   H     0.18104   0.15930   0.90457   0.00000  Uiso   1.00
C898   C     0.32732   0.17322   0.73574   0.00000  Uiso   1.00
C899   C     0.00701   0.15879   0.76407   0.00000  Uiso   1.00
C900   C     0.18074   0.32234   0.73837   0.00000  Uiso   1.00
C901   C     0.15106   0.01258   0.76356   0.00000  Uiso   1.00
N902   N     0.04573   0.20250   0.55163   0.00000  Uiso   1.00
O903   O     0.01045   0.18005   0.56839   0.00000  Uiso   1.00
O904   O     0.05117   0.24159   0.56460   0.00000  Uiso   1.00
O905   O     0.26235   0.06783   0.51859   0.00000  Uiso   1.00
C906   C     0.30244   0.09233   0.50755   0.00000  Uiso   1.00
H907   H     0.31324   0.10598   0.53416   0.00000  Uiso   1.00
H908   H     0.30132   0.11729   0.98949   0.00000  Uiso   1.00
H909   H     0.32694   0.07212   0.98880   0.00000  Uiso   1.00
N910   N     0.02422   0.18733   0.69973   0.00000  Uiso   1.00
O911   O     0.01430   0.17993   0.66608   0.00000  Uiso   1.00
O912   O     0.05898   0.21182   0.70122   0.00000  Uiso   1.00
O913   O     0.31094   0.15101   0.80087   0.00000  Uiso   1.00
C914   C     0.32328   0.12042   0.81865   0.00000  Uiso   1.00
H915   H     0.01722   0.13329   0.83115   0.00000  Uiso   1.00
H916   H     0.33153   0.09235   0.79725   0.00000  Uiso   1.00
H917   H     0.29567   0.11054   0.84384   0.00000  Uiso   1.00
N918   N     0.21708   0.00691   0.70864   0.00000  Uiso   1.00
O919   O     0.22820   0.32167   0.67254   0.00000  Uiso   1.00
O920   O     0.24194   0.03884   0.71858   0.00000  Uiso   1.00
O921   O     0.11414   0.32754   0.78985   0.00000  Uiso   1.00
C922   C     0.09538   0.02221   0.82262   0.00000  Uiso   1.00
H923   H     0.07974   0.04547   0.81307   0.00000  Uiso   1.00
H924   H     0.11948   0.03775   0.83817   0.00000  Uiso   1.00
H925   H     0.06988   0.00444   0.84442   0.00000  Uiso   1.00
O926   O     0.15573   0.18841   0.59847   0.00000  Uiso   1.00
C927   C     0.18325   0.22370   0.58428   0.00000  Uiso   1.00
H928   H     0.18835   0.22423   0.55170   0.00000  Uiso   1.00
H929   H     0.21476   0.22544   0.59098   0.00000  Uiso   1.00
H930   H     0.16782   0.25188   0.59979   0.00000  Uiso   1.00
N931   N     0.24889   0.08631   0.60111   0.00000  Uiso   1.00
O932   O     0.25415   0.04700   0.59300   0.00000  Uiso   1.00
O933   O     0.26678   0.10869   0.62671   0.00000  Uiso   1.00
N934   N     0.22927   0.05929   0.95864   0.00000  Uiso   1.00
O935   O     0.26590   0.06620   0.93177   0.00000  Uiso   1.00
O936   O     0.21430   0.02144   0.96662   0.00000  Uiso   1.00
N937   N     0.03766   0.22634   0.98522   0.00000  Uiso   1.00
O938   O     0.03831   0.26657   0.98901   0.00000  Uiso   1.00
O939   O     0.00076   0.20338   0.99270   0.00000  Uiso   1.00
N940   N     0.07146   0.23292   0.90413   0.00000  Uiso   1.00
O941   O     0.08881   0.26911   0.89257   0.00000  Uiso   1.00
O942   O     0.03258   0.21942   0.90221   0.00000  Uiso   1.00
O943   O     0.08613   0.15562   0.58467   0.00000  Uiso   1.00
C944   C     0.06840   0.11373   0.58682   0.00000  Uiso   1.00
H945   H     0.09393   0.09226   0.57646   0.00000  Uiso   1.00
H946   H     0.04431   0.10543   0.56949   0.00000  Uiso   1.00
H947   H     0.05143   0.10923   0.61846   0.00000  Uiso   1.00
N948   N     0.17676   0.08993   0.92193   0.00000  Uiso   1.00
O949   O     0.13885   0.07693   0.91710   0.00000  Uiso   1.00
O950   O     0.21086   0.08466   0.89202   0.00000  Uiso   1.00
Zn951  Zn    0.52577   0.14090   0.78278   0.00000  Uiso   1.00
Zn952  Zn    0.46792   0.12378   0.72258   0.00000  Uiso   1.00
Zn953  Zn    0.54500   0.19664   0.71188   0.00000  Uiso   1.00
Zn954  Zn    0.46131   0.20535   0.78277   0.00000  Uiso   1.00
O955   O     0.50000   0.16667   0.75000   0.00000  Uiso   1.00
O956   O     0.40323   0.18960   0.77820   0.00000  Uiso   1.00
O957   O     0.58773   0.15277   0.76768   0.00000  Uiso   1.00
O958   O     0.47133   0.06903   0.73607   0.00000  Uiso   1.00
O959   O     0.53771   0.25527   0.71806   0.00000  Uiso   1.00
O960   O     0.49027   0.12393   0.66625   0.00000  Uiso   1.00
O961   O     0.46020   0.20646   0.83749   0.00000  Uiso   1.00
O962   O     0.54421   0.17493   0.65877   0.00000  Uiso   1.00
O963   O     0.50532   0.16135   0.83749   0.00000  Uiso   1.00
O964   O     0.51182   0.08101   0.77821   0.00000  Uiso   1.00
O965   O     0.47914   0.26136   0.76767   0.00000  Uiso   1.00
O966   O     0.40785   0.13251   0.73607   0.00000  Uiso   1.00
O967   O     0.60119   0.19179   0.71806   0.00000  Uiso   1.00
C968   C     0.38601   0.16006   0.75907   0.00000  Uiso   1.00
C969   C     0.61449   0.17302   0.74089   0.00000  Uiso   1.00
C970   C     0.48940   0.05638   0.75901   0.00000  Uiso   1.00
C971   C     0.50985   0.27766   0.74110   0.00000  Uiso   1.00
C972   C     0.52162   0.14533   0.64376   0.00000  Uiso   1.00
C973   C     0.47826   0.18752   0.85672   0.00000  Uiso   1.00
C974   C     0.46343   0.19119   0.90116   0.00000  Uiso   1.00
C975   C     0.53134   0.13531   0.60040   0.00000  Uiso   1.00
C976   C     0.40962   0.20753   0.96461   0.00000  Uiso   1.00
C977   C     0.42635   0.21049   0.92328   0.00000  Uiso   1.00
C978   C     0.48396   0.17053   0.92123   0.00000  Uiso   1.00
C979   C     0.46660   0.16485   0.96196   0.00000  Uiso   1.00
C980   C     0.43011   0.18542   0.98469   0.00000  Uiso   1.00
C981   C     0.48678   0.14114   0.98094   0.00000  Uiso   1.00
C982   C     0.47779   0.14725   0.52282   0.00000  Uiso   1.00
C983   C     0.43799   0.16214   0.54494   0.00000  Uiso   1.00
C984   C     0.41538   0.18265   0.52651   0.00000  Uiso   1.00
C985   C     0.51393   0.11012   0.95994   0.00000  Uiso   1.00
C986   C     0.53869   0.09317   0.97934   0.00000  Uiso   1.00
C987   C     0.53727   0.10741   0.51960   0.00000  Uiso   1.00
C988   C     0.50727   0.13577   0.54119   0.00000  Uiso   1.00
C989   C     0.56448   0.09363   0.53915   0.00000  Uiso   1.00
C990   C     0.55903   0.10511   0.58030   0.00000  Uiso   1.00
C991   C     0.50894   0.15330   0.57998   0.00000  Uiso   1.00
H992   H     0.51437   0.15930   0.90457   0.00000  Uiso   1.00
C993   C     0.66065   0.17322   0.73574   0.00000  Uiso   1.00
C994   C     0.34035   0.15879   0.76407   0.00000  Uiso   1.00
C995   C     0.51407   0.32234   0.73837   0.00000  Uiso   1.00
C996   C     0.48439   0.01258   0.76356   0.00000  Uiso   1.00
N997   N     0.37907   0.20250   0.55163   0.00000  Uiso   1.00
O998   O     0.34378   0.18005   0.56839   0.00000  Uiso   1.00
O999   O     0.38451   0.24159   0.56460   0.00000  Uiso   1.00
O1000  O     0.59569   0.06783   0.51859   0.00000  Uiso   1.00
C1001  C     0.63578   0.09233   0.50755   0.00000  Uiso   1.00
H1002  H     0.64658   0.10598   0.53416   0.00000  Uiso   1.00
H1003  H     0.63465   0.11729   0.98949   0.00000  Uiso   1.00
H1004  H     0.66028   0.07212   0.98880   0.00000  Uiso   1.00
N1005  N     0.35755   0.18733   0.69973   0.00000  Uiso   1.00
O1006  O     0.34764   0.17993   0.66608   0.00000  Uiso   1.00
O1007  O     0.39231   0.21182   0.70122   0.00000  Uiso   1.00
O1008  O     0.64428   0.15101   0.80087   0.00000  Uiso   1.00
C1009  C     0.65661   0.12042   0.81865   0.00000  Uiso   1.00
H1010  H     0.35055   0.13329   0.83115   0.00000  Uiso   1.00
H1011  H     0.66486   0.09235   0.79725   0.00000  Uiso   1.00
H1012  H     0.62901   0.11054   0.84384   0.00000  Uiso   1.00
N1013  N     0.55041   0.00691   0.70864   0.00000  Uiso   1.00
O1014  O     0.56154   0.32167   0.67254   0.00000  Uiso   1.00
O1015  O     0.57528   0.03884   0.71858   0.00000  Uiso   1.00
O1016  O     0.44747   0.32754   0.78985   0.00000  Uiso   1.00
C1017  C     0.42871   0.02221   0.82262   0.00000  Uiso   1.00
H1018  H     0.41307   0.04547   0.81307   0.00000  Uiso   1.00
H1019  H     0.45281   0.03775   0.83817   0.00000  Uiso   1.00
H1020  H     0.40321   0.00444   0.84442   0.00000  Uiso   1.00
O1021  O     0.48906   0.18841   0.59847   0.00000  Uiso   1.00
C1022  C     0.51658   0.22370   0.58428   0.00000  Uiso   1.00
H1023  H     0.52168   0.22423   0.55170   0.00000  Uiso   1.00
H1024  H     0.54809   0.22544   0.59098   0.00000  Uiso   1.00
H1025  H     0.50115   0.25188   0.59979   0.00000  Uiso   1.00
N1026  N     0.58223   0.08631   0.60111   0.00000  Uiso   1.00
O1027  O     0.58748   0.04700   0.59300   0.00000  Uiso   1.00
O1028  O     0.60011   0.10869   0.62671   0.00000  Uiso   1.00
N1029  N     0.56260   0.05929   0.95864   0.00000  Uiso   1.00
O1030  O     0.59924   0.06620   0.93177   0.00000  Uiso   1.00
O1031  O     0.54763   0.02144   0.96662   0.00000  Uiso   1.00
N1032  N     0.37099   0.22634   0.98522   0.00000  Uiso   1.00
O1033  O     0.37164   0.26657   0.98901   0.00000  Uiso   1.00
O1034  O     0.33409   0.20338   0.99270   0.00000  Uiso   1.00
N1035  N     0.40480   0.23292   0.90413   0.00000  Uiso   1.00
O1036  O     0.42214   0.26911   0.89257   0.00000  Uiso   1.00
O1037  O     0.36591   0.21942   0.90221   0.00000  Uiso   1.00
O1038  O     0.41946   0.15562   0.58467   0.00000  Uiso   1.00
C1039  C     0.40173   0.11373   0.58682   0.00000  Uiso   1.00
H1040  H     0.42726   0.09226   0.57646   0.00000  Uiso   1.00
H1041  H     0.37764   0.10543   0.56949   0.00000  Uiso   1.00
H1042  H     0.38477   0.10923   0.61846   0.00000  Uiso   1.00
N1043  N     0.51009   0.08993   0.92193   0.00000  Uiso   1.00
O1044  O     0.47219   0.07693   0.91710   0.00000  Uiso   1.00
O1045  O     0.54419   0.08466   0.89202   0.00000  Uiso   1.00
Zn1046 Zn    0.85910   0.14090   0.78278   0.00000  Uiso   1.00
Zn1047 Zn    0.80125   0.12378   0.72258   0.00000  Uiso   1.00
Zn1048 Zn    0.87833   0.19664   0.71188   0.00000  Uiso   1.00
Zn1049 Zn    0.79465   0.20535   0.78277   0.00000  Uiso   1.00
O1050  O     0.83333   0.16667   0.75000   0.00000  Uiso   1.00
O1051  O     0.73656   0.18960   0.77820   0.00000  Uiso   1.00
O1052  O     0.92106   0.15277   0.76768   0.00000  Uiso   1.00
O1053  O     0.80467   0.06903   0.73607   0.00000  Uiso   1.00
O1054  O     0.87104   0.25527   0.71806   0.00000  Uiso   1.00
O1055  O     0.82360   0.12393   0.66625   0.00000  Uiso   1.00
O1056  O     0.79354   0.20646   0.83749   0.00000  Uiso   1.00
O1057  O     0.87755   0.17493   0.65877   0.00000  Uiso   1.00
O1058  O     0.83865   0.16135   0.83749   0.00000  Uiso   1.00
O1059  O     0.84515   0.08101   0.77821   0.00000  Uiso   1.00
O1060  O     0.81247   0.26136   0.76767   0.00000  Uiso   1.00
O1061  O     0.74119   0.13251   0.73607   0.00000  Uiso   1.00
O1062  O     0.93452   0.19179   0.71806   0.00000  Uiso   1.00
C1063  C     0.71935   0.16006   0.75907   0.00000  Uiso   1.00
C1064  C     0.94782   0.17302   0.74089   0.00000  Uiso   1.00
C1065  C     0.82273   0.05638   0.75901   0.00000  Uiso   1.00
C1066  C     0.84319   0.27766   0.74110   0.00000  Uiso   1.00
C1067  C     0.85495   0.14533   0.64376   0.00000  Uiso   1.00
C1068  C     0.81160   0.18752   0.85672   0.00000  Uiso   1.00
C1069  C     0.79677   0.19119   0.90116   0.00000  Uiso   1.00
C1070  C     0.86467   0.13531   0.60040   0.00000  Uiso   1.00
C1071  C     0.74295   0.20753   0.96461   0.00000  Uiso   1.00
C1072  C     0.75969   0.21049   0.92328   0.00000  Uiso   1.00
C1073  C     0.81729   0.17053   0.92123   0.00000  Uiso   1.00
C1074  C     0.79993   0.16485   0.96196   0.00000  Uiso   1.00
C1075  C     0.76344   0.18542   0.98469   0.00000  Uiso   1.00
C1076  C     0.82011   0.14114   0.98094   0.00000  Uiso   1.00
C1077  C     0.81112   0.14725   0.52282   0.00000  Uiso   1.00
C1078  C     0.77132   0.16214   0.54494   0.00000  Uiso   1.00
C1079  C     0.74872   0.18265   0.52651   0.00000  Uiso   1.00
C1080  C     0.84726   0.11012   0.95994   0.00000  Uiso   1.00
C1081  C     0.87202   0.09317   0.97934   0.00000  Uiso   1.00
C1082  C     0.87060   0.10741   0.51960   0.00000  Uiso   1.00
C1083  C     0.84060   0.13577   0.54119   0.00000  Uiso   1.00
C1084  C     0.89781   0.09363   0.53915   0.00000  Uiso   1.00
C1085  C     0.89236   0.10511   0.58030   0.00000  Uiso   1.00
C1086  C     0.84227   0.15330   0.57998   0.00000  Uiso   1.00
H1087  H     0.84771   0.15930   0.90457   0.00000  Uiso   1.00
C1088  C     0.99399   0.17322   0.73574   0.00000  Uiso   1.00
C1089  C     0.67368   0.15879   0.76407   0.00000  Uiso   1.00
C1090  C     0.84741   0.32234   0.73837   0.00000  Uiso   1.00
C1091  C     0.81772   0.01258   0.76356   0.00000  Uiso   1.00
N1092  N     0.71240   0.20250   0.55163   0.00000  Uiso   1.00
O1093  O     0.67711   0.18005   0.56839   0.00000  Uiso   1.00
O1094  O     0.71784   0.24159   0.56460   0.00000  Uiso   1.00
O1095  O     0.92902   0.06783   0.51859   0.00000  Uiso   1.00
C1096  C     0.96911   0.09233   0.50755   0.00000  Uiso   1.00
H1097  H     0.97991   0.10598   0.53416   0.00000  Uiso   1.00
H1098  H     0.96798   0.11729   0.98949   0.00000  Uiso   1.00
H1099  H     0.99361   0.07212   0.98880   0.00000  Uiso   1.00
N1100  N     0.69089   0.18733   0.69973   0.00000  Uiso   1.00
O1101  O     0.68097   0.17993   0.66608   0.00000  Uiso   1.00
O1102  O     0.72565   0.21182   0.70122   0.00000  Uiso   1.00
O1103  O     0.97761   0.15101   0.80087   0.00000  Uiso   1.00
C1104  C     0.98995   0.12042   0.81865   0.00000  Uiso   1.00
H1105  H     0.68389   0.13329   0.83115   0.00000  Uiso   1.00
H1106  H     0.99820   0.09235   0.79725   0.00000  Uiso   1.00
H1107  H     0.96234   0.11054   0.84384   0.00000  Uiso   1.00
N1108  N     0.88374   0.00691   0.70864   0.00000  Uiso   1.00
O1109  O     0.89487   0.32167   0.67254   0.00000  Uiso   1.00
O1110  O     0.90861   0.03884   0.71858   0.00000  Uiso   1.00
O1111  O     0.78081   0.32754   0.78985   0.00000  Uiso   1.00
C1112  C     0.76205   0.02221   0.82262   0.00000  Uiso   1.00
H1113  H     0.74641   0.04547   0.81307   0.00000  Uiso   1.00
H1114  H     0.78614   0.03775   0.83817   0.00000  Uiso   1.00
H1115  H     0.73654   0.00444   0.84442   0.00000  Uiso   1.00
O1116  O     0.82239   0.18841   0.59847   0.00000  Uiso   1.00
C1117  C     0.84991   0.22370   0.58428   0.00000  Uiso   1.00
H1118  H     0.85502   0.22423   0.55170   0.00000  Uiso   1.00
H1119  H     0.88143   0.22544   0.59098   0.00000  Uiso   1.00
H1120  H     0.83448   0.25188   0.59979   0.00000  Uiso   1.00
N1121  N     0.91556   0.08631   0.60111   0.00000  Uiso   1.00
O1122  O     0.92081   0.04700   0.59300   0.00000  Uiso   1.00
O1123  O     0.93344   0.10869   0.62671   0.00000  Uiso   1.00
N1124  N     0.89594   0.05929   0.95864   0.00000  Uiso   1.00
O1125  O     0.93257   0.06620   0.93177   0.00000  Uiso   1.00
O1126  O     0.88097   0.02144   0.96662   0.00000  Uiso   1.00
N1127  N     0.70432   0.22634   0.98522   0.00000  Uiso   1.00
O1128  O     0.70498   0.26657   0.98901   0.00000  Uiso   1.00
O1129  O     0.66743   0.20338   0.99270   0.00000  Uiso   1.00
N1130  N     0.73813   0.23292   0.90413   0.00000  Uiso   1.00
O1131  O     0.75548   0.26911   0.89257   0.00000  Uiso   1.00
O1132  O     0.69924   0.21942   0.90221   0.00000  Uiso   1.00
O1133  O     0.75280   0.15562   0.58467   0.00000  Uiso   1.00
C1134  C     0.73507   0.11373   0.58682   0.00000  Uiso   1.00
H1135  H     0.76059   0.09226   0.57646   0.00000  Uiso   1.00
H1136  H     0.71098   0.10543   0.56949   0.00000  Uiso   1.00
H1137  H     0.71810   0.10923   0.61846   0.00000  Uiso   1.00
N1138  N     0.84343   0.08993   0.92193   0.00000  Uiso   1.00
O1139  O     0.80552   0.07693   0.91710   0.00000  Uiso   1.00
O1140  O     0.87753   0.08466   0.89202   0.00000  Uiso   1.00
Zn1141 Zn    0.19244   0.47423   0.78278   0.00000  Uiso   1.00
Zn1142 Zn    0.13459   0.45711   0.72258   0.00000  Uiso   1.00
Zn1143 Zn    0.21166   0.52997   0.71188   0.00000  Uiso   1.00
Zn1144 Zn    0.12798   0.53868   0.78277   0.00000  Uiso   1.00
O1145  O     0.16667   0.50000   0.75000   0.00000  Uiso   1.00
O1146  O     0.06990   0.52293   0.77820   0.00000  Uiso   1.00
O1147  O     0.25440   0.48610   0.76768   0.00000  Uiso   1.00
O1148  O     0.13800   0.40236   0.73607   0.00000  Uiso   1.00
O1149  O     0.20437   0.58860   0.71806   0.00000  Uiso   1.00
O1150  O     0.15693   0.45726   0.66625   0.00000  Uiso   1.00
O1151  O     0.12687   0.53979   0.83749   0.00000  Uiso   1.00
O1152  O     0.21088   0.50826   0.65877   0.00000  Uiso   1.00
O1153  O     0.17198   0.49468   0.83749   0.00000  Uiso   1.00
O1154  O     0.17849   0.41434   0.77821   0.00000  Uiso   1.00
O1155  O     0.14581   0.59469   0.76767   0.00000  Uiso   1.00
O1156  O     0.07452   0.46584   0.73607   0.00000  Uiso   1.00
O1157  O     0.26785   0.52512   0.71806   0.00000  Uiso   1.00
C1158  C     0.05268   0.49340   0.75907   0.00000  Uiso   1.00
C1159  C     0.28115   0.50636   0.74089   0.00000  Uiso   1.00
C1160  C     0.15607   0.38972   0.75901   0.00000  Uiso   1.00
C1161  C     0.17652   0.61100   0.74110   0.00000  Uiso   1.00
C1162  C     0.18828   0.47866   0.64376   0.00000  Uiso   1.00
C1163  C     0.14493   0.52085   0.85672   0.00000  Uiso   1.00
C1164  C     0.13010   0.52452   0.90116   0.00000  Uiso   1.00
C1165  C     0.19800   0.46864   0.60040   0.00000  Uiso   1.00
C1166  C     0.07628   0.54086   0.96461   0.00000  Uiso   1.00
C1167  C     0.09302   0.54382   0.92328   0.00000  Uiso   1.00
C1168  C     0.15063   0.50386   0.92123   0.00000  Uiso   1.00
C1169  C     0.13326   0.49818   0.96196   0.00000  Uiso   1.00
C1170  C     0.09677   0.51875   0.98469   0.00000  Uiso   1.00
C1171  C     0.15345   0.47447   0.98094   0.00000  Uiso   1.00
C1172  C     0.14445   0.48058   0.52282   0.00000  Uiso   1.00
C1173  C     0.10466   0.49547   0.54494   0.00000  Uiso   1.00
C1174  C     0.08205   0.51598   0.52651   0.00000  Uiso   1.00
C1175  C     0.18060   0.44345   0.95994   0.00000  Uiso   1.00
C1176  C     0.20535   0.42650   0.97934   0.00000  Uiso   1.00
C1177  C     0.20394   0.44075   0.51960   0.00000  Uiso   1.00
C1178  C     0.17393   0.46911   0.54119   0.00000  Uiso   1.00
C1179  C     0.23114   0.42696   0.53915   0.00000  Uiso   1.00
C1180  C     0.22569   0.43845   0.58030   0.00000  Uiso   1.00
C1181  C     0.17561   0.48663   0.57998   0.00000  Uiso   1.00
H1182  H     0.18104   0.49263   0.90457   0.00000  Uiso   1.00
C1183  C     0.32732   0.50655   0.73574   0.00000  Uiso   1.00
C1184  C     0.00701   0.49213   0.76407   0.00000  Uiso   1.00
C1185  C     0.18074   0.65567   0.73837   0.00000  Uiso   1.00
C1186  C     0.15106   0.34591   0.76356   0.00000  Uiso   1.00
N1187  N     0.04573   0.53583   0.55163   0.00000  Uiso   1.00
O1188  O     0.01045   0.51339   0.56839   0.00000  Uiso   1.00
O1189  O     0.05117   0.57492   0.56460   0.00000  Uiso   1.00
O1190  O     0.26235   0.40116   0.51859   0.00000  Uiso   1.00
C1191  C     0.30244   0.42566   0.50755   0.00000  Uiso   1.00
H1192  H     0.31324   0.43931   0.53416   0.00000  Uiso   1.00
H1193  H     0.30132   0.45063   0.98949   0.00000  Uiso   1.00
H1194  H     0.32694   0.40545   0.98880   0.00000  Uiso   1.00
N1195  N     0.02422   0.52066   0.69973   0.00000  Uiso   1.00
O1196  O     0.01430   0.51326   0.66608   0.00000  Uiso   1.00
O1197  O     0.05898   0.54515   0.70122   0.00000  Uiso   1.00
O1198  O     0.31094   0.48435   0.80087   0.00000  Uiso   1.00
C1199  C     0.32328   0.45375   0.81865   0.00000  Uiso   1.00
H1200  H     0.01722   0.46662   0.83115   0.00000  Uiso   1.00
H1201  H     0.33153   0.42568   0.79725   0.00000  Uiso   1.00
H1202  H     0.29567   0.44387   0.84384   0.00000  Uiso   1.00
N1203  N     0.21708   0.34024   0.70864   0.00000  Uiso   1.00
O1204  O     0.22820   0.65500   0.67254   0.00000  Uiso   1.00
O1205  O     0.24194   0.37218   0.71858   0.00000  Uiso   1.00
O1206  O     0.11414   0.66088   0.78985   0.00000  Uiso   1.00
C1207  C     0.09538   0.35555   0.82262   0.00000  Uiso   1.00
H1208  H     0.07974   0.37881   0.81307   0.00000  Uiso   1.00
H1209  H     0.11948   0.37109   0.83817   0.00000  Uiso   1.00
H1210  H     0.06988   0.33777   0.84442   0.00000  Uiso   1.00
O1211  O     0.15573   0.52174   0.59847   0.00000  Uiso   1.00
C1212  C     0.18325   0.55704   0.58428   0.00000  Uiso   1.00
H1213  H     0.18835   0.55757   0.55170   0.00000  Uiso   1.00
H1214  H     0.21476   0.55877   0.59098   0.00000  Uiso   1.00
H1215  H     0.16782   0.58522   0.59979   0.00000  Uiso   1.00
N1216  N     0.24889   0.41964   0.60111   0.00000  Uiso   1.00
O1217  O     0.25415   0.38033   0.59300   0.00000  Uiso   1.00
O1218  O     0.26678   0.44202   0.62671   0.00000  Uiso   1.00
N1219  N     0.22927   0.39263   0.95864   0.00000  Uiso   1.00
O1220  O     0.26590   0.39953   0.93177   0.00000  Uiso   1.00
O1221  O     0.21430   0.35478   0.96662   0.00000  Uiso   1.00
N1222  N     0.03766   0.55967   0.98522   0.00000  Uiso   1.00
O1223  O     0.03831   0.59991   0.98901   0.00000  Uiso   1.00
O1224  O     0.00076   0.53671   0.99270   0.00000  Uiso   1.00
N1225  N     0.07146   0.56625   0.90413   0.00000  Uiso   1.00
O1226  O     0.08881   0.60244   0.89257   0.00000  Uiso   1.00
O1227  O     0.03258   0.55275   0.90221   0.00000  Uiso   1.00
O1228  O     0.08613   0.48895   0.58467   0.00000  Uiso   1.00
C1229  C     0.06840   0.44706   0.58682   0.00000  Uiso   1.00
H1230  H     0.09393   0.42559   0.57646   0.00000  Uiso   1.00
H1231  H     0.04431   0.43876   0.56949   0.00000  Uiso   1.00
H1232  H     0.05143   0.44257   0.61846   0.00000  Uiso   1.00
N1233  N     0.17676   0.42327   0.92193   0.00000  Uiso   1.00
O1234  O     0.13885   0.41027   0.91710   0.00000  Uiso   1.00
O1235  O     0.21086   0.41799   0.89202   0.00000  Uiso   1.00
Zn1236 Zn    0.52577   0.47423   0.78278   0.00000  Uiso   1.00
Zn1237 Zn    0.46792   0.45711   0.72258   0.00000  Uiso   1.00
Zn1238 Zn    0.54500   0.52997   0.71188   0.00000  Uiso   1.00
Zn1239 Zn    0.46131   0.53868   0.78277   0.00000  Uiso   1.00
O1240  O     0.50000   0.50000   0.75000   0.00000  Uiso   1.00
O1241  O     0.40323   0.52293   0.77820   0.00000  Uiso   1.00
O1242  O     0.58773   0.48610   0.76768   0.00000  Uiso   1.00
O1243  O     0.47133   0.40236   0.73607   0.00000  Uiso   1.00
O1244  O     0.53771   0.58860   0.71806   0.00000  Uiso   1.00
O1245  O     0.49027   0.45726   0.66625   0.00000  Uiso   1.00
O1246  O     0.46020   0.53979   0.83749   0.00000  Uiso   1.00
O1247  O     0.54421   0.50826   0.65877   0.00000  Uiso   1.00
O1248  O     0.50532   0.49468   0.83749   0.00000  Uiso   1.00
O1249  O     0.51182   0.41434   0.77821   0.00000  Uiso   1.00
O1250  O     0.47914   0.59469   0.76767   0.00000  Uiso   1.00
O1251  O     0.40785   0.46584   0.73607   0.00000  Uiso   1.00
O1252  O     0.60119   0.52512   0.71806   0.00000  Uiso   1.00
C1253  C     0.38601   0.49340   0.75907   0.00000  Uiso   1.00
C1254  C     0.61449   0.50636   0.74089   0.00000  Uiso   1.00
C1255  C     0.48940   0.38972   0.75901   0.00000  Uiso   1.00
C1256  C     0.50985   0.61100   0.74110   0.00000  Uiso   1.00
C1257  C     0.52162   0.47866   0.64376   0.00000  Uiso   1.00
C1258  C     0.47826   0.52085   0.85672   0.00000  Uiso   1.00
C1259  C     0.46343   0.52452   0.90116   0.00000  Uiso   1.00
C1260  C     0.53134   0.46864   0.60040   0.00000  Uiso   1.00
C1261  C     0.40962   0.54086   0.96461   0.00000  Uiso   1.00
C1262  C     0.42635   0.54382   0.92328   0.00000  Uiso   1.00
C1263  C     0.48396   0.50386   0.92123   0.00000  Uiso   1.00
C1264  C     0.46660   0.49818   0.96196   0.00000  Uiso   1.00
C1265  C     0.43011   0.51875   0.98469   0.00000  Uiso   1.00
C1266  C     0.48678   0.47447   0.98094   0.00000  Uiso   1.00
C1267  C     0.47779   0.48058   0.52282   0.00000  Uiso   1.00
C1268  C     0.43799   0.49547   0.54494   0.00000  Uiso   1.00
C1269  C     0.41538   0.51598   0.52651   0.00000  Uiso   1.00
C1270  C     0.51393   0.44345   0.95994   0.00000  Uiso   1.00
C1271  C     0.53869   0.42650   0.97934   0.00000  Uiso   1.00
C1272  C     0.53727   0.44075   0.51960   0.00000  Uiso   1.00
C1273  C     0.50727   0.46911   0.54119   0.00000  Uiso   1.00
C1274  C     0.56448   0.42696   0.53915   0.00000  Uiso   1.00
C1275  C     0.55903   0.43845   0.58030   0.00000  Uiso   1.00
C1276  C     0.50894   0.48663   0.57998   0.00000  Uiso   1.00
H1277  H     0.51437   0.49263   0.90457   0.00000  Uiso   1.00
C1278  C     0.66065   0.50655   0.73574   0.00000  Uiso   1.00
C1279  C     0.34035   0.49213   0.76407   0.00000  Uiso   1.00
C1280  C     0.51407   0.65567   0.73837   0.00000  Uiso   1.00
C1281  C     0.48439   0.34591   0.76356   0.00000  Uiso   1.00
N1282  N     0.37907   0.53583   0.55163   0.00000  Uiso   1.00
O1283  O     0.34378   0.51339   0.56839   0.00000  Uiso   1.00
O1284  O     0.38451   0.57492   0.56460   0.00000  Uiso   1.00
O1285  O     0.59569   0.40116   0.51859   0.00000  Uiso   1.00
C1286  C     0.63578   0.42566   0.50755   0.00000  Uiso   1.00
H1287  H     0.64658   0.43931   0.53416   0.00000  Uiso   1.00
H1288  H     0.63465   0.45063   0.98949   0.00000  Uiso   1.00
H1289  H     0.66028   0.40545   0.98880   0.00000  Uiso   1.00
N1290  N     0.35755   0.52066   0.69973   0.00000  Uiso   1.00
O1291  O     0.34764   0.51326   0.66608   0.00000  Uiso   1.00
O1292  O     0.39231   0.54515   0.70122   0.00000  Uiso   1.00
O1293  O     0.64428   0.48435   0.80087   0.00000  Uiso   1.00
C1294  C     0.65661   0.45375   0.81865   0.00000  Uiso   1.00
H1295  H     0.35055   0.46662   0.83115   0.00000  Uiso   1.00
H1296  H     0.66486   0.42568   0.79725   0.00000  Uiso   1.00
H1297  H     0.62901   0.44387   0.84384   0.00000  Uiso   1.00
N1298  N     0.55041   0.34024   0.70864   0.00000  Uiso   1.00
O1299  O     0.56154   0.65500   0.67254   0.00000  Uiso   1.00
O1300  O     0.57528   0.37218   0.71858   0.00000  Uiso   1.00
O1301  O     0.44747   0.66088   0.78985   0.00000  Uiso   1.00
C1302  C     0.42871   0.35555   0.82262   0.00000  Uiso   1.00
H1303  H     0.41307   0.37881   0.81307   0.00000  Uiso   1.00
H1304  H     0.45281   0.37109   0.83817   0.00000  Uiso   1.00
H1305  H     0.40321   0.33777   0.84442   0.00000  Uiso   1.00
O1306  O     0.48906   0.52174   0.59847   0.00000  Uiso   1.00
C1307  C     0.51658   0.55704   0.58428   0.00000  Uiso   1.00
H1308  H     0.52168   0.55757   0.55170   0.00000  Uiso   1.00
H1309  H     0.54809   0.55877   0.59098   0.00000  Uiso   1.00
H1310  H     0.50115   0.58522   0.59979   0.00000  Uiso   1.00
N1311  N     0.58223   0.41964   0.60111   0.00000  Uiso   1.00
O1312  O     0.58748   0.38033   0.59300   0.00000  Uiso   1.00
O1313  O     0.60011   0.44202   0.62671   0.00000  Uiso   1.00
N1314  N     0.56260   0.39263   0.95864   0.00000  Uiso   1.00
O1315  O     0.59924   0.39953   0.93177   0.00000  Uiso   1.00
O1316  O     0.54763   0.35478   0.96662   0.00000  Uiso   1.00
N1317  N     0.37099   0.55967   0.98522   0.00000  Uiso   1.00
O1318  O     0.37164   0.59991   0.98901   0.00000  Uiso   1.00
O1319  O     0.33409   0.53671   0.99270   0.00000  Uiso   1.00
N1320  N     0.40480   0.56625   0.90413   0.00000  Uiso   1.00
O1321  O     0.42214   0.60244   0.89257   0.00000  Uiso   1.00
O1322  O     0.36591   0.55275   0.90221   0.00000  Uiso   1.00
O1323  O     0.41946   0.48895   0.58467   0.00000  Uiso   1.00
C1324  C     0.40173   0.44706   0.58682   0.00000  Uiso   1.00
H1325  H     0.42726   0.42559   0.57646   0.00000  Uiso   1.00
H1326  H     0.37764   0.43876   0.56949   0.00000  Uiso   1.00
H1327  H     0.38477   0.44257   0.61846   0.00000  Uiso   1.00
N1328  N     0.51009   0.42327   0.92193   0.00000  Uiso   1.00
O1329  O     0.47219   0.41027   0.91710   0.00000  Uiso   1.00
O1330  O     0.54419   0.41799   0.89202   0.00000  Uiso   1.00
Zn1331 Zn    0.85910   0.47423   0.78278   0.00000  Uiso   1.00
Zn1332 Zn    0.80125   0.45711   0.72258   0.00000  Uiso   1.00
Zn1333 Zn    0.87833   0.52997   0.71188   0.00000  Uiso   1.00
Zn1334 Zn    0.79465   0.53868   0.78277   0.00000  Uiso   1.00
O1335  O     0.83333   0.50000   0.75000   0.00000  Uiso   1.00
O1336  O     0.73656   0.52293   0.77820   0.00000  Uiso   1.00
O1337  O     0.92106   0.48610   0.76768   0.00000  Uiso   1.00
O1338  O     0.80467   0.40236   0.73607   0.00000  Uiso   1.00
O1339  O     0.87104   0.58860   0.71806   0.00000  Uiso   1.00
O1340  O     0.82360   0.45726   0.66625   0.00000  Uiso   1.00
O1341  O     0.79354   0.53979   0.83749   0.00000  Uiso   1.00
O1342  O     0.87755   0.50826   0.65877   0.00000  Uiso   1.00
O1343  O     0.83865   0.49468   0.83749   0.00000  Uiso   1.00
O1344  O     0.84515   0.41434   0.77821   0.00000  Uiso   1.00
O1345  O     0.81247   0.59469   0.76767   0.00000  Uiso   1.00
O1346  O     0.74119   0.46584   0.73607   0.00000  Uiso   1.00
O1347  O     0.93452   0.52512   0.71806   0.00000  Uiso   1.00
C1348  C     0.71935   0.49340   0.75907   0.00000  Uiso   1.00
C1349  C     0.94782   0.50636   0.74089   0.00000  Uiso   1.00
C1350  C     0.82273   0.38972   0.75901   0.00000  Uiso   1.00
C1351  C     0.84319   0.61100   0.74110   0.00000  Uiso   1.00
C1352  C     0.85495   0.47866   0.64376   0.00000  Uiso   1.00
C1353  C     0.81160   0.52085   0.85672   0.00000  Uiso   1.00
C1354  C     0.79677   0.52452   0.90116   0.00000  Uiso   1.00
C1355  C     0.86467   0.46864   0.60040   0.00000  Uiso   1.00
C1356  C     0.74295   0.54086   0.96461   0.00000  Uiso   1.00
C1357  C     0.75969   0.54382   0.92328   0.00000  Uiso   1.00
C1358  C     0.81729   0.50386   0.92123   0.00000  Uiso   1.00
C1359  C     0.79993   0.49818   0.96196   0.00000  Uiso   1.00
C1360  C     0.76344   0.51875   0.98469   0.00000  Uiso   1.00
C1361  C     0.82011   0.47447   0.98094   0.00000  Uiso   1.00
C1362  C     0.81112   0.48058   0.52282   0.00000  Uiso   1.00
C1363  C     0.77132   0.49547   0.54494   0.00000  Uiso   1.00
C1364  C     0.74872   0.51598   0.52651   0.00000  Uiso   1.00
C1365  C     0.84726   0.44345   0.95994   0.00000  Uiso   1.00
C1366  C     0.87202   0.42650   0.97934   0.00000  Uiso   1.00
C1367  C     0.87060   0.44075   0.51960   0.00000  Uiso   1.00
C1368  C     0.84060   0.46911   0.54119   0.00000  Uiso   1.00
C1369  C     0.89781   0.42696   0.53915   0.00000  Uiso   1.00
C1370  C     0.89236   0.43845   0.58030   0.00000  Uiso   1.00
C1371  C     0.84227   0.48663   0.57998   0.00000  Uiso   1.00
H1372  H     0.84771   0.49263   0.90457   0.00000  Uiso   1.00
C1373  C     0.99399   0.50655   0.73574   0.00000  Uiso   1.00
C1374  C     0.67368   0.49213   0.76407   0.00000  Uiso   1.00
C1375  C     0.84741   0.65567   0.73837   0.00000  Uiso   1.00
C1376  C     0.81772   0.34591   0.76356   0.00000  Uiso   1.00
N1377  N     0.71240   0.53583   0.55163   0.00000  Uiso   1.00
O1378  O     0.67711   0.51339   0.56839   0.00000  Uiso   1.00
O1379  O     0.71784   0.57492   0.56460   0.00000  Uiso   1.00
O1380  O     0.92902   0.40116   0.51859   0.00000  Uiso   1.00
C1381  C     0.96911   0.42566   0.50755   0.00000  Uiso   1.00
H1382  H     0.97991   0.43931   0.53416   0.00000  Uiso   1.00
H1383  H     0.96798   0.45063   0.98949   0.00000  Uiso   1.00
H1384  H     0.99361   0.40545   0.98880   0.00000  Uiso   1.00
N1385  N     0.69089   0.52066   0.69973   0.00000  Uiso   1.00
O1386  O     0.68097   0.51326   0.66608   0.00000  Uiso   1.00
O1387  O     0.72565   0.54515   0.70122   0.00000  Uiso   1.00
O1388  O     0.97761   0.48435   0.80087   0.00000  Uiso   1.00
C1389  C     0.98995   0.45375   0.81865   0.00000  Uiso   1.00
H1390  H     0.68389   0.46662   0.83115   0.00000  Uiso   1.00
H1391  H     0.99820   0.42568   0.79725   0.00000  Uiso   1.00
H1392  H     0.96234   0.44387   0.84384   0.00000  Uiso   1.00
N1393  N     0.88374   0.34024   0.70864   0.00000  Uiso   1.00
O1394  O     0.89487   0.65500   0.67254   0.00000  Uiso   1.00
O1395  O     0.90861   0.37218   0.71858   0.00000  Uiso   1.00
O1396  O     0.78081   0.66088   0.78985   0.00000  Uiso   1.00
C1397  C     0.76205   0.35555   0.82262   0.00000  Uiso   1.00
H1398  H     0.74641   0.37881   0.81307   0.00000  Uiso   1.00
H1399  H     0.78614   0.37109   0.83817   0.00000  Uiso   1.00
H1400  H     0.73654   0.33777   0.84442   0.00000  Uiso   1.00
O1401  O     0.82239   0.52174   0.59847   0.00000  Uiso   1.00
C1402  C     0.84991   0.55704   0.58428   0.00000  Uiso   1.00
H1403  H     0.85502   0.55757   0.55170   0.00000  Uiso   1.00
H1404  H     0.88143   0.55877   0.59098   0.00000  Uiso   1.00
H1405  H     0.83448   0.58522   0.59979   0.00000  Uiso   1.00
N1406  N     0.91556   0.41964   0.60111   0.00000  Uiso   1.00
O1407  O     0.92081   0.38033   0.59300   0.00000  Uiso   1.00
O1408  O     0.93344   0.44202   0.62671   0.00000  Uiso   1.00
N1409  N     0.89594   0.39263   0.95864   0.00000  Uiso   1.00
O1410  O     0.93257   0.39953   0.93177   0.00000  Uiso   1.00
O1411  O     0.88097   0.35478   0.96662   0.00000  Uiso   1.00
N1412  N     0.70432   0.55967   0.98522   0.00000  Uiso   1.00
O1413  O     0.70498   0.59991   0.98901   0.00000  Uiso   1.00
O1414  O     0.66743   0.53671   0.99270   0.00000  Uiso   1.00
N1415  N     0.73813   0.56625   0.90413   0.00000  Uiso   1.00
O1416  O     0.75548   0.60244   0.89257   0.00000  Uiso   1.00
O1417  O     0.69924   0.55275   0.90221   0.00000  Uiso   1.00
O1418  O     0.75280   0.48895   0.58467   0.00000  Uiso   1.00
C1419  C     0.73507   0.44706   0.58682   0.00000  Uiso   1.00
H1420  H     0.76059   0.42559   0.57646   0.00000  Uiso   1.00
H1421  H     0.71098   0.43876   0.56949   0.00000  Uiso   1.00
H1422  H     0.71810   0.44257   0.61846   0.00000  Uiso   1.00
N1423  N     0.84343   0.42327   0.92193   0.00000  Uiso   1.00
O1424  O     0.80552   0.41027   0.91710   0.00000  Uiso   1.00
O1425  O     0.87753   0.41799   0.89202   0.00000  Uiso   1.00
Zn1426 Zn    0.19244   0.80756   0.78278   0.00000  Uiso   1.00
Zn1427 Zn    0.13459   0.79044   0.72258   0.00000  Uiso   1.00
Zn1428 Zn    0.21166   0.86331   0.71188   0.00000  Uiso   1.00
Zn1429 Zn    0.12798   0.87202   0.78277   0.00000  Uiso   1.00
O1430  O     0.16667   0.83333   0.75000   0.00000  Uiso   1.00
O1431  O     0.06990   0.85627   0.77820   0.00000  Uiso   1.00
O1432  O     0.25440   0.81944   0.76768   0.00000  Uiso   1.00
O1433  O     0.13800   0.73570   0.73607   0.00000  Uiso   1.00
O1434  O     0.20437   0.92193   0.71806   0.00000  Uiso   1.00
O1435  O     0.15693   0.79060   0.66625   0.00000  Uiso   1.00
O1436  O     0.12687   0.87313   0.83749   0.00000  Uiso   1.00
O1437  O     0.21088   0.84159   0.65877   0.00000  Uiso   1.00
O1438  O     0.17198   0.82802   0.83749   0.00000  Uiso   1.00
O1439  O     0.17849   0.74768   0.77821   0.00000  Uiso   1.00
O1440  O     0.14581   0.92803   0.76767   0.00000  Uiso   1.00
O1441  O     0.07452   0.79917   0.73607   0.00000  Uiso   1.00
O1442  O     0.26785   0.85845   0.71806   0.00000  Uiso   1.00
C1443  C     0.05268   0.82673   0.75907   0.00000  Uiso   1.00
C1444  C     0.28115   0.83969   0.74089   0.00000  Uiso   1.00
C1445  C     0.15607   0.72305   0.75901   0.00000  Uiso   1.00
C1446  C     0.17652   0.94433   0.74110   0.00000  Uiso   1.00
C1447  C     0.18828   0.81199   0.64376   0.00000  Uiso   1.00
C1448  C     0.14493   0.85418   0.85672   0.00000  Uiso   1.00
C1449  C     0.13010   0.85785   0.90116   0.00000  Uiso   1.00
C1450  C     0.19800   0.80197   0.60040   0.00000  Uiso   1.00
C1451  C     0.07628   0.87420   0.96461   0.00000  Uiso   1.00
C1452  C     0.09302   0.87715   0.92328   0.00000  Uiso   1.00
C1453  C     0.15063   0.83719   0.92123   0.00000  Uiso   1.00
C1454  C     0.13326   0.83151   0.96196   0.00000  Uiso   1.00
C1455  C     0.09677   0.85209   0.98469   0.00000  Uiso   1.00
C1456  C     0.15345   0.80781   0.98094   0.00000  Uiso   1.00
C1457  C     0.14445   0.81392   0.52282   0.00000  Uiso   1.00
C1458  C     0.10466   0.82881   0.54494   0.00000  Uiso   1.00
C1459  C     0.08205   0.84932   0.52651   0.00000  Uiso   1.00
C1460  C     0.18060   0.77678   0.95994   0.00000  Uiso   1.00
C1461  C     0.20535   0.75983   0.97934   0.00000  Uiso   1.00
C1462  C     0.20394   0.77408   0.51960   0.00000  Uiso   1.00
C1463  C     0.17393   0.80244   0.54119   0.00000  Uiso   1.00
C1464  C     0.23114   0.76030   0.53915   0.00000  Uiso   1.00
C1465  C     0.22569   0.77178   0.58030   0.00000  Uiso   1.00
C1466  C     0.17561   0.81997   0.57998   0.00000  Uiso   1.00
H1467  H     0.18104   0.82597   0.90457   0.00000  Uiso   1.00
C1468  C     0.32732   0.83988   0.73574   0.00000  Uiso   1.00
C1469  C     0.00701   0.82546   0.76407   0.00000  Uiso   1.00
C1470  C     0.18074   0.98901   0.73837   0.00000  Uiso   1.00
C1471  C     0.15106   0.67924   0.76356   0.00000  Uiso   1.00
N1472  N     0.04573   0.86916   0.55163   0.00000  Uiso   1.00
O1473  O     0.01045   0.84672   0.56839   0.00000  Uiso   1.00
O1474  O     0.05117   0.90825   0.56460   0.00000  Uiso   1.00
O1475  O     0.26235   0.73450   0.51859   0.00000  Uiso   1.00
C1476  C     0.30244   0.75900   0.50755   0.00000  Uiso   1.00
H1477  H     0.31324   0.77265   0.53416   0.00000  Uiso   1.00
H1478  H     0.30132   0.78396   0.98949   0.00000  Uiso   1.00
H1479  H     0.32694   0.73878   0.98880   0.00000  Uiso   1.00
N1480  N     0.02422   0.85399   0.69973   0.00000  Uiso   1.00
O1481  O     0.01430   0.84659   0.66608   0.00000  Uiso   1.00
O1482  O     0.05898   0.87848   0.70122   0.00000  Uiso   1.00
O1483  O     0.31094   0.81768   0.80087   0.00000  Uiso   1.00
C1484  C     0.32328   0.78708   0.81865   0.00000  Uiso   1.00
H1485  H     0.01722   0.79996   0.83115   0.00000  Uiso   1.00
H1486  H     0.33153   0.75901   0.79725   0.00000  Uiso   1.00
H1487  H     0.29567   0.77720   0.84384   0.00000  Uiso   1.00
N1488  N     0.21708   0.67358   0.70864   0.00000  Uiso   1.00
O1489  O     0.22820   0.98833   0.67254   0.00000  Uiso   1.00
O1490  O     0.24194   0.70551   0.71858   0.00000  Uiso   1.00
O1491  O     0.11414   0.99421   0.78985   0.00000  Uiso   1.00
C1492  C     0.09538   0.68888   0.82262   0.00000  Uiso   1.00
H1493  H     0.07974   0.71214   0.81307   0.00000  Uiso   1.00
H1494  H     0.11948   0.70442   0.83817   0.00000  Uiso   1.00
H1495  H     0.06988   0.67111   0.84442   0.00000  Uiso   1.00
O1496  O     0.15573   0.85508   0.59847   0.00000  Uiso   1.00
C1497  C     0.18325   0.89037   0.58428   0.00000  Uiso   1.00
H1498  H     0.18835   0.89090   0.55170   0.00000  Uiso   1.00
H1499  H     0.21476   0.89211   0.59098   0.00000  Uiso   1.00
H1500  H     0.16782   0.91855   0.59979   0.00000  Uiso   1.00
N1501  N     0.24889   0.75298   0.60111   0.00000  Uiso   1.00
O1502  O     0.25415   0.71367   0.59300   0.00000  Uiso   1.00
O1503  O     0.26678   0.77535   0.62671   0.00000  Uiso   1.00
N1504  N     0.22927   0.72596   0.95864   0.00000  Uiso   1.00
O1505  O     0.26590   0.73287   0.93177   0.00000  Uiso   1.00
O1506  O     0.21430   0.68811   0.96662   0.00000  Uiso   1.00
N1507  N     0.03766   0.89300   0.98522   0.00000  Uiso   1.00
O1508  O     0.03831   0.93324   0.98901   0.00000  Uiso   1.00
O1509  O     0.00076   0.87005   0.99270   0.00000  Uiso   1.00
N1510  N     0.07146   0.89958   0.90413   0.00000  Uiso   1.00
O1511  O     0.08881   0.93577   0.89257   0.00000  Uiso   1.00
O1512  O     0.03258   0.88609   0.90221   0.00000  Uiso   1.00
O1513  O     0.08613   0.82228   0.58467   0.00000  Uiso   1.00
C1514  C     0.06840   0.78039   0.58682   0.00000  Uiso   1.00
H1515  H     0.09393   0.75893   0.57646   0.00000  Uiso   1.00
H1516  H     0.04431   0.77210   0.56949   0.00000  Uiso   1.00
H1517  H     0.05143   0.77590   0.61846   0.00000  Uiso   1.00
N1518  N     0.17676   0.75660   0.92193   0.00000  Uiso   1.00
O1519  O     0.13885   0.74360   0.91710   0.00000  Uiso   1.00
O1520  O     0.21086   0.75132   0.89202   0.00000  Uiso   1.00
Zn1521 Zn    0.52577   0.80756   0.78278   0.00000  Uiso   1.00
Zn1522 Zn    0.46792   0.79044   0.72258   0.00000  Uiso   1.00
Zn1523 Zn    0.54500   0.86331   0.71188   0.00000  Uiso   1.00
Zn1524 Zn    0.46131   0.87202   0.78277   0.00000  Uiso   1.00
O1525  O     0.50000   0.83333   0.75000   0.00000  Uiso   1.00
O1526  O     0.40323   0.85627   0.77820   0.00000  Uiso   1.00
O1527  O     0.58773   0.81944   0.76768   0.00000  Uiso   1.00
O1528  O     0.47133   0.73570   0.73607   0.00000  Uiso   1.00
O1529  O     0.53771   0.92193   0.71806   0.00000  Uiso   1.00
O1530  O     0.49027   0.79060   0.66625   0.00000  Uiso   1.00
O1531  O     0.46020   0.87313   0.83749   0.00000  Uiso   1.00
O1532  O     0.54421   0.84159   0.65877   0.00000  Uiso   1.00
O1533  O     0.50532   0.82802   0.83749   0.00000  Uiso   1.00
O1534  O     0.51182   0.74768   0.77821   0.00000  Uiso   1.00
O1535  O     0.47914   0.92803   0.76767   0.00000  Uiso   1.00
O1536  O     0.40785   0.79917   0.73607   0.00000  Uiso   1.00
O1537  O     0.60119   0.85845   0.71806   0.00000  Uiso   1.00
C1538  C     0.38601   0.82673   0.75907   0.00000  Uiso   1.00
C1539  C     0.61449   0.83969   0.74089   0.00000  Uiso   1.00
C1540  C     0.48940   0.72305   0.75901   0.00000  Uiso   1.00
C1541  C     0.50985   0.94433   0.74110   0.00000  Uiso   1.00
C1542  C     0.52162   0.81199   0.64376   0.00000  Uiso   1.00
C1543  C     0.47826   0.85418   0.85672   0.00000  Uiso   1.00
C1544  C     0.46343   0.85785   0.90116   0.00000  Uiso   1.00
C1545  C     0.53134   0.80197   0.60040   0.00000  Uiso   1.00
C1546  C     0.40962   0.87420   0.96461   0.00000  Uiso   1.00
C1547  C     0.42635   0.87715   0.92328   0.00000  Uiso   1.00
C1548  C     0.48396   0.83719   0.92123   0.00000  Uiso   1.00
C1549  C     0.46660   0.83151   0.96196   0.00000  Uiso   1.00
C1550  C     0.43011   0.85209   0.98469   0.00000  Uiso   1.00
C1551  C     0.48678   0.80781   0.98094   0.00000  Uiso   1.00
C1552  C     0.47779   0.81392   0.52282   0.00000  Uiso   1.00
C1553  C     0.43799   0.82881   0.54494   0.00000  Uiso   1.00
C1554  C     0.41538   0.84932   0.52651   0.00000  Uiso   1.00
C1555  C     0.51393   0.77678   0.95994   0.00000  Uiso   1.00
C1556  C     0.53869   0.75983   0.97934   0.00000  Uiso   1.00
C1557  C     0.53727   0.77408   0.51960   0.00000  Uiso   1.00
C1558  C     0.50727   0.80244   0.54119   0.00000  Uiso   1.00
C1559  C     0.56448   0.76030   0.53915   0.00000  Uiso   1.00
C1560  C     0.55903   0.77178   0.58030   0.00000  Uiso   1.00
C1561  C     0.50894   0.81997   0.57998   0.00000  Uiso   1.00
H1562  H     0.51437   0.82597   0.90457   0.00000  Uiso   1.00
C1563  C     0.66065   0.83988   0.73574   0.00000  Uiso   1.00
C1564  C     0.34035   0.82546   0.76407   0.00000  Uiso   1.00
C1565  C     0.51407   0.98901   0.73837   0.00000  Uiso   1.00
C1566  C     0.48439   0.67924   0.76356   0.00000  Uiso   1.00
N1567  N     0.37907   0.86916   0.55163   0.00000  Uiso   1.00
O1568  O     0.34378   0.84672   0.56839   0.00000  Uiso   1.00
O1569  O     0.38451   0.90825   0.56460   0.00000  Uiso   1.00
O1570  O     0.59569   0.73450   0.51859   0.00000  Uiso   1.00
C1571  C     0.63578   0.75900   0.50755   0.00000  Uiso   1.00
H1572  H     0.64658   0.77265   0.53416   0.00000  Uiso   1.00
H1573  H     0.63465   0.78396   0.98949   0.00000  Uiso   1.00
H1574  H     0.66028   0.73878   0.98880   0.00000  Uiso   1.00
N1575  N     0.35755   0.85399   0.69973   0.00000  Uiso   1.00
O1576  O     0.34764   0.84659   0.66608   0.00000  Uiso   1.00
O1577  O     0.39231   0.87848   0.70122   0.00000  Uiso   1.00
O1578  O     0.64428   0.81768   0.80087   0.00000  Uiso   1.00
C1579  C     0.65661   0.78708   0.81865   0.00000  Uiso   1.00
H1580  H     0.35055   0.79996   0.83115   0.00000  Uiso   1.00
H1581  H     0.66486   0.75901   0.79725   0.00000  Uiso   1.00
H1582  H     0.62901   0.77720   0.84384   0.00000  Uiso   1.00
N1583  N     0.55041   0.67358   0.70864   0.00000  Uiso   1.00
O1584  O     0.56154   0.98833   0.67254   0.00000  Uiso   1.00
O1585  O     0.57528   0.70551   0.71858   0.00000  Uiso   1.00
O1586  O     0.44747   0.99421   0.78985   0.00000  Uiso   1.00
C1587  C     0.42871   0.68888   0.82262   0.00000  Uiso   1.00
H1588  H     0.41307   0.71214   0.81307   0.00000  Uiso   1.00
H1589  H     0.45281   0.70442   0.83817   0.00000  Uiso   1.00
H1590  H     0.40321   0.67111   0.84442   0.00000  Uiso   1.00
O1591  O     0.48906   0.85508   0.59847   0.00000  Uiso   1.00
C1592  C     0.51658   0.89037   0.58428   0.00000  Uiso   1.00
H1593  H     0.52168   0.89090   0.55170   0.00000  Uiso   1.00
H1594  H     0.54809   0.89211   0.59098   0.00000  Uiso   1.00
H1595  H     0.50115   0.91855   0.59979   0.00000  Uiso   1.00
N1596  N     0.58223   0.75298   0.60111   0.00000  Uiso   1.00
O1597  O     0.58748   0.71367   0.59300   0.00000  Uiso   1.00
O1598  O     0.60011   0.77535   0.62671   0.00000  Uiso   1.00
N1599  N     0.56260   0.72596   0.95864   0.00000  Uiso   1.00
O1600  O     0.59924   0.73287   0.93177   0.00000  Uiso   1.00
O1601  O     0.54763   0.68811   0.96662   0.00000  Uiso   1.00
N1602  N     0.37099   0.89300   0.98522   0.00000  Uiso   1.00
O1603  O     0.37164   0.93324   0.98901   0.00000  Uiso   1.00
O1604  O     0.33409   0.87005   0.99270   0.00000  Uiso   1.00
N1605  N     0.40480   0.89958   0.90413   0.00000  Uiso   1.00
O1606  O     0.42214   0.93577   0.89257   0.00000  Uiso   1.00
O1607  O     0.36591   0.88609   0.90221   0.00000  Uiso   1.00
O1608  O     0.41946   0.82228   0.58467   0.00000  Uiso   1.00
C1609  C     0.40173   0.78039   0.58682   0.00000  Uiso   1.00
H1610  H     0.42726   0.75893   0.57646   0.00000  Uiso   1.00
H1611  H     0.37764   0.77210   0.56949   0.00000  Uiso   1.00
H1612  H     0.38477   0.77590   0.61846   0.00000  Uiso   1.00
N1613  N     0.51009   0.75660   0.92193   0.00000  Uiso   1.00
O1614  O     0.47219   0.74360   0.91710   0.00000  Uiso   1.00
O1615  O     0.54419   0.75132   0.89202   0.00000  Uiso   1.00
Zn1616 Zn    0.85910   0.80756   0.78278   0.00000  Uiso   1.00
Zn1617 Zn    0.80125   0.79044   0.72258   0.00000  Uiso   1.00
Zn1618 Zn    0.87833   0.86331   0.71188   0.00000  Uiso   1.00
Zn1619 Zn    0.79465   0.87202   0.78277   0.00000  Uiso   1.00
O1620  O     0.83333   0.83333   0.75000   0.00000  Uiso   1.00
O1621  O     0.73656   0.85627   0.77820   0.00000  Uiso   1.00
O1622  O     0.92106   0.81944   0.76768   0.00000  Uiso   1.00
O1623  O     0.80467   0.73570   0.73607   0.00000  Uiso   1.00
O1624  O     0.87104   0.92193   0.71806   0.00000  Uiso   1.00
O1625  O     0.82360   0.79060   0.66625   0.00000  Uiso   1.00
O1626  O     0.79354   0.87313   0.83749   0.00000  Uiso   1.00
O1627  O     0.87755   0.84159   0.65877   0.00000  Uiso   1.00
O1628  O     0.83865   0.82802   0.83749   0.00000  Uiso   1.00
O1629  O     0.84515   0.74768   0.77821   0.00000  Uiso   1.00
O1630  O     0.81247   0.92803   0.76767   0.00000  Uiso   1.00
O1631  O     0.74119   0.79917   0.73607   0.00000  Uiso   1.00
O1632  O     0.93452   0.85845   0.71806   0.00000  Uiso   1.00
C1633  C     0.71935   0.82673   0.75907   0.00000  Uiso   1.00
C1634  C     0.94782   0.83969   0.74089   0.00000  Uiso   1.00
C1635  C     0.82273   0.72305   0.75901   0.00000  Uiso   1.00
C1636  C     0.84319   0.94433   0.74110   0.00000  Uiso   1.00
C1637  C     0.85495   0.81199   0.64376   0.00000  Uiso   1.00
C1638  C     0.81160   0.85418   0.85672   0.00000  Uiso   1.00
C1639  C     0.79677   0.85785   0.90116   0.00000  Uiso   1.00
C1640  C     0.86467   0.80197   0.60040   0.00000  Uiso   1.00
C1641  C     0.74295   0.87420   0.96461   0.00000  Uiso   1.00
C1642  C     0.75969   0.87715   0.92328   0.00000  Uiso   1.00
C1643  C     0.81729   0.83719   0.92123   0.00000  Uiso   1.00
C1644  C     0.79993   0.83151   0.96196   0.00000  Uiso   1.00
C1645  C     0.76344   0.85209   0.98469   0.00000  Uiso   1.00
C1646  C     0.82011   0.80781   0.98094   0.00000  Uiso   1.00
C1647  C     0.81112   0.81392   0.52282   0.00000  Uiso   1.00
C1648  C     0.77132   0.82881   0.54494   0.00000  Uiso   1.00
C1649  C     0.74872   0.84932   0.52651   0.00000  Uiso   1.00
C1650  C     0.84726   0.77678   0.95994   0.00000  Uiso   1.00
C1651  C     0.87202   0.75983   0.97934   0.00000  Uiso   1.00
C1652  C     0.87060   0.77408   0.51960   0.00000  Uiso   1.00
C1653  C     0.84060   0.80244   0.54119   0.00000  Uiso   1.00
C1654  C     0.89781   0.76030   0.53915   0.00000  Uiso   1.00
C1655  C     0.89236   0.77178   0.58030   0.00000  Uiso   1.00
C1656  C     0.84227   0.81997   0.57998   0.00000  Uiso   1.00
H1657  H     0.84771   0.82597   0.90457   0.00000  Uiso   1.00
C1658  C     0.99399   0.83988   0.73574   0.00000  Uiso   1.00
C1659  C     0.67368   0.82546   0.76407   0.00000  Uiso   1.00
C1660  C     0.84741   0.98901   0.73837   0.00000  Uiso   1.00
C1661  C     0.81772   0.67924   0.76356   0.00000  Uiso   1.00
N1662  N     0.71240   0.86916   0.55163   0.00000  Uiso   1.00
O1663  O     0.67711   0.84672   0.56839   0.00000  Uiso   1.00
O1664  O     0.71784   0.90825   0.56460   0.00000  Uiso   1.00
O1665  O     0.92902   0.73450   0.51859   0.00000  Uiso   1.00
C1666  C     0.96911   0.75900   0.50755   0.00000  Uiso   1.00
H1667  H     0.97991   0.77265   0.53416   0.00000  Uiso   1.00
H1668  H     0.96798   0.78396   0.98949   0.00000  Uiso   1.00
H1669  H     0.99361   0.73878   0.98880   0.00000  Uiso   1.00
N1670  N     0.69089   0.85399   0.69973   0.00000  Uiso   1.00
O1671  O     0.68097   0.84659   0.66608   0.00000  Uiso   1.00
O1672  O     0.72565   0.87848   0.70122   0.00000  Uiso   1.00
O1673  O     0.97761   0.81768   0.80087   0.00000  Uiso   1.00
C1674  C     0.98995   0.78708   0.81865   0.00000  Uiso   1.00
H1675  H     0.68389   0.79996   0.83115   0.00000  Uiso   1.00
H1676  H     0.99820   0.75901   0.79725   0.00000  Uiso   1.00
H1677  H     0.96234   0.77720   0.84384   0.00000  Uiso   1.00
N1678  N     0.88374   0.67358   0.70864   0.00000  Uiso   1.00
O1679  O     0.89487   0.98833   0.67254   0.00000  Uiso   1.00
O1680  O     0.90861   0.70551   0.71858   0.00000  Uiso   1.00
O1681  O     0.78081   0.99421   0.78985   0.00000  Uiso   1.00
C1682  C     0.76205   0.68888   0.82262   0.00000  Uiso   1.00
H1683  H     0.74641   0.71214   0.81307   0.00000  Uiso   1.00
H1684  H     0.78614   0.70442   0.83817   0.00000  Uiso   1.00
H1685  H     0.73654   0.67111   0.84442   0.00000  Uiso   1.00
O1686  O     0.82239   0.85508   0.59847   0.00000  Uiso   1.00
C1687  C     0.84991   0.89037   0.58428   0.00000  Uiso   1.00
H1688  H     0.85502   0.89090   0.55170   0.00000  Uiso   1.00
H1689  H     0.88143   0.89211   0.59098   0.00000  Uiso   1.00
H1690  H     0.83448   0.91855   0.59979   0.00000  Uiso   1.00
N1691  N     0.91556   0.75298   0.60111   0.00000  Uiso   1.00
O1692  O     0.92081   0.71367   0.59300   0.00000  Uiso   1.00
O1693  O     0.93344   0.77535   0.62671   0.00000  Uiso   1.00
N1694  N     0.89594   0.72596   0.95864   0.00000  Uiso   1.00
O1695  O     0.93257   0.73287   0.93177   0.00000  Uiso   1.00
O1696  O     0.88097   0.68811   0.96662   0.00000  Uiso   1.00
N1697  N     0.70432   0.89300   0.98522   0.00000  Uiso   1.00
O1698  O     0.70498   0.93324   0.98901   0.00000  Uiso   1.00
O1699  O     0.66743   0.87005   0.99270   0.00000  Uiso   1.00
N1700  N     0.73813   0.89958   0.90413   0.00000  Uiso   1.00
O1701  O     0.75548   0.93577   0.89257   0.00000  Uiso   1.00
O1702  O     0.69924   0.88609   0.90221   0.00000  Uiso   1.00
O1703  O     0.75280   0.82228   0.58467   0.00000  Uiso   1.00
C1704  C     0.73507   0.78039   0.58682   0.00000  Uiso   1.00
H1705  H     0.76059   0.75893   0.57646   0.00000  Uiso   1.00
H1706  H     0.71098   0.77210   0.56949   0.00000  Uiso   1.00
H1707  H     0.71810   0.77590   0.61846   0.00000  Uiso   1.00
N1708  N     0.84343   0.75660   0.92193   0.00000  Uiso   1.00
O1709  O     0.80552   0.74360   0.91710   0.00000  Uiso   1.00
O1710  O     0.87753   0.75132   0.89202   0.00000  Uiso   1.00
loop_
_geom_bond_atom_site_label_1
_geom_bond_atom_site_label_2
_geom_bond_distance
_geom_bond_site_symmetry_2
_ccdc_geom_bond_type
Zn1    O5      1.949   .     S
Zn1    O13     1.902   .     S
Zn1    O7      1.930   .     S
Zn1    O14     1.940   .     S
Zn2    O16     1.930   .     S
Zn2    O10     1.903   .     S
Zn2    O8      1.941   .     S
Zn2    O5      1.947   .     S
Zn3    O12     1.913   .     S
Zn3    O9      1.939   .     S
Zn3    O5      1.928   .     S
Zn3    O17     1.941   .     S
Zn4    O11     1.913   .     S
Zn4    O6      1.940   .     S
Zn4    O5      1.928   .     S
Zn4    O15     1.939   .     S
O6     C18     1.260   .     A
O7     C19     1.271   .     A
O8     C20     1.272   .     A
O9     C21     1.269   .     A
O10    C22     1.279   .     A
O11    C23     1.284   .     A
O12    C22     1.281   .     A
O13    C23     1.293   .     A
O14    C20     1.270   .     A
O15    C21     1.265   .     A
O16    C18     1.271   .     A
O17    C19     1.278   .     A
C18    C44     1.444   .     S
C19    C43     1.463   .     S
C20    C46     1.444   .     S
C21    C45     1.461   .     S
C22    C25     1.465   .     S
C23    C24     1.489   .     S
C24    C27     1.413   .     A
C24    C28     1.396   .     A
C25    C40     1.405   .     A
C25    C41     1.397   .     A
C26    C27     1.409   .     A
C26    N82     1.433   .     S
C26    C30     1.425   .     A
C27    N85     1.434   .     S
C28    C29     1.408   .     A
C28    H42     1.080   .     S
C29    C30     1.424   .     A
C29    C31     1.426   .     A
C30    C889    1.421   .     S
C31    C35     1.422   .     A
C31    C887    1.408   .     S
C32    C38     1.423   .     A
C32    C33     1.418   .     A
C32    C886    1.408   1_554 S
C33    O88     1.385   .     S
C33    C34     1.401   .     A
C34    N47     1.432   .     S
C34    C885    1.421   1_554 S
C35    C36     1.410   .     A
C35    N93     1.440   .     S
C36    N79     1.433   .     S
C36    C892    1.419   .     S
C37    C38     1.422   .     A
C37    C39     1.425   .     A
C37    C891    1.419   1_554 S
C38    C41     1.420   .     A
C39    C40     1.411   .     A
C39    O50     1.383   .     S
C40    N76     1.441   .     S
C41    O71     1.385   .     S
C43    C139    1.356   .     S
C43    N150    1.446   .     S
C44    C233    1.356   1_455 S
C44    O248    1.399   1_455 S
C45    C331    1.355   .     S
C45    N348    1.445   .     S
C46    C615    1.355   1_545 S
C46    O636    1.400   1_545 S
N47    O49     1.301   .     A
N47    O48     1.301   .     A
O50    C51     1.411   .     S
C51    H52     1.111   .     S
C51    H908    1.114   1_554 S
C51    H909    1.109   1_554 S
H53    C906    1.114   .     S
H54    C906    1.109   .     S
N55    O56     1.301   .     A
N55    O57     1.302   .     A
N55    C233    1.446   1_455 S
O58    C59     1.412   .     S
O58    C139    1.399   .     S
C59    H61     1.114   .     S
C59    H62     1.109   .     S
C59    H155    1.112   .     S
H60    C249    1.112   1_455 S
N63    O65     1.301   .     A
N63    C615    1.445   1_545 S
N63    O634    1.301   1_545 S
O64    N348    1.301   .     S
O66    C331    1.400   .     S
O66    C352    1.412   .     S
C67    H68     1.112   .     S
C67    H70     1.109   .     S
C67    H69     1.113   .     S
C67    O636    1.412   1_545 S
O71    C72     1.410   .     S
C72    H75     1.109   .     S
C72    H74     1.114   .     S
C72    H73     1.113   .     S
N76    O78     1.301   .     A
N76    O77     1.301   .     A
N79    O81     1.301   .     A
N79    O80     1.301   .     A
N82    O84     1.301   .     A
N82    O83     1.301   .     A
N85    O87     1.301   .     A
N85    O86     1.301   .     A
O88    C89     1.411   .     S
C89    H91     1.114   .     S
C89    H92     1.109   .     S
C89    H90     1.112   .     S
N93    O94     1.302   .     A
N93    O95     1.301   .     A
Zn96   O100    1.949   .     S
Zn96   O108    1.902   .     S
Zn96   O102    1.930   .     S
Zn96   O109    1.940   .     S
Zn97   O111    1.930   .     S
Zn97   O105    1.903   .     S
Zn97   O103    1.941   .     S
Zn97   O100    1.947   .     S
Zn98   O107    1.913   .     S
Zn98   O104    1.939   .     S
Zn98   O100    1.928   .     S
Zn98   O112    1.941   .     S
Zn99   O106    1.913   .     S
Zn99   O101    1.940   .     S
Zn99   O100    1.928   .     S
Zn99   O110    1.939   .     S
O101   C113    1.260   .     A
O102   C114    1.271   .     A
O103   C115    1.272   .     A
O104   C116    1.269   .     A
O105   C117    1.279   .     A
O106   C118    1.284   .     A
O107   C117    1.281   .     A
O108   C118    1.293   .     A
O109   C115    1.270   .     A
O110   C116    1.265   .     A
O111   C113    1.271   .     A
O112   C114    1.278   .     A
C113   C139    1.444   .     S
C114   C138    1.463   .     S
C115   C141    1.444   .     S
C116   C140    1.461   .     S
C117   C120    1.465   .     S
C118   C119    1.489   .     S
C119   C122    1.413   .     A
C119   C123    1.396   .     A
C120   C135    1.405   .     A
C120   C136    1.397   .     A
C121   C122    1.409   .     A
C121   N177    1.433   .     S
C121   C125    1.425   .     A
C122   N180    1.434   .     S
C123   C124    1.408   .     A
C123   H137    1.080   .     S
C124   C125    1.424   .     A
C124   C126    1.426   .     A
C125   C984    1.421   .     S
C126   C130    1.422   .     A
C126   C982    1.408   .     S
C127   C133    1.423   .     A
C127   C128    1.418   .     A
C127   C981    1.408   1_554 S
C128   O183    1.385   .     S
C128   C129    1.401   .     A
C129   N142    1.432   .     S
C129   C980    1.421   1_554 S
C130   C131    1.410   .     A
C130   N188    1.440   .     S
C131   N174    1.433   .     S
C131   C987    1.419   .     S
C132   C133    1.422   .     A
C132   C134    1.425   .     A
C132   C986    1.419   1_554 S
C133   C136    1.420   .     A
C134   C135    1.411   .     A
C134   O145    1.383   .     S
C135   N171    1.441   .     S
C136   O166    1.385   .     S
C138   C234    1.356   .     S
C138   N245    1.446   .     S
C140   C426    1.355   .     S
C140   N443    1.445   .     S
C141   C710    1.355   1_545 S
C141   O731    1.400   1_545 S
N142   O144    1.301   .     A
N142   O143    1.301   .     A
O145   C146    1.411   .     S
C146   H147    1.111   .     S
C146   H1003   1.114   1_554 S
C146   H1004   1.109   1_554 S
H148   C1001   1.114   .     S
H149   C1001   1.109   .     S
N150   O151    1.301   .     A
N150   O152    1.302   .     A
O153   C154    1.412   .     S
O153   C234    1.399   .     S
C154   H156    1.114   .     S
C154   H157    1.109   .     S
C154   H250    1.112   .     S
N158   O160    1.301   .     A
N158   C710    1.445   1_545 S
N158   O729    1.301   1_545 S
O159   N443    1.301   .     S
O161   C426    1.400   .     S
O161   C447    1.412   .     S
C162   H163    1.112   .     S
C162   H165    1.109   .     S
C162   H164    1.113   .     S
C162   O731    1.412   1_545 S
O166   C167    1.410   .     S
C167   H170    1.109   .     S
C167   H169    1.114   .     S
C167   H168    1.113   .     S
N171   O173    1.301   .     A
N171   O172    1.301   .     A
N174   O176    1.301   .     A
N174   O175    1.301   .     A
N177   O179    1.301   .     A
N177   O178    1.301   .     A
N180   O182    1.301   .     A
N180   O181    1.301   .     A
O183   C184    1.411   .     S
C184   H186    1.114   .     S
C184   H187    1.109   .     S
C184   H185    1.112   .     S
N188   O189    1.302   .     A
N188   O190    1.301   .     A
Zn191  O195    1.949   .     S
Zn191  O203    1.902   .     S
Zn191  O197    1.930   .     S
Zn191  O204    1.940   .     S
Zn192  O206    1.930   .     S
Zn192  O200    1.903   .     S
Zn192  O198    1.941   .     S
Zn192  O195    1.947   .     S
Zn193  O202    1.913   .     S
Zn193  O199    1.939   .     S
Zn193  O195    1.928   .     S
Zn193  O207    1.941   .     S
Zn194  O201    1.913   .     S
Zn194  O196    1.940   .     S
Zn194  O195    1.928   .     S
Zn194  O205    1.939   .     S
O196   C208    1.260   .     A
O197   C209    1.271   .     A
O198   C210    1.272   .     A
O199   C211    1.269   .     A
O200   C212    1.279   .     A
O201   C213    1.284   .     A
O202   C212    1.281   .     A
O203   C213    1.293   .     A
O204   C210    1.270   .     A
O205   C211    1.265   .     A
O206   C208    1.271   .     A
O207   C209    1.278   .     A
C208   C234    1.444   .     S
C209   C233    1.463   .     S
C210   C236    1.444   .     S
C211   C235    1.461   .     S
C212   C215    1.465   .     S
C213   C214    1.489   .     S
C214   C217    1.413   .     A
C214   C218    1.396   .     A
C215   C230    1.405   .     A
C215   C231    1.397   .     A
C216   C217    1.409   .     A
C216   N272    1.433   .     S
C216   C220    1.425   .     A
C217   N275    1.434   .     S
C218   C219    1.408   .     A
C218   H232    1.080   .     S
C219   C220    1.424   .     A
C219   C221    1.426   .     A
C220   C1079   1.421   .     S
C221   C225    1.422   .     A
C221   C1077   1.408   .     S
C222   C228    1.423   .     A
C222   C223    1.418   .     A
C222   C1076   1.408   1_554 S
C223   O278    1.385   .     S
C223   C224    1.401   .     A
C224   N237    1.432   .     S
C224   C1075   1.421   1_554 S
C225   C226    1.410   .     A
C225   N283    1.440   .     S
C226   N269    1.433   .     S
C226   C1082   1.419   .     S
C227   C228    1.422   .     A
C227   C229    1.425   .     A
C227   C1081   1.419   1_554 S
C228   C231    1.420   .     A
C229   C230    1.411   .     A
C229   O240    1.383   .     S
C230   N266    1.441   .     S
C231   O261    1.385   .     S
C233   C44     1.356   1_655 S
C233   N55     1.446   1_655 S
C235   C521    1.355   .     S
C235   N538    1.445   .     S
C236   C805    1.355   1_545 S
C236   O826    1.400   1_545 S
N237   O239    1.301   .     A
N237   O238    1.301   .     A
O240   C241    1.411   .     S
C241   H242    1.111   .     S
C241   H1098   1.114   1_554 S
C241   H1099   1.109   1_554 S
H243   C1096   1.114   .     S
H244   C1096   1.109   .     S
N245   O246    1.301   .     A
N245   O247    1.302   .     A
O248   C249    1.412   .     S
O248   C44     1.399   1_655 S
C249   H251    1.114   .     S
C249   H252    1.109   .     S
C249   H60     1.112   1_655 S
N253   O255    1.301   .     A
N253   C805    1.445   1_545 S
N253   O824    1.301   1_545 S
O254   N538    1.301   .     S
O256   C521    1.400   .     S
O256   C542    1.412   .     S
C257   H258    1.112   .     S
C257   H260    1.109   .     S
C257   H259    1.113   .     S
C257   O826    1.412   1_545 S
O261   C262    1.410   .     S
C262   H265    1.109   .     S
C262   H264    1.114   .     S
C262   H263    1.113   .     S
N266   O268    1.301   .     A
N266   O267    1.301   .     A
N269   O271    1.301   .     A
N269   O270    1.301   .     A
N272   O274    1.301   .     A
N272   O273    1.301   .     A
N275   O277    1.301   .     A
N275   O276    1.301   .     A
O278   C279    1.411   .     S
C279   H281    1.114   .     S
C279   H282    1.109   .     S
C279   H280    1.112   .     S
N283   O284    1.302   .     A
N283   O285    1.301   .     A
Zn286  O290    1.949   .     S
Zn286  O298    1.902   .     S
Zn286  O292    1.930   .     S
Zn286  O299    1.940   .     S
Zn287  O301    1.930   .     S
Zn287  O295    1.903   .     S
Zn287  O293    1.941   .     S
Zn287  O290    1.947   .     S
Zn288  O297    1.913   .     S
Zn288  O294    1.939   .     S
Zn288  O290    1.928   .     S
Zn288  O302    1.941   .     S
Zn289  O296    1.913   .     S
Zn289  O291    1.940   .     S
Zn289  O290    1.928   .     S
Zn289  O300    1.939   .     S
O291   C303    1.260   .     A
O292   C304    1.271   .     A
O293   C305    1.272   .     A
O294   C306    1.269   .     A
O295   C307    1.279   .     A
O296   C308    1.284   .     A
O297   C307    1.281   .     A
O298   C308    1.293   .     A
O299   C305    1.270   .     A
O300   C306    1.265   .     A
O301   C303    1.271   .     A
O302   C304    1.278   .     A
C303   C329    1.444   .     S
C304   C328    1.463   .     S
C305   C331    1.444   .     S
C306   C330    1.461   .     S
C307   C310    1.465   .     S
C308   C309    1.489   .     S
C309   C312    1.413   .     A
C309   C313    1.396   .     A
C310   C325    1.405   .     A
C310   C326    1.397   .     A
C311   C312    1.409   .     A
C311   N367    1.433   .     S
C311   C315    1.425   .     A
C312   N370    1.434   .     S
C313   C314    1.408   .     A
C313   H327    1.080   .     S
C314   C315    1.424   .     A
C314   C316    1.426   .     A
C315   C1174   1.421   .     S
C316   C320    1.422   .     A
C316   C1172   1.408   .     S
C317   C323    1.423   .     A
C317   C318    1.418   .     A
C317   C1171   1.408   1_554 S
C318   O373    1.385   .     S
C318   C319    1.401   .     A
C319   N332    1.432   .     S
C319   C1170   1.421   1_554 S
C320   C321    1.410   .     A
C320   N378    1.440   .     S
C321   N364    1.433   .     S
C321   C1177   1.419   .     S
C322   C323    1.422   .     A
C322   C324    1.425   .     A
C322   C1176   1.419   1_554 S
C323   C326    1.420   .     A
C324   C325    1.411   .     A
C324   O335    1.383   .     S
C325   N361    1.441   .     S
C326   O356    1.385   .     S
C328   C424    1.356   .     S
C328   N435    1.446   .     S
C329   C518    1.356   1_455 S
C329   O533    1.399   1_455 S
C330   C616    1.355   .     S
C330   N633    1.445   .     S
N332   O334    1.301   .     A
N332   O333    1.301   .     A
O335   C336    1.411   .     S
C336   H337    1.111   .     S
C336   H1193   1.114   1_554 S
C336   H1194   1.109   1_554 S
H338   C1191   1.114   .     S
H339   C1191   1.109   .     S
N340   O341    1.301   .     A
N340   O342    1.302   .     A
N340   C518    1.446   1_455 S
O343   C344    1.412   .     S
O343   C424    1.399   .     S
C344   H346    1.114   .     S
C344   H347    1.109   .     S
C344   H440    1.112   .     S
H345   C534    1.112   1_455 S
N348   O350    1.301   .     A
O349   N633    1.301   .     S
O351   C616    1.400   .     S
O351   C637    1.412   .     S
C352   H353    1.112   .     S
C352   H355    1.109   .     S
C352   H354    1.113   .     S
O356   C357    1.410   .     S
C357   H360    1.109   .     S
C357   H359    1.114   .     S
C357   H358    1.113   .     S
N361   O363    1.301   .     A
N361   O362    1.301   .     A
N364   O366    1.301   .     A
N364   O365    1.301   .     A
N367   O369    1.301   .     A
N367   O368    1.301   .     A
N370   O372    1.301   .     A
N370   O371    1.301   .     A
O373   C374    1.411   .     S
C374   H376    1.114   .     S
C374   H377    1.109   .     S
C374   H375    1.112   .     S
N378   O379    1.302   .     A
N378   O380    1.301   .     A
Zn381  O385    1.949   .     S
Zn381  O393    1.902   .     S
Zn381  O387    1.930   .     S
Zn381  O394    1.940   .     S
Zn382  O396    1.930   .     S
Zn382  O390    1.903   .     S
Zn382  O388    1.941   .     S
Zn382  O385    1.947   .     S
Zn383  O392    1.913   .     S
Zn383  O389    1.939   .     S
Zn383  O385    1.928   .     S
Zn383  O397    1.941   .     S
Zn384  O391    1.913   .     S
Zn384  O386    1.940   .     S
Zn384  O385    1.928   .     S
Zn384  O395    1.939   .     S
O386   C398    1.260   .     A
O387   C399    1.271   .     A
O388   C400    1.272   .     A
O389   C401    1.269   .     A
O390   C402    1.279   .     A
O391   C403    1.284   .     A
O392   C402    1.281   .     A
O393   C403    1.293   .     A
O394   C400    1.270   .     A
O395   C401    1.265   .     A
O396   C398    1.271   .     A
O397   C399    1.278   .     A
C398   C424    1.444   .     S
C399   C423    1.463   .     S
C400   C426    1.444   .     S
C401   C425    1.461   .     S
C402   C405    1.465   .     S
C403   C404    1.489   .     S
C404   C407    1.413   .     A
C404   C408    1.396   .     A
C405   C420    1.405   .     A
C405   C421    1.397   .     A
C406   C407    1.409   .     A
C406   N462    1.433   .     S
C406   C410    1.425   .     A
C407   N465    1.434   .     S
C408   C409    1.408   .     A
C408   H422    1.080   .     S
C409   C410    1.424   .     A
C409   C411    1.426   .     A
C410   C1269   1.421   .     S
C411   C415    1.422   .     A
C411   C1267   1.408   .     S
C412   C418    1.423   .     A
C412   C413    1.418   .     A
C412   C1266   1.408   1_554 S
C413   O468    1.385   .     S
C413   C414    1.401   .     A
C414   N427    1.432   .     S
C414   C1265   1.421   1_554 S
C415   C416    1.410   .     A
C415   N473    1.440   .     S
C416   N459    1.433   .     S
C416   C1272   1.419   .     S
C417   C418    1.422   .     A
C417   C419    1.425   .     A
C417   C1271   1.419   1_554 S
C418   C421    1.420   .     A
C419   C420    1.411   .     A
C419   O430    1.383   .     S
C420   N456    1.441   .     S
C421   O451    1.385   .     S
C423   C519    1.356   .     S
C423   N530    1.446   .     S
C425   C711    1.355   .     S
C425   N728    1.445   .     S
N427   O429    1.301   .     A
N427   O428    1.301   .     A
O430   C431    1.411   .     S
C431   H432    1.111   .     S
C431   H1288   1.114   1_554 S
C431   H1289   1.109   1_554 S
H433   C1286   1.114   .     S
H434   C1286   1.109   .     S
N435   O436    1.301   .     A
N435   O437    1.302   .     A
O438   C439    1.412   .     S
O438   C519    1.399   .     S
C439   H441    1.114   .     S
C439   H442    1.109   .     S
C439   H535    1.112   .     S
N443   O445    1.301   .     A
O444   N728    1.301   .     S
O446   C711    1.400   .     S
O446   C732    1.412   .     S
C447   H448    1.112   .     S
C447   H450    1.109   .     S
C447   H449    1.113   .     S
O451   C452    1.410   .     S
C452   H455    1.109   .     S
C452   H454    1.114   .     S
C452   H453    1.113   .     S
N456   O458    1.301   .     A
N456   O457    1.301   .     A
N459   O461    1.301   .     A
N459   O460    1.301   .     A
N462   O464    1.301   .     A
N462   O463    1.301   .     A
N465   O467    1.301   .     A
N465   O466    1.301   .     A
O468   C469    1.411   .     S
C469   H471    1.114   .     S
C469   H472    1.109   .     S
C469   H470    1.112   .     S
N473   O474    1.302   .     A
N473   O475    1.301   .     A
Zn476  O480    1.949   .     S
Zn476  O488    1.902   .     S
Zn476  O482    1.930   .     S
Zn476  O489    1.940   .     S
Zn477  O491    1.930   .     S
Zn477  O485    1.903   .     S
Zn477  O483    1.941   .     S
Zn477  O480    1.947   .     S
Zn478  O487    1.913   .     S
Zn478  O484    1.939   .     S
Zn478  O480    1.928   .     S
Zn478  O492    1.941   .     S
Zn479  O486    1.913   .     S
Zn479  O481    1.940   .     S
Zn479  O480    1.928   .     S
Zn479  O490    1.939   .     S
O481   C493    1.260   .     A
O482   C494    1.271   .     A
O483   C495    1.272   .     A
O484   C496    1.269   .     A
O485   C497    1.279   .     A
O486   C498    1.284   .     A
O487   C497    1.281   .     A
O488   C498    1.293   .     A
O489   C495    1.270   .     A
O490   C496    1.265   .     A
O491   C493    1.271   .     A
O492   C494    1.278   .     A
C493   C519    1.444   .     S
C494   C518    1.463   .     S
C495   C521    1.444   .     S
C496   C520    1.461   .     S
C497   C500    1.465   .     S
C498   C499    1.489   .     S
C499   C502    1.413   .     A
C499   C503    1.396   .     A
C500   C515    1.405   .     A
C500   C516    1.397   .     A
C501   C502    1.409   .     A
C501   N557    1.433   .     S
C501   C505    1.425   .     A
C502   N560    1.434   .     S
C503   C504    1.408   .     A
C503   H517    1.080   .     S
C504   C505    1.424   .     A
C504   C506    1.426   .     A
C505   C1364   1.421   .     S
C506   C510    1.422   .     A
C506   C1362   1.408   .     S
C507   C513    1.423   .     A
C507   C508    1.418   .     A
C507   C1361   1.408   1_554 S
C508   O563    1.385   .     S
C508   C509    1.401   .     A
C509   N522    1.432   .     S
C509   C1360   1.421   1_554 S
C510   C511    1.410   .     A
C510   N568    1.440   .     S
C511   N554    1.433   .     S
C511   C1367   1.419   .     S
C512   C513    1.422   .     A
C512   C514    1.425   .     A
C512   C1366   1.419   1_554 S
C513   C516    1.420   .     A
C514   C515    1.411   .     A
C514   O525    1.383   .     S
C515   N551    1.441   .     S
C516   O546    1.385   .     S
C518   C329    1.356   1_655 S
C518   N340    1.446   1_655 S
C520   C806    1.355   .     S
C520   N823    1.445   .     S
N522   O524    1.301   .     A
N522   O523    1.301   .     A
O525   C526    1.411   .     S
C526   H527    1.111   .     S
C526   H1383   1.114   1_554 S
C526   H1384   1.109   1_554 S
H528   C1381   1.114   .     S
H529   C1381   1.109   .     S
N530   O531    1.301   .     A
N530   O532    1.302   .     A
O533   C534    1.412   .     S
O533   C329    1.399   1_655 S
C534   H536    1.114   .     S
C534   H537    1.109   .     S
C534   H345    1.112   1_655 S
N538   O540    1.301   .     A
O539   N823    1.301   .     S
O541   C806    1.400   .     S
O541   C827    1.412   .     S
C542   H543    1.112   .     S
C542   H545    1.109   .     S
C542   H544    1.113   .     S
O546   C547    1.410   .     S
C547   H550    1.109   .     S
C547   H549    1.114   .     S
C547   H548    1.113   .     S
N551   O553    1.301   .     A
N551   O552    1.301   .     A
N554   O556    1.301   .     A
N554   O555    1.301   .     A
N557   O559    1.301   .     A
N557   O558    1.301   .     A
N560   O562    1.301   .     A
N560   O561    1.301   .     A
O563   C564    1.411   .     S
C564   H566    1.114   .     S
C564   H567    1.109   .     S
C564   H565    1.112   .     S
N568   O569    1.302   .     A
N568   O570    1.301   .     A
Zn571  O575    1.949   .     S
Zn571  O583    1.902   .     S
Zn571  O577    1.930   .     S
Zn571  O584    1.940   .     S
Zn572  O586    1.930   .     S
Zn572  O580    1.903   .     S
Zn572  O578    1.941   .     S
Zn572  O575    1.947   .     S
Zn573  O582    1.913   .     S
Zn573  O579    1.939   .     S
Zn573  O575    1.928   .     S
Zn573  O587    1.941   .     S
Zn574  O581    1.913   .     S
Zn574  O576    1.940   .     S
Zn574  O575    1.928   .     S
Zn574  O585    1.939   .     S
O576   C588    1.260   .     A
O577   C589    1.271   .     A
O578   C590    1.272   .     A
O579   C591    1.269   .     A
O580   C592    1.279   .     A
O581   C593    1.284   .     A
O582   C592    1.281   .     A
O583   C593    1.293   .     A
O584   C590    1.270   .     A
O585   C591    1.265   .     A
O586   C588    1.271   .     A
O587   C589    1.278   .     A
C588   C614    1.444   .     S
C589   C613    1.463   .     S
C590   C616    1.444   .     S
C591   C615    1.461   .     S
C592   C595    1.465   .     S
C593   C594    1.489   .     S
C594   C597    1.413   .     A
C594   C598    1.396   .     A
C595   C610    1.405   .     A
C595   C611    1.397   .     A
C596   C597    1.409   .     A
C596   N652    1.433   .     S
C596   C600    1.425   .     A
C597   N655    1.434   .     S
C598   C599    1.408   .     A
C598   H612    1.080   .     S
C599   C600    1.424   .     A
C599   C601    1.426   .     A
C600   C1459   1.421   .     S
C601   C605    1.422   .     A
C601   C1457   1.408   .     S
C602   C608    1.423   .     A
C602   C603    1.418   .     A
C602   C1456   1.408   1_554 S
C603   O658    1.385   .     S
C603   C604    1.401   .     A
C604   N617    1.432   .     S
C604   C1455   1.421   1_554 S
C605   C606    1.410   .     A
C605   N663    1.440   .     S
C606   N649    1.433   .     S
C606   C1462   1.419   .     S
C607   C608    1.422   .     A
C607   C609    1.425   .     A
C607   C1461   1.419   1_554 S
C608   C611    1.420   .     A
C609   C610    1.411   .     A
C609   O620    1.383   .     S
C610   N646    1.441   .     S
C611   O641    1.385   .     S
C613   C709    1.356   .     S
C613   N720    1.446   .     S
C614   C803    1.356   1_455 S
C614   O818    1.399   1_455 S
C615   C46     1.355   1_565 S
C615   N63     1.445   1_565 S
N617   O619    1.301   .     A
N617   O618    1.301   .     A
O620   C621    1.411   .     S
C621   H622    1.111   .     S
C621   H1478   1.114   1_554 S
C621   H1479   1.109   1_554 S
H623   C1476   1.114   .     S
H624   C1476   1.109   .     S
N625   O626    1.301   .     A
N625   O627    1.302   .     A
N625   C803    1.446   1_455 S
O628   C629    1.412   .     S
O628   C709    1.399   .     S
C629   H631    1.114   .     S
C629   H632    1.109   .     S
C629   H725    1.112   .     S
H630   C819    1.112   1_455 S
N633   O635    1.301   .     A
O634   N63     1.301   1_565 S
O636   C46     1.400   1_565 S
O636   C67     1.412   1_565 S
C637   H638    1.112   .     S
C637   H640    1.109   .     S
C637   H639    1.113   .     S
O641   C642    1.410   .     S
C642   H645    1.109   .     S
C642   H644    1.114   .     S
C642   H643    1.113   .     S
N646   O648    1.301   .     A
N646   O647    1.301   .     A
N649   O651    1.301   .     A
N649   O650    1.301   .     A
N652   O654    1.301   .     A
N652   O653    1.301   .     A
N655   O657    1.301   .     A
N655   O656    1.301   .     A
O658   C659    1.411   .     S
C659   H661    1.114   .     S
C659   H662    1.109   .     S
C659   H660    1.112   .     S
N663   O664    1.302   .     A
N663   O665    1.301   .     A
Zn666  O670    1.949   .     S
Zn666  O678    1.902   .     S
Zn666  O672    1.930   .     S
Zn666  O679    1.940   .     S
Zn667  O681    1.930   .     S
Zn667  O675    1.903   .     S
Zn667  O673    1.941   .     S
Zn667  O670    1.947   .     S
Zn668  O677    1.913   .     S
Zn668  O674    1.939   .     S
Zn668  O670    1.928   .     S
Zn668  O682    1.941   .     S
Zn669  O676    1.913   .     S
Zn669  O671    1.940   .     S
Zn669  O670    1.928   .     S
Zn669  O680    1.939   .     S
O671   C683    1.260   .     A
O672   C684    1.271   .     A
O673   C685    1.272   .     A
O674   C686    1.269   .     A
O675   C687    1.279   .     A
O676   C688    1.284   .     A
O677   C687    1.281   .     A
O678   C688    1.293   .     A
O679   C685    1.270   .     A
O680   C686    1.265   .     A
O681   C683    1.271   .     A
O682   C684    1.278   .     A
C683   C709    1.444   .     S
C684   C708    1.463   .     S
C685   C711    1.444   .     S
C686   C710    1.461   .     S
C687   C690    1.465   .     S
C688   C689    1.489   .     S
C689   C692    1.413   .     A
C689   C693    1.396   .     A
C690   C705    1.405   .     A
C690   C706    1.397   .     A
C691   C692    1.409   .     A
C691   N747    1.433   .     S
C691   C695    1.425   .     A
C692   N750    1.434   .     S
C693   C694    1.408   .     A
C693   H707    1.080   .     S
C694   C695    1.424   .     A
C694   C696    1.426   .     A
C695   C1554   1.421   .     S
C696   C700    1.422   .     A
C696   C1552   1.408   .     S
C697   C703    1.423   .     A
C697   C698    1.418   .     A
C697   C1551   1.408   1_554 S
C698   O753    1.385   .     S
C698   C699    1.401   .     A
C699   N712    1.432   .     S
C699   C1550   1.421   1_554 S
C700   C701    1.410   .     A
C700   N758    1.440   .     S
C701   N744    1.433   .     S
C701   C1557   1.419   .     S
C702   C703    1.422   .     A
C702   C704    1.425   .     A
C702   C1556   1.419   1_554 S
C703   C706    1.420   .     A
C704   C705    1.411   .     A
C704   O715    1.383   .     S
C705   N741    1.441   .     S
C706   O736    1.385   .     S
C708   C804    1.356   .     S
C708   N815    1.446   .     S
C710   C141    1.355   1_565 S
C710   N158    1.445   1_565 S
N712   O714    1.301   .     A
N712   O713    1.301   .     A
O715   C716    1.411   .     S
C716   H717    1.111   .     S
C716   H1573   1.114   1_554 S
C716   H1574   1.109   1_554 S
H718   C1571   1.114   .     S
H719   C1571   1.109   .     S
N720   O721    1.301   .     A
N720   O722    1.302   .     A
O723   C724    1.412   .     S
O723   C804    1.399   .     S
C724   H726    1.114   .     S
C724   H727    1.109   .     S
C724   H820    1.112   .     S
N728   O730    1.301   .     A
O729   N158    1.301   1_565 S
O731   C141    1.400   1_565 S
O731   C162    1.412   1_565 S
C732   H733    1.112   .     S
C732   H735    1.109   .     S
C732   H734    1.113   .     S
O736   C737    1.410   .     S
C737   H740    1.109   .     S
C737   H739    1.114   .     S
C737   H738    1.113   .     S
N741   O743    1.301   .     A
N741   O742    1.301   .     A
N744   O746    1.301   .     A
N744   O745    1.301   .     A
N747   O749    1.301   .     A
N747   O748    1.301   .     A
N750   O752    1.301   .     A
N750   O751    1.301   .     A
O753   C754    1.411   .     S
C754   H756    1.114   .     S
C754   H757    1.109   .     S
C754   H755    1.112   .     S
N758   O759    1.302   .     A
N758   O760    1.301   .     A
Zn761  O765    1.949   .     S
Zn761  O773    1.902   .     S
Zn761  O767    1.930   .     S
Zn761  O774    1.940   .     S
Zn762  O776    1.930   .     S
Zn762  O770    1.903   .     S
Zn762  O768    1.941   .     S
Zn762  O765    1.947   .     S
Zn763  O772    1.913   .     S
Zn763  O769    1.939   .     S
Zn763  O765    1.928   .     S
Zn763  O777    1.941   .     S
Zn764  O771    1.913   .     S
Zn764  O766    1.940   .     S
Zn764  O765    1.928   .     S
Zn764  O775    1.939   .     S
O766   C778    1.260   .     A
O767   C779    1.271   .     A
O768   C780    1.272   .     A
O769   C781    1.269   .     A
O770   C782    1.279   .     A
O771   C783    1.284   .     A
O772   C782    1.281   .     A
O773   C783    1.293   .     A
O774   C780    1.270   .     A
O775   C781    1.265   .     A
O776   C778    1.271   .     A
O777   C779    1.278   .     A
C778   C804    1.444   .     S
C779   C803    1.463   .     S
C780   C806    1.444   .     S
C781   C805    1.461   .     S
C782   C785    1.465   .     S
C783   C784    1.489   .     S
C784   C787    1.413   .     A
C784   C788    1.396   .     A
C785   C800    1.405   .     A
C785   C801    1.397   .     A
C786   C787    1.409   .     A
C786   N842    1.433   .     S
C786   C790    1.425   .     A
C787   N845    1.434   .     S
C788   C789    1.408   .     A
C788   H802    1.080   .     S
C789   C790    1.424   .     A
C789   C791    1.426   .     A
C790   C1649   1.421   .     S
C791   C795    1.422   .     A
C791   C1647   1.408   .     S
C792   C798    1.423   .     A
C792   C793    1.418   .     A
C792   C1646   1.408   1_554 S
C793   O848    1.385   .     S
C793   C794    1.401   .     A
C794   N807    1.432   .     S
C794   C1645   1.421   1_554 S
C795   C796    1.410   .     A
C795   N853    1.440   .     S
C796   N839    1.433   .     S
C796   C1652   1.419   .     S
C797   C798    1.422   .     A
C797   C799    1.425   .     A
C797   C1651   1.419   1_554 S
C798   C801    1.420   .     A
C799   C800    1.411   .     A
C799   O810    1.383   .     S
C800   N836    1.441   .     S
C801   O831    1.385   .     S
C803   C614    1.356   1_655 S
C803   N625    1.446   1_655 S
C805   C236    1.355   1_565 S
C805   N253    1.445   1_565 S
N807   O809    1.301   .     A
N807   O808    1.301   .     A
O810   C811    1.411   .     S
C811   H812    1.111   .     S
C811   H1668   1.114   1_554 S
C811   H1669   1.109   1_554 S
H813   C1666   1.114   .     S
H814   C1666   1.109   .     S
N815   O816    1.301   .     A
N815   O817    1.302   .     A
O818   C819    1.412   .     S
O818   C614    1.399   1_655 S
C819   H821    1.114   .     S
C819   H822    1.109   .     S
C819   H630    1.112   1_655 S
N823   O825    1.301   .     A
O824   N253    1.301   1_565 S
O826   C236    1.400   1_565 S
O826   C257    1.412   1_565 S
C827   H828    1.112   .     S
C827   H830    1.109   .     S
C827   H829    1.113   .     S
O831   C832    1.410   .     S
C832   H835    1.109   .     S
C832   H834    1.114   .     S
C832   H833    1.113   .     S
N836   O838    1.301   .     A
N836   O837    1.301   .     A
N839   O841    1.301   .     A
N839   O840    1.301   .     A
N842   O844    1.301   .     A
N842   O843    1.301   .     A
N845   O847    1.301   .     A
N845   O846    1.301   .     A
O848   C849    1.411   .     S
C849   H851    1.114   .     S
C849   H852    1.109   .     S
C849   H850    1.112   .     S
N853   O854    1.302   .     A
N853   O855    1.301   .     A
Zn856  O860    1.949   .     S
Zn856  O868    1.902   .     S
Zn856  O862    1.930   .     S
Zn856  O869    1.940   .     S
Zn857  O871    1.930   .     S
Zn857  O865    1.903   .     S
Zn857  O863    1.941   .     S
Zn857  O860    1.947   .     S
Zn858  O867    1.913   .     S
Zn858  O864    1.939   .     S
Zn858  O860    1.928   .     S
Zn858  O872    1.941   .     S
Zn859  O866    1.913   .     S
Zn859  O861    1.940   .     S
Zn859  O860    1.928   .     S
Zn859  O870    1.939   .     S
O861   C873    1.260   .     A
O862   C874    1.271   .     A
O863   C875    1.272   .     A
O864   C876    1.269   .     A
O865   C877    1.279   .     A
O866   C878    1.284   .     A
O867   C877    1.281   .     A
O868   C878    1.293   .     A
O869   C875    1.270   .     A
O870   C876    1.265   .     A
O871   C873    1.271   .     A
O872   C874    1.278   .     A
C873   C899    1.444   .     S
C874   C898    1.463   .     S
C875   C901    1.444   .     S
C876   C900    1.461   .     S
C877   C880    1.465   .     S
C878   C879    1.489   .     S
C879   C882    1.413   .     A
C879   C883    1.396   .     A
C880   C895    1.405   .     A
C880   C896    1.397   .     A
C881   C882    1.409   .     A
C881   N937    1.433   .     S
C881   C885    1.425   .     A
C882   N940    1.434   .     S
C883   C884    1.408   .     A
C883   H897    1.080   .     S
C884   C885    1.424   .     A
C884   C886    1.426   .     A
C885   C34     1.421   1_556 S
C886   C890    1.422   .     A
C886   C32     1.408   1_556 S
C887   C893    1.423   .     A
C887   C888    1.418   .     A
C888   O943    1.385   .     S
C888   C889    1.401   .     A
C889   N902    1.432   .     S
C890   C891    1.410   .     A
C890   N948    1.440   .     S
C891   N934    1.433   .     S
C891   C37     1.419   1_556 S
C892   C893    1.422   .     A
C892   C894    1.425   .     A
C893   C896    1.420   .     A
C894   C895    1.411   .     A
C894   O905    1.383   .     S
C895   N931    1.441   .     S
C896   O926    1.385   .     S
C898   C994    1.356   .     S
C898   N1005   1.446   .     S
C899   C1088   1.356   1_455 S
C899   O1103   1.399   1_455 S
C900   C1186   1.355   .     S
C900   N1203   1.445   .     S
C901   C1470   1.355   1_545 S
C901   O1491   1.400   1_545 S
N902   O904    1.301   .     A
N902   O903    1.301   .     A
O905   C906    1.411   .     S
C906   H907    1.111   .     S
H908   C51     1.114   1_556 S
H909   C51     1.109   1_556 S
N910   O911    1.301   .     A
N910   O912    1.302   .     A
N910   C1088   1.446   1_455 S
O913   C914    1.412   .     S
O913   C994    1.399   .     S
C914   H916    1.114   .     S
C914   H917    1.109   .     S
C914   H1010   1.112   .     S
H915   C1104   1.112   1_455 S
N918   O920    1.301   .     A
N918   C1470   1.445   1_545 S
N918   O1489   1.301   1_545 S
O919   N1203   1.301   .     S
O921   C1186   1.400   .     S
O921   C1207   1.412   .     S
C922   H923    1.112   .     S
C922   H925    1.109   .     S
C922   H924    1.113   .     S
C922   O1491   1.412   1_545 S
O926   C927    1.410   .     S
C927   H930    1.109   .     S
C927   H929    1.114   .     S
C927   H928    1.113   .     S
N931   O933    1.301   .     A
N931   O932    1.301   .     A
N934   O936    1.301   .     A
N934   O935    1.301   .     A
N937   O939    1.301   .     A
N937   O938    1.301   .     A
N940   O942    1.301   .     A
N940   O941    1.301   .     A
O943   C944    1.411   .     S
C944   H946    1.114   .     S
C944   H947    1.109   .     S
C944   H945    1.112   .     S
N948   O949    1.302   .     A
N948   O950    1.301   .     A
Zn951  O955    1.949   .     S
Zn951  O963    1.902   .     S
Zn951  O957    1.930   .     S
Zn951  O964    1.940   .     S
Zn952  O966    1.930   .     S
Zn952  O960    1.903   .     S
Zn952  O958    1.941   .     S
Zn952  O955    1.947   .     S
Zn953  O962    1.913   .     S
Zn953  O959    1.939   .     S
Zn953  O955    1.928   .     S
Zn953  O967    1.941   .     S
Zn954  O961    1.913   .     S
Zn954  O956    1.940   .     S
Zn954  O955    1.928   .     S
Zn954  O965    1.939   .     S
O956   C968    1.260   .     A
O957   C969    1.271   .     A
O958   C970    1.272   .     A
O959   C971    1.269   .     A
O960   C972    1.279   .     A
O961   C973    1.284   .     A
O962   C972    1.281   .     A
O963   C973    1.293   .     A
O964   C970    1.270   .     A
O965   C971    1.265   .     A
O966   C968    1.271   .     A
O967   C969    1.278   .     A
C968   C994    1.444   .     S
C969   C993    1.463   .     S
C970   C996    1.444   .     S
C971   C995    1.461   .     S
C972   C975    1.465   .     S
C973   C974    1.489   .     S
C974   C977    1.413   .     A
C974   C978    1.396   .     A
C975   C990    1.405   .     A
C975   C991    1.397   .     A
C976   C977    1.409   .     A
C976   N1032   1.433   .     S
C976   C980    1.425   .     A
C977   N1035   1.434   .     S
C978   C979    1.408   .     A
C978   H992    1.080   .     S
C979   C980    1.424   .     A
C979   C981    1.426   .     A
C980   C129    1.421   1_556 S
C981   C985    1.422   .     A
C981   C127    1.408   1_556 S
C982   C988    1.423   .     A
C982   C983    1.418   .     A
C983   O1038   1.385   .     S
C983   C984    1.401   .     A
C984   N997    1.432   .     S
C985   C986    1.410   .     A
C985   N1043   1.440   .     S
C986   N1029   1.433   .     S
C986   C132    1.419   1_556 S
C987   C988    1.422   .     A
C987   C989    1.425   .     A
C988   C991    1.420   .     A
C989   C990    1.411   .     A
C989   O1000   1.383   .     S
C990   N1026   1.441   .     S
C991   O1021   1.385   .     S
C993   C1089   1.356   .     S
C993   N1100   1.446   .     S
C995   C1281   1.355   .     S
C995   N1298   1.445   .     S
C996   C1565   1.355   1_545 S
C996   O1586   1.400   1_545 S
N997   O999    1.301   .     A
N997   O998    1.301   .     A
O1000  C1001   1.411   .     S
C1001  H1002   1.111   .     S
H1003  C146    1.114   1_556 S
H1004  C146    1.109   1_556 S
N1005  O1006   1.301   .     A
N1005  O1007   1.302   .     A
O1008  C1009   1.412   .     S
O1008  C1089   1.399   .     S
C1009  H1011   1.114   .     S
C1009  H1012   1.109   .     S
C1009  H1105   1.112   .     S
N1013  O1015   1.301   .     A
N1013  C1565   1.445   1_545 S
N1013  O1584   1.301   1_545 S
O1014  N1298   1.301   .     S
O1016  C1281   1.400   .     S
O1016  C1302   1.412   .     S
C1017  H1018   1.112   .     S
C1017  H1020   1.109   .     S
C1017  H1019   1.113   .     S
C1017  O1586   1.412   1_545 S
O1021  C1022   1.410   .     S
C1022  H1025   1.109   .     S
C1022  H1024   1.114   .     S
C1022  H1023   1.113   .     S
N1026  O1028   1.301   .     A
N1026  O1027   1.301   .     A
N1029  O1031   1.301   .     A
N1029  O1030   1.301   .     A
N1032  O1034   1.301   .     A
N1032  O1033   1.301   .     A
N1035  O1037   1.301   .     A
N1035  O1036   1.301   .     A
O1038  C1039   1.411   .     S
C1039  H1041   1.114   .     S
C1039  H1042   1.109   .     S
C1039  H1040   1.112   .     S
N1043  O1044   1.302   .     A
N1043  O1045   1.301   .     A
Zn1046 O1050   1.949   .     S
Zn1046 O1058   1.902   .     S
Zn1046 O1052   1.930   .     S
Zn1046 O1059   1.940   .     S
Zn1047 O1061   1.930   .     S
Zn1047 O1055   1.903   .     S
Zn1047 O1053   1.941   .     S
Zn1047 O1050   1.947   .     S
Zn1048 O1057   1.913   .     S
Zn1048 O1054   1.939   .     S
Zn1048 O1050   1.928   .     S
Zn1048 O1062   1.941   .     S
Zn1049 O1056   1.913   .     S
Zn1049 O1051   1.940   .     S
Zn1049 O1050   1.928   .     S
Zn1049 O1060   1.939   .     S
O1051  C1063   1.260   .     A
O1052  C1064   1.271   .     A
O1053  C1065   1.272   .     A
O1054  C1066   1.269   .     A
O1055  C1067   1.279   .     A
O1056  C1068   1.284   .     A
O1057  C1067   1.281   .     A
O1058  C1068   1.293   .     A
O1059  C1065   1.270   .     A
O1060  C1066   1.265   .     A
O1061  C1063   1.271   .     A
O1062  C1064   1.278   .     A
C1063  C1089   1.444   .     S
C1064  C1088   1.463   .     S
C1065  C1091   1.444   .     S
C1066  C1090   1.461   .     S
C1067  C1070   1.465   .     S
C1068  C1069   1.489   .     S
C1069  C1072   1.413   .     A
C1069  C1073   1.396   .     A
C1070  C1085   1.405   .     A
C1070  C1086   1.397   .     A
C1071  C1072   1.409   .     A
C1071  N1127   1.433   .     S
C1071  C1075   1.425   .     A
C1072  N1130   1.434   .     S
C1073  C1074   1.408   .     A
C1073  H1087   1.080   .     S
C1074  C1075   1.424   .     A
C1074  C1076   1.426   .     A
C1075  C224    1.421   1_556 S
C1076  C1080   1.422   .     A
C1076  C222    1.408   1_556 S
C1077  C1083   1.423   .     A
C1077  C1078   1.418   .     A
C1078  O1133   1.385   .     S
C1078  C1079   1.401   .     A
C1079  N1092   1.432   .     S
C1080  C1081   1.410   .     A
C1080  N1138   1.440   .     S
C1081  N1124   1.433   .     S
C1081  C227    1.419   1_556 S
C1082  C1083   1.422   .     A
C1082  C1084   1.425   .     A
C1083  C1086   1.420   .     A
C1084  C1085   1.411   .     A
C1084  O1095   1.383   .     S
C1085  N1121   1.441   .     S
C1086  O1116   1.385   .     S
C1088  C899    1.356   1_655 S
C1088  N910    1.446   1_655 S
C1090  C1376   1.355   .     S
C1090  N1393   1.445   .     S
C1091  C1660   1.355   1_545 S
C1091  O1681   1.400   1_545 S
N1092  O1094   1.301   .     A
N1092  O1093   1.301   .     A
O1095  C1096   1.411   .     S
C1096  H1097   1.111   .     S
H1098  C241    1.114   1_556 S
H1099  C241    1.109   1_556 S
N1100  O1101   1.301   .     A
N1100  O1102   1.302   .     A
O1103  C1104   1.412   .     S
O1103  C899    1.399   1_655 S
C1104  H1106   1.114   .     S
C1104  H1107   1.109   .     S
C1104  H915    1.112   1_655 S
N1108  O1110   1.301   .     A
N1108  C1660   1.445   1_545 S
N1108  O1679   1.301   1_545 S
O1109  N1393   1.301   .     S
O1111  C1376   1.400   .     S
O1111  C1397   1.412   .     S
C1112  H1113   1.112   .     S
C1112  H1115   1.109   .     S
C1112  H1114   1.113   .     S
C1112  O1681   1.412   1_545 S
O1116  C1117   1.410   .     S
C1117  H1120   1.109   .     S
C1117  H1119   1.114   .     S
C1117  H1118   1.113   .     S
N1121  O1123   1.301   .     A
N1121  O1122   1.301   .     A
N1124  O1126   1.301   .     A
N1124  O1125   1.301   .     A
N1127  O1129   1.301   .     A
N1127  O1128   1.301   .     A
N1130  O1132   1.301   .     A
N1130  O1131   1.301   .     A
O1133  C1134   1.411   .     S
C1134  H1136   1.114   .     S
C1134  H1137   1.109   .     S
C1134  H1135   1.112   .     S
N1138  O1139   1.302   .     A
N1138  O1140   1.301   .     A
Zn1141 O1145   1.949   .     S
Zn1141 O1153   1.902   .     S
Zn1141 O1147   1.930   .     S
Zn1141 O1154   1.940   .     S
Zn1142 O1156   1.930   .     S
Zn1142 O1150   1.903   .     S
Zn1142 O1148   1.941   .     S
Zn1142 O1145   1.947   .     S
Zn1143 O1152   1.913   .     S
Zn1143 O1149   1.939   .     S
Zn1143 O1145   1.928   .     S
Zn1143 O1157   1.941   .     S
Zn1144 O1151   1.913   .     S
Zn1144 O1146   1.940   .     S
Zn1144 O1145   1.928   .     S
Zn1144 O1155   1.939   .     S
O1146  C1158   1.260   .     A
O1147  C1159   1.271   .     A
O1148  C1160   1.272   .     A
O1149  C1161   1.269   .     A
O1150  C1162   1.279   .     A
O1151  C1163   1.284   .     A
O1152  C1162   1.281   .     A
O1153  C1163   1.293   .     A
O1154  C1160   1.270   .     A
O1155  C1161   1.265   .     A
O1156  C1158   1.271   .     A
O1157  C1159   1.278   .     A
C1158  C1184   1.444   .     S
C1159  C1183   1.463   .     S
C1160  C1186   1.444   .     S
C1161  C1185   1.461   .     S
C1162  C1165   1.465   .     S
C1163  C1164   1.489   .     S
C1164  C1167   1.413   .     A
C1164  C1168   1.396   .     A
C1165  C1180   1.405   .     A
C1165  C1181   1.397   .     A
C1166  C1167   1.409   .     A
C1166  N1222   1.433   .     S
C1166  C1170   1.425   .     A
C1167  N1225   1.434   .     S
C1168  C1169   1.408   .     A
C1168  H1182   1.080   .     S
C1169  C1170   1.424   .     A
C1169  C1171   1.426   .     A
C1170  C319    1.421   1_556 S
C1171  C1175   1.422   .     A
C1171  C317    1.408   1_556 S
C1172  C1178   1.423   .     A
C1172  C1173   1.418   .     A
C1173  O1228   1.385   .     S
C1173  C1174   1.401   .     A
C1174  N1187   1.432   .     S
C1175  C1176   1.410   .     A
C1175  N1233   1.440   .     S
C1176  N1219   1.433   .     S
C1176  C322    1.419   1_556 S
C1177  C1178   1.422   .     A
C1177  C1179   1.425   .     A
C1178  C1181   1.420   .     A
C1179  C1180   1.411   .     A
C1179  O1190   1.383   .     S
C1180  N1216   1.441   .     S
C1181  O1211   1.385   .     S
C1183  C1279   1.356   .     S
C1183  N1290   1.446   .     S
C1184  C1373   1.356   1_455 S
C1184  O1388   1.399   1_455 S
C1185  C1471   1.355   .     S
C1185  N1488   1.445   .     S
N1187  O1189   1.301   .     A
N1187  O1188   1.301   .     A
O1190  C1191   1.411   .     S
C1191  H1192   1.111   .     S
H1193  C336    1.114   1_556 S
H1194  C336    1.109   1_556 S
N1195  O1196   1.301   .     A
N1195  O1197   1.302   .     A
N1195  C1373   1.446   1_455 S
O1198  C1199   1.412   .     S
O1198  C1279   1.399   .     S
C1199  H1201   1.114   .     S
C1199  H1202   1.109   .     S
C1199  H1295   1.112   .     S
H1200  C1389   1.112   1_455 S
N1203  O1205   1.301   .     A
O1204  N1488   1.301   .     S
O1206  C1471   1.400   .     S
O1206  C1492   1.412   .     S
C1207  H1208   1.112   .     S
C1207  H1210   1.109   .     S
C1207  H1209   1.113   .     S
O1211  C1212   1.410   .     S
C1212  H1215   1.109   .     S
C1212  H1214   1.114   .     S
C1212  H1213   1.113   .     S
N1216  O1218   1.301   .     A
N1216  O1217   1.301   .     A
N1219  O1221   1.301   .     A
N1219  O1220   1.301   .     A
N1222  O1224   1.301   .     A
N1222  O1223   1.301   .     A
N1225  O1227   1.301   .     A
N1225  O1226   1.301   .     A
O1228  C1229   1.411   .     S
C1229  H1231   1.114   .     S
C1229  H1232   1.109   .     S
C1229  H1230   1.112   .     S
N1233  O1234   1.302   .     A
N1233  O1235   1.301   .     A
Zn1236 O1240   1.949   .     S
Zn1236 O1248   1.902   .     S
Zn1236 O1242   1.930   .     S
Zn1236 O1249   1.940   .     S
Zn1237 O1251   1.930   .     S
Zn1237 O1245   1.903   .     S
Zn1237 O1243   1.941   .     S
Zn1237 O1240   1.947   .     S
Zn1238 O1247   1.913   .     S
Zn1238 O1244   1.939   .     S
Zn1238 O1240   1.928   .     S
Zn1238 O1252   1.941   .     S
Zn1239 O1246   1.913   .     S
Zn1239 O1241   1.940   .     S
Zn1239 O1240   1.928   .     S
Zn1239 O1250   1.939   .     S
O1241  C1253   1.260   .     A
O1242  C1254   1.271   .     A
O1243  C1255   1.272   .     A
O1244  C1256   1.269   .     A
O1245  C1257   1.279   .     A
O1246  C1258   1.284   .     A
O1247  C1257   1.281   .     A
O1248  C1258   1.293   .     A
O1249  C1255   1.270   .     A
O1250  C1256   1.265   .     A
O1251  C1253   1.271   .     A
O1252  C1254   1.278   .     A
C1253  C1279   1.444   .     S
C1254  C1278   1.463   .     S
C1255  C1281   1.444   .     S
C1256  C1280   1.461   .     S
C1257  C1260   1.465   .     S
C1258  C1259   1.489   .     S
C1259  C1262   1.413   .     A
C1259  C1263   1.396   .     A
C1260  C1275   1.405   .     A
C1260  C1276   1.397   .     A
C1261  C1262   1.409   .     A
C1261  N1317   1.433   .     S
C1261  C1265   1.425   .     A
C1262  N1320   1.434   .     S
C1263  C1264   1.408   .     A
C1263  H1277   1.080   .     S
C1264  C1265   1.424   .     A
C1264  C1266   1.426   .     A
C1265  C414    1.421   1_556 S
C1266  C1270   1.422   .     A
C1266  C412    1.408   1_556 S
C1267  C1273   1.423   .     A
C1267  C1268   1.418   .     A
C1268  O1323   1.385   .     S
C1268  C1269   1.401   .     A
C1269  N1282   1.432   .     S
C1270  C1271   1.410   .     A
C1270  N1328   1.440   .     S
C1271  N1314   1.433   .     S
C1271  C417    1.419   1_556 S
C1272  C1273   1.422   .     A
C1272  C1274   1.425   .     A
C1273  C1276   1.420   .     A
C1274  C1275   1.411   .     A
C1274  O1285   1.383   .     S
C1275  N1311   1.441   .     S
C1276  O1306   1.385   .     S
C1278  C1374   1.356   .     S
C1278  N1385   1.446   .     S
C1280  C1566   1.355   .     S
C1280  N1583   1.445   .     S
N1282  O1284   1.301   .     A
N1282  O1283   1.301   .     A
O1285  C1286   1.411   .     S
C1286  H1287   1.111   .     S
H1288  C431    1.114   1_556 S
H1289  C431    1.109   1_556 S
N1290  O1291   1.301   .     A
N1290  O1292   1.302   .     A
O1293  C1294   1.412   .     S
O1293  C1374   1.399   .     S
C1294  H1296   1.114   .     S
C1294  H1297   1.109   .     S
C1294  H1390   1.112   .     S
N1298  O1300   1.301   .     A
O1299  N1583   1.301   .     S
O1301  C1566   1.400   .     S
O1301  C1587   1.412   .     S
C1302  H1303   1.112   .     S
C1302  H1305   1.109   .     S
C1302  H1304   1.113   .     S
O1306  C1307   1.410   .     S
C1307  H1310   1.109   .     S
C1307  H1309   1.114   .     S
C1307  H1308   1.113   .     S
N1311  O1313   1.301   .     A
N1311  O1312   1.301   .     A
N1314  O1316   1.301   .     A
N1314  O1315   1.301   .     A
N1317  O1319   1.301   .     A
N1317  O1318   1.301   .     A
N1320  O1322   1.301   .     A
N1320  O1321   1.301   .     A
O1323  C1324   1.411   .     S
C1324  H1326   1.114   .     S
C1324  H1327   1.109   .     S
C1324  H1325   1.112   .     S
N1328  O1329   1.302   .     A
N1328  O1330   1.301   .     A
Zn1331 O1335   1.949   .     S
Zn1331 O1343   1.902   .     S
Zn1331 O1337   1.930   .     S
Zn1331 O1344   1.940   .     S
Zn1332 O1346   1.930   .     S
Zn1332 O1340   1.903   .     S
Zn1332 O1338   1.941   .     S
Zn1332 O1335   1.947   .     S
Zn1333 O1342   1.913   .     S
Zn1333 O1339   1.939   .     S
Zn1333 O1335   1.928   .     S
Zn1333 O1347   1.941   .     S
Zn1334 O1341   1.913   .     S
Zn1334 O1336   1.940   .     S
Zn1334 O1335   1.928   .     S
Zn1334 O1345   1.939   .     S
O1336  C1348   1.260   .     A
O1337  C1349   1.271   .     A
O1338  C1350   1.272   .     A
O1339  C1351   1.269   .     A
O1340  C1352   1.279   .     A
O1341  C1353   1.284   .     A
O1342  C1352   1.281   .     A
O1343  C1353   1.293   .     A
O1344  C1350   1.270   .     A
O1345  C1351   1.265   .     A
O1346  C1348   1.271   .     A
O1347  C1349   1.278   .     A
C1348  C1374   1.444   .     S
C1349  C1373   1.463   .     S
C1350  C1376   1.444   .     S
C1351  C1375   1.461   .     S
C1352  C1355   1.465   .     S
C1353  C1354   1.489   .     S
C1354  C1357   1.413   .     A
C1354  C1358   1.396   .     A
C1355  C1370   1.405   .     A
C1355  C1371   1.397   .     A
C1356  C1357   1.409   .     A
C1356  N1412   1.433   .     S
C1356  C1360   1.425   .     A
C1357  N1415   1.434   .     S
C1358  C1359   1.408   .     A
C1358  H1372   1.080   .     S
C1359  C1360   1.424   .     A
C1359  C1361   1.426   .     A
C1360  C509    1.421   1_556 S
C1361  C1365   1.422   .     A
C1361  C507    1.408   1_556 S
C1362  C1368   1.423   .     A
C1362  C1363   1.418   .     A
C1363  O1418   1.385   .     S
C1363  C1364   1.401   .     A
C1364  N1377   1.432   .     S
C1365  C1366   1.410   .     A
C1365  N1423   1.440   .     S
C1366  N1409   1.433   .     S
C1366  C512    1.419   1_556 S
C1367  C1368   1.422   .     A
C1367  C1369   1.425   .     A
C1368  C1371   1.420   .     A
C1369  C1370   1.411   .     A
C1369  O1380   1.383   .     S
C1370  N1406   1.441   .     S
C1371  O1401   1.385   .     S
C1373  C1184   1.356   1_655 S
C1373  N1195   1.446   1_655 S
C1375  C1661   1.355   .     S
C1375  N1678   1.445   .     S
N1377  O1379   1.301   .     A
N1377  O1378   1.301   .     A
O1380  C1381   1.411   .     S
C1381  H1382   1.111   .     S
H1383  C526    1.114   1_556 S
H1384  C526    1.109   1_556 S
N1385  O1386   1.301   .     A
N1385  O1387   1.302   .     A
O1388  C1389   1.412   .     S
O1388  C1184   1.399   1_655 S
C1389  H1391   1.114   .     S
C1389  H1392   1.109   .     S
C1389  H1200   1.112   1_655 S
N1393  O1395   1.301   .     A
O1394  N1678   1.301   .     S
O1396  C1661   1.400   .     S
O1396  C1682   1.412   .     S
C1397  H1398   1.112   .     S
C1397  H1400   1.109   .     S
C1397  H1399   1.113   .     S
O1401  C1402   1.410   .     S
C1402  H1405   1.109   .     S
C1402  H1404   1.114   .     S
C1402  H1403   1.113   .     S
N1406  O1408   1.301   .     A
N1406  O1407   1.301   .     A
N1409  O1411   1.301   .     A
N1409  O1410   1.301   .     A
N1412  O1414   1.301   .     A
N1412  O1413   1.301   .     A
N1415  O1417   1.301   .     A
N1415  O1416   1.301   .     A
O1418  C1419   1.411   .     S
C1419  H1421   1.114   .     S
C1419  H1422   1.109   .     S
C1419  H1420   1.112   .     S
N1423  O1424   1.302   .     A
N1423  O1425   1.301   .     A
Zn1426 O1430   1.949   .     S
Zn1426 O1438   1.902   .     S
Zn1426 O1432   1.930   .     S
Zn1426 O1439   1.940   .     S
Zn1427 O1441   1.930   .     S
Zn1427 O1435   1.903   .     S
Zn1427 O1433   1.941   .     S
Zn1427 O1430   1.947   .     S
Zn1428 O1437   1.913   .     S
Zn1428 O1434   1.939   .     S
Zn1428 O1430   1.928   .     S
Zn1428 O1442   1.941   .     S
Zn1429 O1436   1.913   .     S
Zn1429 O1431   1.940   .     S
Zn1429 O1430   1.928   .     S
Zn1429 O1440   1.939   .     S
O1431  C1443   1.260   .     A
O1432  C1444   1.271   .     A
O1433  C1445   1.272   .     A
O1434  C1446   1.269   .     A
O1435  C1447   1.279   .     A
O1436  C1448   1.284   .     A
O1437  C1447   1.281   .     A
O1438  C1448   1.293   .     A
O1439  C1445   1.270   .     A
O1440  C1446   1.265   .     A
O1441  C1443   1.271   .     A
O1442  C1444   1.278   .     A
C1443  C1469   1.444   .     S
C1444  C1468   1.463   .     S
C1445  C1471   1.444   .     S
C1446  C1470   1.461   .     S
C1447  C1450   1.465   .     S
C1448  C1449   1.489   .     S
C1449  C1452   1.413   .     A
C1449  C1453   1.396   .     A
C1450  C1465   1.405   .     A
C1450  C1466   1.397   .     A
C1451  C1452   1.409   .     A
C1451  N1507   1.433   .     S
C1451  C1455   1.425   .     A
C1452  N1510   1.434   .     S
C1453  C1454   1.408   .     A
C1453  H1467   1.080   .     S
C1454  C1455   1.424   .     A
C1454  C1456   1.426   .     A
C1455  C604    1.421   1_556 S
C1456  C1460   1.422   .     A
C1456  C602    1.408   1_556 S
C1457  C1463   1.423   .     A
C1457  C1458   1.418   .     A
C1458  O1513   1.385   .     S
C1458  C1459   1.401   .     A
C1459  N1472   1.432   .     S
C1460  C1461   1.410   .     A
C1460  N1518   1.440   .     S
C1461  N1504   1.433   .     S
C1461  C607    1.419   1_556 S
C1462  C1463   1.422   .     A
C1462  C1464   1.425   .     A
C1463  C1466   1.420   .     A
C1464  C1465   1.411   .     A
C1464  O1475   1.383   .     S
C1465  N1501   1.441   .     S
C1466  O1496   1.385   .     S
C1468  C1564   1.356   .     S
C1468  N1575   1.446   .     S
C1469  C1658   1.356   1_455 S
C1469  O1673   1.399   1_455 S
C1470  C901    1.355   1_565 S
C1470  N918    1.445   1_565 S
N1472  O1474   1.301   .     A
N1472  O1473   1.301   .     A
O1475  C1476   1.411   .     S
C1476  H1477   1.111   .     S
H1478  C621    1.114   1_556 S
H1479  C621    1.109   1_556 S
N1480  O1481   1.301   .     A
N1480  O1482   1.302   .     A
N1480  C1658   1.446   1_455 S
O1483  C1484   1.412   .     S
O1483  C1564   1.399   .     S
C1484  H1486   1.114   .     S
C1484  H1487   1.109   .     S
C1484  H1580   1.112   .     S
H1485  C1674   1.112   1_455 S
N1488  O1490   1.301   .     A
O1489  N918    1.301   1_565 S
O1491  C901    1.400   1_565 S
O1491  C922    1.412   1_565 S
C1492  H1493   1.112   .     S
C1492  H1495   1.109   .     S
C1492  H1494   1.113   .     S
O1496  C1497   1.410   .     S
C1497  H1500   1.109   .     S
C1497  H1499   1.114   .     S
C1497  H1498   1.113   .     S
N1501  O1503   1.301   .     A
N1501  O1502   1.301   .     A
N1504  O1506   1.301   .     A
N1504  O1505   1.301   .     A
N1507  O1509   1.301   .     A
N1507  O1508   1.301   .     A
N1510  O1512   1.301   .     A
N1510  O1511   1.301   .     A
O1513  C1514   1.411   .     S
C1514  H1516   1.114   .     S
C1514  H1517   1.109   .     S
C1514  H1515   1.112   .     S
N1518  O1519   1.302   .     A
N1518  O1520   1.301   .     A
Zn1521 O1525   1.949   .     S
Zn1521 O1533   1.902   .     S
Zn1521 O1527   1.930   .     S
Zn1521 O1534   1.940   .     S
Zn1522 O1536   1.930   .     S
Zn1522 O1530   1.903   .     S
Zn1522 O1528   1.941   .     S
Zn1522 O1525   1.947   .     S
Zn1523 O1532   1.913   .     S
Zn1523 O1529   1.939   .     S
Zn1523 O1525   1.928   .     S
Zn1523 O1537   1.941   .     S
Zn1524 O1531   1.913   .     S
Zn1524 O1526   1.940   .     S
Zn1524 O1525   1.928   .     S
Zn1524 O1535   1.939   .     S
O1526  C1538   1.260   .     A
O1527  C1539   1.271   .     A
O1528  C1540   1.272   .     A
O1529  C1541   1.269   .     A
O1530  C1542   1.279   .     A
O1531  C1543   1.284   .     A
O1532  C1542   1.281   .     A
O1533  C1543   1.293   .     A
O1534  C1540   1.270   .     A
O1535  C1541   1.265   .     A
O1536  C1538   1.271   .     A
O1537  C1539   1.278   .     A
C1538  C1564   1.444   .     S
C1539  C1563   1.463   .     S
C1540  C1566   1.444   .     S
C1541  C1565   1.461   .     S
C1542  C1545   1.465   .     S
C1543  C1544   1.489   .     S
C1544  C1547   1.413   .     A
C1544  C1548   1.396   .     A
C1545  C1560   1.405   .     A
C1545  C1561   1.397   .     A
C1546  C1547   1.409   .     A
C1546  N1602   1.433   .     S
C1546  C1550   1.425   .     A
C1547  N1605   1.434   .     S
C1548  C1549   1.408   .     A
C1548  H1562   1.080   .     S
C1549  C1550   1.424   .     A
C1549  C1551   1.426   .     A
C1550  C699    1.421   1_556 S
C1551  C1555   1.422   .     A
C1551  C697    1.408   1_556 S
C1552  C1558   1.423   .     A
C1552  C1553   1.418   .     A
C1553  O1608   1.385   .     S
C1553  C1554   1.401   .     A
C1554  N1567   1.432   .     S
C1555  C1556   1.410   .     A
C1555  N1613   1.440   .     S
C1556  N1599   1.433   .     S
C1556  C702    1.419   1_556 S
C1557  C1558   1.422   .     A
C1557  C1559   1.425   .     A
C1558  C1561   1.420   .     A
C1559  C1560   1.411   .     A
C1559  O1570   1.383   .     S
C1560  N1596   1.441   .     S
C1561  O1591   1.385   .     S
C1563  C1659   1.356   .     S
C1563  N1670   1.446   .     S
C1565  C996    1.355   1_565 S
C1565  N1013   1.445   1_565 S
N1567  O1569   1.301   .     A
N1567  O1568   1.301   .     A
O1570  C1571   1.411   .     S
C1571  H1572   1.111   .     S
H1573  C716    1.114   1_556 S
H1574  C716    1.109   1_556 S
N1575  O1576   1.301   .     A
N1575  O1577   1.302   .     A
O1578  C1579   1.412   .     S
O1578  C1659   1.399   .     S
C1579  H1581   1.114   .     S
C1579  H1582   1.109   .     S
C1579  H1675   1.112   .     S
N1583  O1585   1.301   .     A
O1584  N1013   1.301   1_565 S
O1586  C996    1.400   1_565 S
O1586  C1017   1.412   1_565 S
C1587  H1588   1.112   .     S
C1587  H1590   1.109   .     S
C1587  H1589   1.113   .     S
O1591  C1592   1.410   .     S
C1592  H1595   1.109   .     S
C1592  H1594   1.114   .     S
C1592  H1593   1.113   .     S
N1596  O1598   1.301   .     A
N1596  O1597   1.301   .     A
N1599  O1601   1.301   .     A
N1599  O1600   1.301   .     A
N1602  O1604   1.301   .     A
N1602  O1603   1.301   .     A
N1605  O1607   1.301   .     A
N1605  O1606   1.301   .     A
O1608  C1609   1.411   .     S
C1609  H1611   1.114   .     S
C1609  H1612   1.109   .     S
C1609  H1610   1.112   .     S
N1613  O1614   1.302   .     A
N1613  O1615   1.301   .     A
Zn1616 O1620   1.949   .     S
Zn1616 O1628   1.902   .     S
Zn1616 O1622   1.930   .     S
Zn1616 O1629   1.940   .     S
Zn1617 O1631   1.930   .     S
Zn1617 O1625   1.903   .     S
Zn1617 O1623   1.941   .     S
Zn1617 O1620   1.947   .     S
Zn1618 O1627   1.913   .     S
Zn1618 O1624   1.939   .     S
Zn1618 O1620   1.928   .     S
Zn1618 O1632   1.941   .     S
Zn1619 O1626   1.913   .     S
Zn1619 O1621   1.940   .     S
Zn1619 O1620   1.928   .     S
Zn1619 O1630   1.939   .     S
O1621  C1633   1.260   .     A
O1622  C1634   1.271   .     A
O1623  C1635   1.272   .     A
O1624  C1636   1.269   .     A
O1625  C1637   1.279   .     A
O1626  C1638   1.284   .     A
O1627  C1637   1.281   .     A
O1628  C1638   1.293   .     A
O1629  C1635   1.270   .     A
O1630  C1636   1.265   .     A
O1631  C1633   1.271   .     A
O1632  C1634   1.278   .     A
C1633  C1659   1.444   .     S
C1634  C1658   1.463   .     S
C1635  C1661   1.444   .     S
C1636  C1660   1.461   .     S
C1637  C1640   1.465   .     S
C1638  C1639   1.489   .     S
C1639  C1642   1.413   .     A
C1639  C1643   1.396   .     A
C1640  C1655   1.405   .     A
C1640  C1656   1.397   .     A
C1641  C1642   1.409   .     A
C1641  N1697   1.433   .     S
C1641  C1645   1.425   .     A
C1642  N1700   1.434   .     S
C1643  C1644   1.408   .     A
C1643  H1657   1.080   .     S
C1644  C1645   1.424   .     A
C1644  C1646   1.426   .     A
C1645  C794    1.421   1_556 S
C1646  C1650   1.422   .     A
C1646  C792    1.408   1_556 S
C1647  C1653   1.423   .     A
C1647  C1648   1.418   .     A
C1648  O1703   1.385   .     S
C1648  C1649   1.401   .     A
C1649  N1662   1.432   .     S
C1650  C1651   1.410   .     A
C1650  N1708   1.440   .     S
C1651  N1694   1.433   .     S
C1651  C797    1.419   1_556 S
C1652  C1653   1.422   .     A
C1652  C1654   1.425   .     A
C1653  C1656   1.420   .     A
C1654  C1655   1.411   .     A
C1654  O1665   1.383   .     S
C1655  N1691   1.441   .     S
C1656  O1686   1.385   .     S
C1658  C1469   1.356   1_655 S
C1658  N1480   1.446   1_655 S
C1660  C1091   1.355   1_565 S
C1660  N1108   1.445   1_565 S
N1662  O1664   1.301   .     A
N1662  O1663   1.301   .     A
O1665  C1666   1.411   .     S
C1666  H1667   1.111   .     S
H1668  C811    1.114   1_556 S
H1669  C811    1.109   1_556 S
N1670  O1671   1.301   .     A
N1670  O1672   1.302   .     A
O1673  C1674   1.412   .     S
O1673  C1469   1.399   1_655 S
C1674  H1676   1.114   .     S
C1674  H1677   1.109   .     S
C1674  H1485   1.112   1_655 S
N1678  O1680   1.301   .     A
O1679  N1108   1.301   1_565 S
O1681  C1091   1.400   1_565 S
O1681  C1112   1.412   1_565 S
C1682  H1683   1.112   .     S
C1682  H1685   1.109   .     S
C1682  H1684   1.113   .     S
O1686  C1687   1.410   .     S
C1687  H1690   1.109   .     S
C1687  H1689   1.114   .     S
C1687  H1688   1.113   .     S
N1691  O1693   1.301   .     A
N1691  O1692   1.301   .     A
N1694  O1696   1.301   .     A
N1694  O1695   1.301   .     A
N1697  O1699   1.301   .     A
N1697  O1698   1.301   .     A
N1700  O1702   1.301   .     A
N1700  O1701   1.301   .     A
O1703  C1704   1.411   .     S
C1704  H1706   1.114   .     S
C1704  H1707   1.109   .     S
C1704  H1705   1.112   .     S
N1708  O1709   1.302   .     A
N1708  O1710   1.301   .     A
