data_str_m1_o10_o18_pcu_sym.55
_audit_creation_date              2020-01-03
_audit_creation_method            'Materials Studio'
_symmetry_space_group_name_H-M    'P1'
_symmetry_Int_Tables_number       1
_symmetry_cell_setting            triclinic
loop_
_symmetry_equiv_pos_as_xyz
  x,y,z
_cell_length_a                    32.7608
_cell_length_b                    32.5308
_cell_length_c                    35.6226
_cell_angle_alpha                 97.9387
_cell_angle_beta                  73.1398
_cell_angle_gamma                 98.7093
loop_
_atom_site_label
_atom_site_type_symbol
_atom_site_fract_x
_atom_site_fract_y
_atom_site_fract_z
_atom_site_U_iso_or_equiv
_atom_site_adp_type
_atom_site_occupancy
C1     C     0.05282   0.15982   0.25875   0.00000  Uiso   1.00
C2     C     0.19522   0.12524   0.45997   0.00000  Uiso   1.00
C3     C     0.21769   0.10761   0.47991   0.00000  Uiso   1.00
C4     C     0.28104   0.17348   0.24128   0.00000  Uiso   1.00
C5     C     0.20908   0.11528   0.02065   0.00000  Uiso   1.00
C6     C     0.17480   0.13840   0.04231   0.00000  Uiso   1.00
C7     C     0.23533   0.10097   0.03978   0.00000  Uiso   1.00
C8     C     0.22913   0.11068   0.08026   0.00000  Uiso   1.00
C9     C     0.17129   0.15037   0.08248   0.00000  Uiso   1.00
C10    C     0.32688   0.17591   0.23790   0.00000  Uiso   1.00
C11    C     0.00760   0.15695   0.26257   0.00000  Uiso   1.00
C12    C     0.09610   0.21046   0.42127   0.00000  Uiso   1.00
C13    C     0.18163   0.32218   0.23753   0.00000  Uiso   1.00
C14    C     0.15222   0.01204   0.26166   0.00000  Uiso   1.00
C15    C     0.15566   0.05619   0.25917   0.00000  Uiso   1.00
C16    C     0.17701   0.27765   0.24123   0.00000  Uiso   1.00
C17    C     0.18809   0.14537   0.14406   0.00000  Uiso   1.00
C18    C     0.14539   0.18748   0.35619   0.00000  Uiso   1.00
C19    C     0.13270   0.19171   0.39959   0.00000  Uiso   1.00
C20    C     0.19714   0.13585   0.10150   0.00000  Uiso   1.00
C21    C     0.08152   0.20927   0.46198   0.00000  Uiso   1.00
C22    C     0.02349   0.19928   0.20729   0.00000  Uiso   1.00
C23    C     0.15532   0.17315   0.41925   0.00000  Uiso   1.00
C24    C     0.25613   0.09503   0.09937   0.00000  Uiso   1.00
C25    C     0.14028   0.17007   0.46016   0.00000  Uiso   1.00
C26    C     0.10301   0.18888   0.48148   0.00000  Uiso   1.00
C27    C     0.16142   0.14923   0.48042   0.00000  Uiso   1.00
C28    C     0.14757   0.15143   0.02242   0.00000  Uiso   1.00
C29    C     0.10691   0.16594   0.04220   0.00000  Uiso   1.00
C30    C     0.08627   0.18552   0.02172   0.00000  Uiso   1.00
H31    H     0.05579   0.19693   0.03735   0.00000  Uiso   1.00
H32    H     0.32064   0.10323   0.28861   0.00000  Uiso   1.00
H33    H     0.31742   0.14721   0.32019   0.00000  Uiso   1.00
H34    H     0.20612   0.02055   0.18901   0.00000  Uiso   1.00
H35    H     0.23564   0.02979   0.22200   0.00000  Uiso   1.00
H36    H     0.09033   0.12799   0.08756   0.00000  Uiso   1.00
H37    H     0.08449   0.18035   0.10158   0.00000  Uiso   1.00
H38    H     0.26092   0.08260   0.02308   0.00000  Uiso   1.00
H39    H     0.12491   0.33178   0.28368   0.00000  Uiso   1.00
H40    H     0.14979   0.17238   0.09938   0.00000  Uiso   1.00
H41    H     0.24332   0.08941   0.46309   0.00000  Uiso   1.00
H42    H     0.05275   0.22342   0.47813   0.00000  Uiso   1.00
H43    H     0.07805   0.22496   0.40669   0.00000  Uiso   1.00
H44    H     0.18471   0.16137   0.40180   0.00000  Uiso   1.00
H45    H     0.20439   0.11838   0.42839   0.00000  Uiso   1.00
N46    N     0.04735   0.21790   0.18293   0.00000  Uiso   1.00
N47    N     0.31235   0.13370   0.29328   0.00000  Uiso   1.00
N48    N     0.21765   0.00663   0.20806   0.00000  Uiso   1.00
N49    N     0.27774   0.08252   0.11473   0.00000  Uiso   1.00
N50    N     0.08179   0.15506   0.08057   0.00000  Uiso   1.00
O51    O     0.16667   0.16667   0.25000   0.00000  Uiso   1.00
O52    O     0.15693   0.12393   0.16625   0.00000  Uiso   1.00
O53    O     0.12687   0.20646   0.33749   0.00000  Uiso   1.00
O54    O     0.21088   0.17493   0.15877   0.00000  Uiso   1.00
O55    O     0.17198   0.16135   0.33749   0.00000  Uiso   1.00
O56    O     0.17849   0.08101   0.27821   0.00000  Uiso   1.00
O57    O     0.14581   0.26136   0.26767   0.00000  Uiso   1.00
O58    O     0.07452   0.13251   0.23607   0.00000  Uiso   1.00
O59    O     0.26785   0.19179   0.21805   0.00000  Uiso   1.00
O60    O     0.06990   0.18960   0.27820   0.00000  Uiso   1.00
O61    O     0.25440   0.15277   0.26767   0.00000  Uiso   1.00
O62    O     0.13800   0.06903   0.23607   0.00000  Uiso   1.00
O63    O     0.20437   0.25527   0.21805   0.00000  Uiso   1.00
Zn64   Zn    0.19244   0.14090   0.28277   0.00000  Uiso   1.00
Zn65   Zn    0.13459   0.12378   0.22257   0.00000  Uiso   1.00
Zn66   Zn    0.21166   0.19664   0.21188   0.00000  Uiso   1.00
Zn67   Zn    0.12798   0.20535   0.28277   0.00000  Uiso   1.00
C68    C     0.38615   0.15982   0.25875   0.00000  Uiso   1.00
C69    C     0.52855   0.12524   0.45997   0.00000  Uiso   1.00
C70    C     0.55102   0.10761   0.47991   0.00000  Uiso   1.00
C71    C     0.61437   0.17348   0.24128   0.00000  Uiso   1.00
C72    C     0.54242   0.11528   0.02065   0.00000  Uiso   1.00
C73    C     0.50814   0.13840   0.04231   0.00000  Uiso   1.00
C74    C     0.56866   0.10097   0.03978   0.00000  Uiso   1.00
C75    C     0.56247   0.11068   0.08026   0.00000  Uiso   1.00
C76    C     0.50462   0.15037   0.08248   0.00000  Uiso   1.00
C77    C     0.66021   0.17591   0.23790   0.00000  Uiso   1.00
C78    C     0.34093   0.15695   0.26257   0.00000  Uiso   1.00
C79    C     0.42943   0.21046   0.42127   0.00000  Uiso   1.00
C80    C     0.51496   0.32218   0.23753   0.00000  Uiso   1.00
C81    C     0.48556   0.01204   0.26166   0.00000  Uiso   1.00
C82    C     0.48900   0.05619   0.25917   0.00000  Uiso   1.00
C83    C     0.51034   0.27765   0.24123   0.00000  Uiso   1.00
C84    C     0.52143   0.14537   0.14406   0.00000  Uiso   1.00
C85    C     0.47872   0.18748   0.35619   0.00000  Uiso   1.00
C86    C     0.46604   0.19171   0.39959   0.00000  Uiso   1.00
C87    C     0.53048   0.13585   0.10150   0.00000  Uiso   1.00
C88    C     0.41485   0.20927   0.46198   0.00000  Uiso   1.00
C89    C     0.35682   0.19928   0.20729   0.00000  Uiso   1.00
C90    C     0.48866   0.17315   0.41925   0.00000  Uiso   1.00
C91    C     0.58947   0.09503   0.09937   0.00000  Uiso   1.00
C92    C     0.47362   0.17007   0.46016   0.00000  Uiso   1.00
C93    C     0.43634   0.18888   0.48148   0.00000  Uiso   1.00
C94    C     0.49475   0.14923   0.48042   0.00000  Uiso   1.00
C95    C     0.48090   0.15143   0.02242   0.00000  Uiso   1.00
C96    C     0.44024   0.16594   0.04220   0.00000  Uiso   1.00
C97    C     0.41960   0.18552   0.02172   0.00000  Uiso   1.00
H98    H     0.38913   0.19693   0.03735   0.00000  Uiso   1.00
H99    H     0.65397   0.10323   0.28861   0.00000  Uiso   1.00
H100   H     0.65076   0.14721   0.32019   0.00000  Uiso   1.00
H101   H     0.53945   0.02055   0.18901   0.00000  Uiso   1.00
H102   H     0.56897   0.02979   0.22200   0.00000  Uiso   1.00
H103   H     0.42367   0.12799   0.08756   0.00000  Uiso   1.00
H104   H     0.41782   0.18035   0.10158   0.00000  Uiso   1.00
H105   H     0.59425   0.08260   0.02308   0.00000  Uiso   1.00
H106   H     0.45825   0.33178   0.28368   0.00000  Uiso   1.00
H107   H     0.48312   0.17238   0.09938   0.00000  Uiso   1.00
H108   H     0.57666   0.08941   0.46309   0.00000  Uiso   1.00
H109   H     0.38609   0.22342   0.47813   0.00000  Uiso   1.00
H110   H     0.41138   0.22496   0.40669   0.00000  Uiso   1.00
H111   H     0.51804   0.16137   0.40180   0.00000  Uiso   1.00
H112   H     0.53772   0.11838   0.42839   0.00000  Uiso   1.00
N113   N     0.38068   0.21790   0.18293   0.00000  Uiso   1.00
N114   N     0.64569   0.13370   0.29328   0.00000  Uiso   1.00
N115   N     0.55098   0.00663   0.20806   0.00000  Uiso   1.00
N116   N     0.61108   0.08252   0.11473   0.00000  Uiso   1.00
N117   N     0.41512   0.15506   0.08057   0.00000  Uiso   1.00
O118   O     0.50000   0.16667   0.25000   0.00000  Uiso   1.00
O119   O     0.49027   0.12393   0.16625   0.00000  Uiso   1.00
O120   O     0.46020   0.20646   0.33749   0.00000  Uiso   1.00
O121   O     0.54421   0.17493   0.15877   0.00000  Uiso   1.00
O122   O     0.50532   0.16135   0.33749   0.00000  Uiso   1.00
O123   O     0.51182   0.08101   0.27821   0.00000  Uiso   1.00
O124   O     0.47914   0.26136   0.26767   0.00000  Uiso   1.00
O125   O     0.40785   0.13251   0.23607   0.00000  Uiso   1.00
O126   O     0.60119   0.19179   0.21805   0.00000  Uiso   1.00
O127   O     0.40323   0.18960   0.27820   0.00000  Uiso   1.00
O128   O     0.58773   0.15277   0.26767   0.00000  Uiso   1.00
O129   O     0.47133   0.06903   0.23607   0.00000  Uiso   1.00
O130   O     0.53771   0.25527   0.21805   0.00000  Uiso   1.00
Zn131  Zn    0.52577   0.14090   0.28277   0.00000  Uiso   1.00
Zn132  Zn    0.46792   0.12378   0.22257   0.00000  Uiso   1.00
Zn133  Zn    0.54500   0.19664   0.21188   0.00000  Uiso   1.00
Zn134  Zn    0.46131   0.20535   0.28277   0.00000  Uiso   1.00
C135   C     0.71948   0.15982   0.25875   0.00000  Uiso   1.00
C136   C     0.86188   0.12524   0.45997   0.00000  Uiso   1.00
C137   C     0.88435   0.10761   0.47991   0.00000  Uiso   1.00
C138   C     0.94771   0.17348   0.24128   0.00000  Uiso   1.00
C139   C     0.87575   0.11528   0.02065   0.00000  Uiso   1.00
C140   C     0.84147   0.13840   0.04231   0.00000  Uiso   1.00
C141   C     0.90200   0.10097   0.03978   0.00000  Uiso   1.00
C142   C     0.89580   0.11068   0.08026   0.00000  Uiso   1.00
C143   C     0.83795   0.15037   0.08248   0.00000  Uiso   1.00
C144   C     0.99355   0.17591   0.23790   0.00000  Uiso   1.00
C145   C     0.67426   0.15695   0.26257   0.00000  Uiso   1.00
C146   C     0.76277   0.21046   0.42127   0.00000  Uiso   1.00
C147   C     0.84830   0.32218   0.23753   0.00000  Uiso   1.00
C148   C     0.81889   0.01204   0.26166   0.00000  Uiso   1.00
C149   C     0.82233   0.05619   0.25917   0.00000  Uiso   1.00
C150   C     0.84368   0.27765   0.24123   0.00000  Uiso   1.00
C151   C     0.85476   0.14537   0.14406   0.00000  Uiso   1.00
C152   C     0.81205   0.18748   0.35619   0.00000  Uiso   1.00
C153   C     0.79937   0.19171   0.39959   0.00000  Uiso   1.00
C154   C     0.86381   0.13585   0.10150   0.00000  Uiso   1.00
C155   C     0.74818   0.20927   0.46198   0.00000  Uiso   1.00
C156   C     0.69015   0.19928   0.20729   0.00000  Uiso   1.00
C157   C     0.82199   0.17315   0.41925   0.00000  Uiso   1.00
C158   C     0.92280   0.09503   0.09937   0.00000  Uiso   1.00
C159   C     0.80695   0.17007   0.46016   0.00000  Uiso   1.00
C160   C     0.76968   0.18888   0.48148   0.00000  Uiso   1.00
C161   C     0.82809   0.14923   0.48042   0.00000  Uiso   1.00
C162   C     0.81423   0.15143   0.02242   0.00000  Uiso   1.00
C163   C     0.77357   0.16594   0.04220   0.00000  Uiso   1.00
C164   C     0.75294   0.18552   0.02172   0.00000  Uiso   1.00
H165   H     0.72246   0.19693   0.03735   0.00000  Uiso   1.00
H166   H     0.98730   0.10323   0.28861   0.00000  Uiso   1.00
H167   H     0.98409   0.14721   0.32019   0.00000  Uiso   1.00
H168   H     0.87278   0.02055   0.18901   0.00000  Uiso   1.00
H169   H     0.90230   0.02979   0.22200   0.00000  Uiso   1.00
H170   H     0.75700   0.12799   0.08756   0.00000  Uiso   1.00
H171   H     0.75115   0.18035   0.10158   0.00000  Uiso   1.00
H172   H     0.92758   0.08260   0.02308   0.00000  Uiso   1.00
H173   H     0.79158   0.33178   0.28368   0.00000  Uiso   1.00
H174   H     0.81645   0.17238   0.09938   0.00000  Uiso   1.00
H175   H     0.90999   0.08941   0.46309   0.00000  Uiso   1.00
H176   H     0.71942   0.22342   0.47813   0.00000  Uiso   1.00
H177   H     0.74471   0.22496   0.40669   0.00000  Uiso   1.00
H178   H     0.85137   0.16137   0.40180   0.00000  Uiso   1.00
H179   H     0.87105   0.11838   0.42839   0.00000  Uiso   1.00
N180   N     0.71402   0.21790   0.18293   0.00000  Uiso   1.00
N181   N     0.97902   0.13370   0.29328   0.00000  Uiso   1.00
N182   N     0.88432   0.00663   0.20806   0.00000  Uiso   1.00
N183   N     0.94441   0.08252   0.11473   0.00000  Uiso   1.00
N184   N     0.74846   0.15506   0.08057   0.00000  Uiso   1.00
O185   O     0.83333   0.16667   0.25000   0.00000  Uiso   1.00
O186   O     0.82360   0.12393   0.16625   0.00000  Uiso   1.00
O187   O     0.79354   0.20646   0.33749   0.00000  Uiso   1.00
O188   O     0.87755   0.17493   0.15877   0.00000  Uiso   1.00
O189   O     0.83865   0.16135   0.33749   0.00000  Uiso   1.00
O190   O     0.84515   0.08101   0.27821   0.00000  Uiso   1.00
O191   O     0.81247   0.26136   0.26767   0.00000  Uiso   1.00
O192   O     0.74119   0.13251   0.23607   0.00000  Uiso   1.00
O193   O     0.93452   0.19179   0.21805   0.00000  Uiso   1.00
O194   O     0.73656   0.18960   0.27820   0.00000  Uiso   1.00
O195   O     0.92106   0.15277   0.26767   0.00000  Uiso   1.00
O196   O     0.80467   0.06903   0.23607   0.00000  Uiso   1.00
O197   O     0.87104   0.25527   0.21805   0.00000  Uiso   1.00
Zn198  Zn    0.85910   0.14090   0.28277   0.00000  Uiso   1.00
Zn199  Zn    0.80125   0.12378   0.22257   0.00000  Uiso   1.00
Zn200  Zn    0.87833   0.19664   0.21188   0.00000  Uiso   1.00
Zn201  Zn    0.79465   0.20535   0.28277   0.00000  Uiso   1.00
C202   C     0.05282   0.49316   0.25875   0.00000  Uiso   1.00
C203   C     0.19522   0.45857   0.45997   0.00000  Uiso   1.00
C204   C     0.21769   0.44095   0.47991   0.00000  Uiso   1.00
C205   C     0.28104   0.50681   0.24128   0.00000  Uiso   1.00
C206   C     0.20908   0.44862   0.02065   0.00000  Uiso   1.00
C207   C     0.17480   0.47173   0.04231   0.00000  Uiso   1.00
C208   C     0.23533   0.43431   0.03978   0.00000  Uiso   1.00
C209   C     0.22913   0.44401   0.08026   0.00000  Uiso   1.00
C210   C     0.17129   0.48371   0.08248   0.00000  Uiso   1.00
C211   C     0.32688   0.50924   0.23790   0.00000  Uiso   1.00
C212   C     0.00760   0.49028   0.26257   0.00000  Uiso   1.00
C213   C     0.09610   0.54379   0.42127   0.00000  Uiso   1.00
C214   C     0.18163   0.65552   0.23753   0.00000  Uiso   1.00
C215   C     0.15222   0.34537   0.26166   0.00000  Uiso   1.00
C216   C     0.15566   0.38952   0.25917   0.00000  Uiso   1.00
C217   C     0.17701   0.61098   0.24123   0.00000  Uiso   1.00
C218   C     0.18809   0.47870   0.14406   0.00000  Uiso   1.00
C219   C     0.14539   0.52081   0.35619   0.00000  Uiso   1.00
C220   C     0.13270   0.52505   0.39959   0.00000  Uiso   1.00
C221   C     0.19714   0.46918   0.10150   0.00000  Uiso   1.00
C222   C     0.08152   0.54260   0.46198   0.00000  Uiso   1.00
C223   C     0.02349   0.53261   0.20729   0.00000  Uiso   1.00
C224   C     0.15532   0.50648   0.41925   0.00000  Uiso   1.00
C225   C     0.25613   0.42836   0.09937   0.00000  Uiso   1.00
C226   C     0.14028   0.50340   0.46016   0.00000  Uiso   1.00
C227   C     0.10301   0.52221   0.48148   0.00000  Uiso   1.00
C228   C     0.16142   0.48257   0.48042   0.00000  Uiso   1.00
C229   C     0.14757   0.48477   0.02242   0.00000  Uiso   1.00
C230   C     0.10691   0.49927   0.04220   0.00000  Uiso   1.00
C231   C     0.08627   0.51886   0.02172   0.00000  Uiso   1.00
H232   H     0.05579   0.53026   0.03735   0.00000  Uiso   1.00
H233   H     0.32064   0.43657   0.28861   0.00000  Uiso   1.00
H234   H     0.31742   0.48054   0.32019   0.00000  Uiso   1.00
H235   H     0.20612   0.35388   0.18901   0.00000  Uiso   1.00
H236   H     0.23564   0.36312   0.22200   0.00000  Uiso   1.00
H237   H     0.09033   0.46133   0.08756   0.00000  Uiso   1.00
H238   H     0.08449   0.51369   0.10158   0.00000  Uiso   1.00
H239   H     0.26092   0.41594   0.02308   0.00000  Uiso   1.00
H240   H     0.12491   0.66511   0.28368   0.00000  Uiso   1.00
H241   H     0.14979   0.50572   0.09938   0.00000  Uiso   1.00
H242   H     0.24332   0.42274   0.46309   0.00000  Uiso   1.00
H243   H     0.05275   0.55676   0.47813   0.00000  Uiso   1.00
H244   H     0.07805   0.55829   0.40669   0.00000  Uiso   1.00
H245   H     0.18471   0.49471   0.40180   0.00000  Uiso   1.00
H246   H     0.20439   0.45171   0.42839   0.00000  Uiso   1.00
N247   N     0.04735   0.55123   0.18293   0.00000  Uiso   1.00
N248   N     0.31235   0.46704   0.29328   0.00000  Uiso   1.00
N249   N     0.21765   0.33996   0.20806   0.00000  Uiso   1.00
N250   N     0.27774   0.41585   0.11473   0.00000  Uiso   1.00
N251   N     0.08179   0.48839   0.08057   0.00000  Uiso   1.00
O252   O     0.16667   0.50000   0.25000   0.00000  Uiso   1.00
O253   O     0.15693   0.45726   0.16625   0.00000  Uiso   1.00
O254   O     0.12687   0.53979   0.33749   0.00000  Uiso   1.00
O255   O     0.21088   0.50826   0.15877   0.00000  Uiso   1.00
O256   O     0.17198   0.49468   0.33749   0.00000  Uiso   1.00
O257   O     0.17849   0.41434   0.27821   0.00000  Uiso   1.00
O258   O     0.14581   0.59469   0.26767   0.00000  Uiso   1.00
O259   O     0.07452   0.46584   0.23607   0.00000  Uiso   1.00
O260   O     0.26785   0.52512   0.21805   0.00000  Uiso   1.00
O261   O     0.06990   0.52293   0.27820   0.00000  Uiso   1.00
O262   O     0.25440   0.48610   0.26767   0.00000  Uiso   1.00
O263   O     0.13800   0.40236   0.23607   0.00000  Uiso   1.00
O264   O     0.20437   0.58860   0.21805   0.00000  Uiso   1.00
Zn265  Zn    0.19244   0.47423   0.28277   0.00000  Uiso   1.00
Zn266  Zn    0.13459   0.45711   0.22257   0.00000  Uiso   1.00
Zn267  Zn    0.21166   0.52997   0.21188   0.00000  Uiso   1.00
Zn268  Zn    0.12798   0.53868   0.28277   0.00000  Uiso   1.00
C269   C     0.38615   0.49316   0.25875   0.00000  Uiso   1.00
C270   C     0.52855   0.45857   0.45997   0.00000  Uiso   1.00
C271   C     0.55102   0.44095   0.47991   0.00000  Uiso   1.00
C272   C     0.61437   0.50681   0.24128   0.00000  Uiso   1.00
C273   C     0.54242   0.44862   0.02065   0.00000  Uiso   1.00
C274   C     0.50814   0.47173   0.04231   0.00000  Uiso   1.00
C275   C     0.56866   0.43431   0.03978   0.00000  Uiso   1.00
C276   C     0.56247   0.44401   0.08026   0.00000  Uiso   1.00
C277   C     0.50462   0.48371   0.08248   0.00000  Uiso   1.00
C278   C     0.66021   0.50924   0.23790   0.00000  Uiso   1.00
C279   C     0.34093   0.49028   0.26257   0.00000  Uiso   1.00
C280   C     0.42943   0.54379   0.42127   0.00000  Uiso   1.00
C281   C     0.51496   0.65552   0.23753   0.00000  Uiso   1.00
C282   C     0.48556   0.34537   0.26166   0.00000  Uiso   1.00
C283   C     0.48900   0.38952   0.25917   0.00000  Uiso   1.00
C284   C     0.51034   0.61098   0.24123   0.00000  Uiso   1.00
C285   C     0.52143   0.47870   0.14406   0.00000  Uiso   1.00
C286   C     0.47872   0.52081   0.35619   0.00000  Uiso   1.00
C287   C     0.46604   0.52505   0.39959   0.00000  Uiso   1.00
C288   C     0.53048   0.46918   0.10150   0.00000  Uiso   1.00
C289   C     0.41485   0.54260   0.46198   0.00000  Uiso   1.00
C290   C     0.35682   0.53261   0.20729   0.00000  Uiso   1.00
C291   C     0.48866   0.50648   0.41925   0.00000  Uiso   1.00
C292   C     0.58947   0.42836   0.09937   0.00000  Uiso   1.00
C293   C     0.47362   0.50340   0.46016   0.00000  Uiso   1.00
C294   C     0.43634   0.52221   0.48148   0.00000  Uiso   1.00
C295   C     0.49475   0.48257   0.48042   0.00000  Uiso   1.00
C296   C     0.48090   0.48477   0.02242   0.00000  Uiso   1.00
C297   C     0.44024   0.49927   0.04220   0.00000  Uiso   1.00
C298   C     0.41960   0.51886   0.02172   0.00000  Uiso   1.00
H299   H     0.38913   0.53026   0.03735   0.00000  Uiso   1.00
H300   H     0.65397   0.43657   0.28861   0.00000  Uiso   1.00
H301   H     0.65076   0.48054   0.32019   0.00000  Uiso   1.00
H302   H     0.53945   0.35388   0.18901   0.00000  Uiso   1.00
H303   H     0.56897   0.36312   0.22200   0.00000  Uiso   1.00
H304   H     0.42367   0.46133   0.08756   0.00000  Uiso   1.00
H305   H     0.41782   0.51369   0.10158   0.00000  Uiso   1.00
H306   H     0.59425   0.41594   0.02308   0.00000  Uiso   1.00
H307   H     0.45825   0.66511   0.28368   0.00000  Uiso   1.00
H308   H     0.48312   0.50572   0.09938   0.00000  Uiso   1.00
H309   H     0.57666   0.42274   0.46309   0.00000  Uiso   1.00
H310   H     0.38609   0.55676   0.47813   0.00000  Uiso   1.00
H311   H     0.41138   0.55829   0.40669   0.00000  Uiso   1.00
H312   H     0.51804   0.49471   0.40180   0.00000  Uiso   1.00
H313   H     0.53772   0.45171   0.42839   0.00000  Uiso   1.00
N314   N     0.38068   0.55123   0.18293   0.00000  Uiso   1.00
N315   N     0.64569   0.46704   0.29328   0.00000  Uiso   1.00
N316   N     0.55098   0.33996   0.20806   0.00000  Uiso   1.00
N317   N     0.61108   0.41585   0.11473   0.00000  Uiso   1.00
N318   N     0.41512   0.48839   0.08057   0.00000  Uiso   1.00
O319   O     0.50000   0.50000   0.25000   0.00000  Uiso   1.00
O320   O     0.49027   0.45726   0.16625   0.00000  Uiso   1.00
O321   O     0.46020   0.53979   0.33749   0.00000  Uiso   1.00
O322   O     0.54421   0.50826   0.15877   0.00000  Uiso   1.00
O323   O     0.50532   0.49468   0.33749   0.00000  Uiso   1.00
O324   O     0.51182   0.41434   0.27821   0.00000  Uiso   1.00
O325   O     0.47914   0.59469   0.26767   0.00000  Uiso   1.00
O326   O     0.40785   0.46584   0.23607   0.00000  Uiso   1.00
O327   O     0.60119   0.52512   0.21805   0.00000  Uiso   1.00
O328   O     0.40323   0.52293   0.27820   0.00000  Uiso   1.00
O329   O     0.58773   0.48610   0.26767   0.00000  Uiso   1.00
O330   O     0.47133   0.40236   0.23607   0.00000  Uiso   1.00
O331   O     0.53771   0.58860   0.21805   0.00000  Uiso   1.00
Zn332  Zn    0.52577   0.47423   0.28277   0.00000  Uiso   1.00
Zn333  Zn    0.46792   0.45711   0.22257   0.00000  Uiso   1.00
Zn334  Zn    0.54500   0.52997   0.21188   0.00000  Uiso   1.00
Zn335  Zn    0.46131   0.53868   0.28277   0.00000  Uiso   1.00
C336   C     0.71948   0.49316   0.25875   0.00000  Uiso   1.00
C337   C     0.86188   0.45857   0.45997   0.00000  Uiso   1.00
C338   C     0.88435   0.44095   0.47991   0.00000  Uiso   1.00
C339   C     0.94771   0.50681   0.24128   0.00000  Uiso   1.00
C340   C     0.87575   0.44862   0.02065   0.00000  Uiso   1.00
C341   C     0.84147   0.47173   0.04231   0.00000  Uiso   1.00
C342   C     0.90200   0.43431   0.03978   0.00000  Uiso   1.00
C343   C     0.89580   0.44401   0.08026   0.00000  Uiso   1.00
C344   C     0.83795   0.48371   0.08248   0.00000  Uiso   1.00
C345   C     0.99355   0.50924   0.23790   0.00000  Uiso   1.00
C346   C     0.67426   0.49028   0.26257   0.00000  Uiso   1.00
C347   C     0.76277   0.54379   0.42127   0.00000  Uiso   1.00
C348   C     0.84830   0.65552   0.23753   0.00000  Uiso   1.00
C349   C     0.81889   0.34537   0.26166   0.00000  Uiso   1.00
C350   C     0.82233   0.38952   0.25917   0.00000  Uiso   1.00
C351   C     0.84368   0.61098   0.24123   0.00000  Uiso   1.00
C352   C     0.85476   0.47870   0.14406   0.00000  Uiso   1.00
C353   C     0.81205   0.52081   0.35619   0.00000  Uiso   1.00
C354   C     0.79937   0.52505   0.39959   0.00000  Uiso   1.00
C355   C     0.86381   0.46918   0.10150   0.00000  Uiso   1.00
C356   C     0.74818   0.54260   0.46198   0.00000  Uiso   1.00
C357   C     0.69015   0.53261   0.20729   0.00000  Uiso   1.00
C358   C     0.82199   0.50648   0.41925   0.00000  Uiso   1.00
C359   C     0.92280   0.42836   0.09937   0.00000  Uiso   1.00
C360   C     0.80695   0.50340   0.46016   0.00000  Uiso   1.00
C361   C     0.76968   0.52221   0.48148   0.00000  Uiso   1.00
C362   C     0.82809   0.48257   0.48042   0.00000  Uiso   1.00
C363   C     0.81423   0.48477   0.02242   0.00000  Uiso   1.00
C364   C     0.77357   0.49927   0.04220   0.00000  Uiso   1.00
C365   C     0.75294   0.51886   0.02172   0.00000  Uiso   1.00
H366   H     0.72246   0.53026   0.03735   0.00000  Uiso   1.00
H367   H     0.98730   0.43657   0.28861   0.00000  Uiso   1.00
H368   H     0.98409   0.48054   0.32019   0.00000  Uiso   1.00
H369   H     0.87278   0.35388   0.18901   0.00000  Uiso   1.00
H370   H     0.90230   0.36312   0.22200   0.00000  Uiso   1.00
H371   H     0.75700   0.46133   0.08756   0.00000  Uiso   1.00
H372   H     0.75115   0.51369   0.10158   0.00000  Uiso   1.00
H373   H     0.92758   0.41594   0.02308   0.00000  Uiso   1.00
H374   H     0.79158   0.66511   0.28368   0.00000  Uiso   1.00
H375   H     0.81645   0.50572   0.09938   0.00000  Uiso   1.00
H376   H     0.90999   0.42274   0.46309   0.00000  Uiso   1.00
H377   H     0.71942   0.55676   0.47813   0.00000  Uiso   1.00
H378   H     0.74471   0.55829   0.40669   0.00000  Uiso   1.00
H379   H     0.85137   0.49471   0.40180   0.00000  Uiso   1.00
H380   H     0.87105   0.45171   0.42839   0.00000  Uiso   1.00
N381   N     0.71402   0.55123   0.18293   0.00000  Uiso   1.00
N382   N     0.97902   0.46704   0.29328   0.00000  Uiso   1.00
N383   N     0.88432   0.33996   0.20806   0.00000  Uiso   1.00
N384   N     0.94441   0.41585   0.11473   0.00000  Uiso   1.00
N385   N     0.74846   0.48839   0.08057   0.00000  Uiso   1.00
O386   O     0.83333   0.50000   0.25000   0.00000  Uiso   1.00
O387   O     0.82360   0.45726   0.16625   0.00000  Uiso   1.00
O388   O     0.79354   0.53979   0.33749   0.00000  Uiso   1.00
O389   O     0.87755   0.50826   0.15877   0.00000  Uiso   1.00
O390   O     0.83865   0.49468   0.33749   0.00000  Uiso   1.00
O391   O     0.84515   0.41434   0.27821   0.00000  Uiso   1.00
O392   O     0.81247   0.59469   0.26767   0.00000  Uiso   1.00
O393   O     0.74119   0.46584   0.23607   0.00000  Uiso   1.00
O394   O     0.93452   0.52512   0.21805   0.00000  Uiso   1.00
O395   O     0.73656   0.52293   0.27820   0.00000  Uiso   1.00
O396   O     0.92106   0.48610   0.26767   0.00000  Uiso   1.00
O397   O     0.80467   0.40236   0.23607   0.00000  Uiso   1.00
O398   O     0.87104   0.58860   0.21805   0.00000  Uiso   1.00
Zn399  Zn    0.85910   0.47423   0.28277   0.00000  Uiso   1.00
Zn400  Zn    0.80125   0.45711   0.22257   0.00000  Uiso   1.00
Zn401  Zn    0.87833   0.52997   0.21188   0.00000  Uiso   1.00
Zn402  Zn    0.79465   0.53868   0.28277   0.00000  Uiso   1.00
C403   C     0.05282   0.82649   0.25875   0.00000  Uiso   1.00
C404   C     0.19522   0.79191   0.45997   0.00000  Uiso   1.00
C405   C     0.21769   0.77428   0.47991   0.00000  Uiso   1.00
C406   C     0.28104   0.84014   0.24128   0.00000  Uiso   1.00
C407   C     0.20908   0.78195   0.02065   0.00000  Uiso   1.00
C408   C     0.17480   0.80506   0.04231   0.00000  Uiso   1.00
C409   C     0.23533   0.76764   0.03978   0.00000  Uiso   1.00
C410   C     0.22913   0.77734   0.08026   0.00000  Uiso   1.00
C411   C     0.17129   0.81704   0.08248   0.00000  Uiso   1.00
C412   C     0.32688   0.84258   0.23790   0.00000  Uiso   1.00
C413   C     0.00760   0.82362   0.26257   0.00000  Uiso   1.00
C414   C     0.09610   0.87712   0.42127   0.00000  Uiso   1.00
C415   C     0.18163   0.98885   0.23753   0.00000  Uiso   1.00
C416   C     0.15222   0.67871   0.26166   0.00000  Uiso   1.00
C417   C     0.15566   0.72285   0.25917   0.00000  Uiso   1.00
C418   C     0.17701   0.94432   0.24123   0.00000  Uiso   1.00
C419   C     0.18809   0.81204   0.14406   0.00000  Uiso   1.00
C420   C     0.14539   0.85415   0.35619   0.00000  Uiso   1.00
C421   C     0.13270   0.85838   0.39959   0.00000  Uiso   1.00
C422   C     0.19714   0.80252   0.10150   0.00000  Uiso   1.00
C423   C     0.08152   0.87593   0.46198   0.00000  Uiso   1.00
C424   C     0.02349   0.86595   0.20729   0.00000  Uiso   1.00
C425   C     0.15532   0.83982   0.41925   0.00000  Uiso   1.00
C426   C     0.25613   0.76169   0.09937   0.00000  Uiso   1.00
C427   C     0.14028   0.83674   0.46016   0.00000  Uiso   1.00
C428   C     0.10301   0.85555   0.48148   0.00000  Uiso   1.00
C429   C     0.16142   0.81590   0.48042   0.00000  Uiso   1.00
C430   C     0.14757   0.81810   0.02242   0.00000  Uiso   1.00
C431   C     0.10691   0.83260   0.04220   0.00000  Uiso   1.00
C432   C     0.08627   0.85219   0.02172   0.00000  Uiso   1.00
H433   H     0.05579   0.86359   0.03735   0.00000  Uiso   1.00
H434   H     0.32064   0.76990   0.28861   0.00000  Uiso   1.00
H435   H     0.31742   0.81387   0.32019   0.00000  Uiso   1.00
H436   H     0.20612   0.68721   0.18901   0.00000  Uiso   1.00
H437   H     0.23564   0.69646   0.22200   0.00000  Uiso   1.00
H438   H     0.09033   0.79466   0.08756   0.00000  Uiso   1.00
H439   H     0.08449   0.84702   0.10158   0.00000  Uiso   1.00
H440   H     0.26092   0.74927   0.02308   0.00000  Uiso   1.00
H441   H     0.12491   0.99845   0.28368   0.00000  Uiso   1.00
H442   H     0.14979   0.83905   0.09938   0.00000  Uiso   1.00
H443   H     0.24332   0.75607   0.46309   0.00000  Uiso   1.00
H444   H     0.05275   0.89009   0.47813   0.00000  Uiso   1.00
H445   H     0.07805   0.89163   0.40669   0.00000  Uiso   1.00
H446   H     0.18471   0.82804   0.40180   0.00000  Uiso   1.00
H447   H     0.20439   0.78505   0.42839   0.00000  Uiso   1.00
N448   N     0.04735   0.88457   0.18293   0.00000  Uiso   1.00
N449   N     0.31235   0.80037   0.29328   0.00000  Uiso   1.00
N450   N     0.21765   0.67330   0.20806   0.00000  Uiso   1.00
N451   N     0.27774   0.74918   0.11473   0.00000  Uiso   1.00
N452   N     0.08179   0.82173   0.08057   0.00000  Uiso   1.00
O453   O     0.16667   0.83333   0.25000   0.00000  Uiso   1.00
O454   O     0.15693   0.79060   0.16625   0.00000  Uiso   1.00
O455   O     0.12687   0.87313   0.33749   0.00000  Uiso   1.00
O456   O     0.21088   0.84159   0.15877   0.00000  Uiso   1.00
O457   O     0.17198   0.82802   0.33749   0.00000  Uiso   1.00
O458   O     0.17849   0.74768   0.27821   0.00000  Uiso   1.00
O459   O     0.14581   0.92803   0.26767   0.00000  Uiso   1.00
O460   O     0.07452   0.79917   0.23607   0.00000  Uiso   1.00
O461   O     0.26785   0.85845   0.21805   0.00000  Uiso   1.00
O462   O     0.06990   0.85627   0.27820   0.00000  Uiso   1.00
O463   O     0.25440   0.81944   0.26767   0.00000  Uiso   1.00
O464   O     0.13800   0.73570   0.23607   0.00000  Uiso   1.00
O465   O     0.20437   0.92193   0.21805   0.00000  Uiso   1.00
Zn466  Zn    0.19244   0.80756   0.28277   0.00000  Uiso   1.00
Zn467  Zn    0.13459   0.79044   0.22257   0.00000  Uiso   1.00
Zn468  Zn    0.21166   0.86331   0.21188   0.00000  Uiso   1.00
Zn469  Zn    0.12798   0.87202   0.28277   0.00000  Uiso   1.00
C470   C     0.38615   0.82649   0.25875   0.00000  Uiso   1.00
C471   C     0.52855   0.79191   0.45997   0.00000  Uiso   1.00
C472   C     0.55102   0.77428   0.47991   0.00000  Uiso   1.00
C473   C     0.61437   0.84014   0.24128   0.00000  Uiso   1.00
C474   C     0.54242   0.78195   0.02065   0.00000  Uiso   1.00
C475   C     0.50814   0.80506   0.04231   0.00000  Uiso   1.00
C476   C     0.56866   0.76764   0.03978   0.00000  Uiso   1.00
C477   C     0.56247   0.77734   0.08026   0.00000  Uiso   1.00
C478   C     0.50462   0.81704   0.08248   0.00000  Uiso   1.00
C479   C     0.66021   0.84258   0.23790   0.00000  Uiso   1.00
C480   C     0.34093   0.82362   0.26257   0.00000  Uiso   1.00
C481   C     0.42943   0.87712   0.42127   0.00000  Uiso   1.00
C482   C     0.51496   0.98885   0.23753   0.00000  Uiso   1.00
C483   C     0.48556   0.67871   0.26166   0.00000  Uiso   1.00
C484   C     0.48900   0.72285   0.25917   0.00000  Uiso   1.00
C485   C     0.51034   0.94432   0.24123   0.00000  Uiso   1.00
C486   C     0.52143   0.81204   0.14406   0.00000  Uiso   1.00
C487   C     0.47872   0.85415   0.35619   0.00000  Uiso   1.00
C488   C     0.46604   0.85838   0.39959   0.00000  Uiso   1.00
C489   C     0.53048   0.80252   0.10150   0.00000  Uiso   1.00
C490   C     0.41485   0.87593   0.46198   0.00000  Uiso   1.00
C491   C     0.35682   0.86595   0.20729   0.00000  Uiso   1.00
C492   C     0.48866   0.83982   0.41925   0.00000  Uiso   1.00
C493   C     0.58947   0.76169   0.09937   0.00000  Uiso   1.00
C494   C     0.47362   0.83674   0.46016   0.00000  Uiso   1.00
C495   C     0.43634   0.85555   0.48148   0.00000  Uiso   1.00
C496   C     0.49475   0.81590   0.48042   0.00000  Uiso   1.00
C497   C     0.48090   0.81810   0.02242   0.00000  Uiso   1.00
C498   C     0.44024   0.83260   0.04220   0.00000  Uiso   1.00
C499   C     0.41960   0.85219   0.02172   0.00000  Uiso   1.00
H500   H     0.38913   0.86359   0.03735   0.00000  Uiso   1.00
H501   H     0.65397   0.76990   0.28861   0.00000  Uiso   1.00
H502   H     0.65076   0.81387   0.32019   0.00000  Uiso   1.00
H503   H     0.53945   0.68721   0.18901   0.00000  Uiso   1.00
H504   H     0.56897   0.69646   0.22200   0.00000  Uiso   1.00
H505   H     0.42367   0.79466   0.08756   0.00000  Uiso   1.00
H506   H     0.41782   0.84702   0.10158   0.00000  Uiso   1.00
H507   H     0.59425   0.74927   0.02308   0.00000  Uiso   1.00
H508   H     0.45825   0.99845   0.28368   0.00000  Uiso   1.00
H509   H     0.48312   0.83905   0.09938   0.00000  Uiso   1.00
H510   H     0.57666   0.75607   0.46309   0.00000  Uiso   1.00
H511   H     0.38609   0.89009   0.47813   0.00000  Uiso   1.00
H512   H     0.41138   0.89163   0.40669   0.00000  Uiso   1.00
H513   H     0.51804   0.82804   0.40180   0.00000  Uiso   1.00
H514   H     0.53772   0.78505   0.42839   0.00000  Uiso   1.00
N515   N     0.38068   0.88457   0.18293   0.00000  Uiso   1.00
N516   N     0.64569   0.80037   0.29328   0.00000  Uiso   1.00
N517   N     0.55098   0.67330   0.20806   0.00000  Uiso   1.00
N518   N     0.61108   0.74918   0.11473   0.00000  Uiso   1.00
N519   N     0.41512   0.82173   0.08057   0.00000  Uiso   1.00
O520   O     0.50000   0.83333   0.25000   0.00000  Uiso   1.00
O521   O     0.49027   0.79060   0.16625   0.00000  Uiso   1.00
O522   O     0.46020   0.87313   0.33749   0.00000  Uiso   1.00
O523   O     0.54421   0.84159   0.15877   0.00000  Uiso   1.00
O524   O     0.50532   0.82802   0.33749   0.00000  Uiso   1.00
O525   O     0.51182   0.74768   0.27821   0.00000  Uiso   1.00
O526   O     0.47914   0.92803   0.26767   0.00000  Uiso   1.00
O527   O     0.40785   0.79917   0.23607   0.00000  Uiso   1.00
O528   O     0.60119   0.85845   0.21805   0.00000  Uiso   1.00
O529   O     0.40323   0.85627   0.27820   0.00000  Uiso   1.00
O530   O     0.58773   0.81944   0.26767   0.00000  Uiso   1.00
O531   O     0.47133   0.73570   0.23607   0.00000  Uiso   1.00
O532   O     0.53771   0.92193   0.21805   0.00000  Uiso   1.00
Zn533  Zn    0.52577   0.80756   0.28277   0.00000  Uiso   1.00
Zn534  Zn    0.46792   0.79044   0.22257   0.00000  Uiso   1.00
Zn535  Zn    0.54500   0.86331   0.21188   0.00000  Uiso   1.00
Zn536  Zn    0.46131   0.87202   0.28277   0.00000  Uiso   1.00
C537   C     0.71948   0.82649   0.25875   0.00000  Uiso   1.00
C538   C     0.86188   0.79191   0.45997   0.00000  Uiso   1.00
C539   C     0.88435   0.77428   0.47991   0.00000  Uiso   1.00
C540   C     0.94771   0.84014   0.24128   0.00000  Uiso   1.00
C541   C     0.87575   0.78195   0.02065   0.00000  Uiso   1.00
C542   C     0.84147   0.80506   0.04231   0.00000  Uiso   1.00
C543   C     0.90200   0.76764   0.03978   0.00000  Uiso   1.00
C544   C     0.89580   0.77734   0.08026   0.00000  Uiso   1.00
C545   C     0.83795   0.81704   0.08248   0.00000  Uiso   1.00
C546   C     0.99355   0.84258   0.23790   0.00000  Uiso   1.00
C547   C     0.67426   0.82362   0.26257   0.00000  Uiso   1.00
C548   C     0.76277   0.87712   0.42127   0.00000  Uiso   1.00
C549   C     0.84830   0.98885   0.23753   0.00000  Uiso   1.00
C550   C     0.81889   0.67871   0.26166   0.00000  Uiso   1.00
C551   C     0.82233   0.72285   0.25917   0.00000  Uiso   1.00
C552   C     0.84368   0.94432   0.24123   0.00000  Uiso   1.00
C553   C     0.85476   0.81204   0.14406   0.00000  Uiso   1.00
C554   C     0.81205   0.85415   0.35619   0.00000  Uiso   1.00
C555   C     0.79937   0.85838   0.39959   0.00000  Uiso   1.00
C556   C     0.86381   0.80252   0.10150   0.00000  Uiso   1.00
C557   C     0.74818   0.87593   0.46198   0.00000  Uiso   1.00
C558   C     0.69015   0.86595   0.20729   0.00000  Uiso   1.00
C559   C     0.82199   0.83982   0.41925   0.00000  Uiso   1.00
C560   C     0.92280   0.76169   0.09937   0.00000  Uiso   1.00
C561   C     0.80695   0.83674   0.46016   0.00000  Uiso   1.00
C562   C     0.76968   0.85555   0.48148   0.00000  Uiso   1.00
C563   C     0.82809   0.81590   0.48042   0.00000  Uiso   1.00
C564   C     0.81423   0.81810   0.02242   0.00000  Uiso   1.00
C565   C     0.77357   0.83260   0.04220   0.00000  Uiso   1.00
C566   C     0.75294   0.85219   0.02172   0.00000  Uiso   1.00
H567   H     0.72246   0.86359   0.03735   0.00000  Uiso   1.00
H568   H     0.98730   0.76990   0.28861   0.00000  Uiso   1.00
H569   H     0.98409   0.81387   0.32019   0.00000  Uiso   1.00
H570   H     0.87278   0.68721   0.18901   0.00000  Uiso   1.00
H571   H     0.90230   0.69646   0.22200   0.00000  Uiso   1.00
H572   H     0.75700   0.79466   0.08756   0.00000  Uiso   1.00
H573   H     0.75115   0.84702   0.10158   0.00000  Uiso   1.00
H574   H     0.92758   0.74927   0.02308   0.00000  Uiso   1.00
H575   H     0.79158   0.99845   0.28368   0.00000  Uiso   1.00
H576   H     0.81645   0.83905   0.09938   0.00000  Uiso   1.00
H577   H     0.90999   0.75607   0.46309   0.00000  Uiso   1.00
H578   H     0.71942   0.89009   0.47813   0.00000  Uiso   1.00
H579   H     0.74471   0.89163   0.40669   0.00000  Uiso   1.00
H580   H     0.85137   0.82804   0.40180   0.00000  Uiso   1.00
H581   H     0.87105   0.78505   0.42839   0.00000  Uiso   1.00
N582   N     0.71402   0.88457   0.18293   0.00000  Uiso   1.00
N583   N     0.97902   0.80037   0.29328   0.00000  Uiso   1.00
N584   N     0.88432   0.67330   0.20806   0.00000  Uiso   1.00
N585   N     0.94441   0.74918   0.11473   0.00000  Uiso   1.00
N586   N     0.74846   0.82173   0.08057   0.00000  Uiso   1.00
O587   O     0.83333   0.83333   0.25000   0.00000  Uiso   1.00
O588   O     0.82360   0.79060   0.16625   0.00000  Uiso   1.00
O589   O     0.79354   0.87313   0.33749   0.00000  Uiso   1.00
O590   O     0.87755   0.84159   0.15877   0.00000  Uiso   1.00
O591   O     0.83865   0.82802   0.33749   0.00000  Uiso   1.00
O592   O     0.84515   0.74768   0.27821   0.00000  Uiso   1.00
O593   O     0.81247   0.92803   0.26767   0.00000  Uiso   1.00
O594   O     0.74119   0.79917   0.23607   0.00000  Uiso   1.00
O595   O     0.93452   0.85845   0.21805   0.00000  Uiso   1.00
O596   O     0.73656   0.85627   0.27820   0.00000  Uiso   1.00
O597   O     0.92106   0.81944   0.26767   0.00000  Uiso   1.00
O598   O     0.80467   0.73570   0.23607   0.00000  Uiso   1.00
O599   O     0.87104   0.92193   0.21805   0.00000  Uiso   1.00
Zn600  Zn    0.85910   0.80756   0.28277   0.00000  Uiso   1.00
Zn601  Zn    0.80125   0.79044   0.22257   0.00000  Uiso   1.00
Zn602  Zn    0.87833   0.86331   0.21188   0.00000  Uiso   1.00
Zn603  Zn    0.79465   0.87202   0.28277   0.00000  Uiso   1.00
C604   C     0.05282   0.15982   0.75875   0.00000  Uiso   1.00
C605   C     0.19522   0.12524   0.95997   0.00000  Uiso   1.00
C606   C     0.21769   0.10761   0.97991   0.00000  Uiso   1.00
C607   C     0.28104   0.17348   0.74128   0.00000  Uiso   1.00
C608   C     0.20908   0.11528   0.52065   0.00000  Uiso   1.00
C609   C     0.17480   0.13840   0.54231   0.00000  Uiso   1.00
C610   C     0.23533   0.10097   0.53978   0.00000  Uiso   1.00
C611   C     0.22913   0.11068   0.58026   0.00000  Uiso   1.00
C612   C     0.17129   0.15037   0.58248   0.00000  Uiso   1.00
C613   C     0.32688   0.17591   0.73790   0.00000  Uiso   1.00
C614   C     0.00760   0.15695   0.76257   0.00000  Uiso   1.00
C615   C     0.09610   0.21046   0.92127   0.00000  Uiso   1.00
C616   C     0.18163   0.32218   0.73753   0.00000  Uiso   1.00
C617   C     0.15222   0.01204   0.76166   0.00000  Uiso   1.00
C618   C     0.15566   0.05619   0.75917   0.00000  Uiso   1.00
C619   C     0.17701   0.27765   0.74123   0.00000  Uiso   1.00
C620   C     0.18809   0.14537   0.64406   0.00000  Uiso   1.00
C621   C     0.14539   0.18748   0.85619   0.00000  Uiso   1.00
C622   C     0.13270   0.19171   0.89959   0.00000  Uiso   1.00
C623   C     0.19714   0.13585   0.60150   0.00000  Uiso   1.00
C624   C     0.08152   0.20927   0.96198   0.00000  Uiso   1.00
C625   C     0.02349   0.19928   0.70729   0.00000  Uiso   1.00
C626   C     0.15532   0.17315   0.91925   0.00000  Uiso   1.00
C627   C     0.25613   0.09503   0.59937   0.00000  Uiso   1.00
C628   C     0.14028   0.17007   0.96016   0.00000  Uiso   1.00
C629   C     0.10301   0.18888   0.98148   0.00000  Uiso   1.00
C630   C     0.16142   0.14923   0.98042   0.00000  Uiso   1.00
C631   C     0.14757   0.15143   0.52242   0.00000  Uiso   1.00
C632   C     0.10691   0.16594   0.54220   0.00000  Uiso   1.00
C633   C     0.08627   0.18552   0.52172   0.00000  Uiso   1.00
H634   H     0.05579   0.19693   0.53735   0.00000  Uiso   1.00
H635   H     0.32064   0.10323   0.78861   0.00000  Uiso   1.00
H636   H     0.31742   0.14721   0.82019   0.00000  Uiso   1.00
H637   H     0.20612   0.02055   0.68901   0.00000  Uiso   1.00
H638   H     0.23564   0.02979   0.72200   0.00000  Uiso   1.00
H639   H     0.09033   0.12799   0.58756   0.00000  Uiso   1.00
H640   H     0.08449   0.18035   0.60158   0.00000  Uiso   1.00
H641   H     0.26092   0.08260   0.52308   0.00000  Uiso   1.00
H642   H     0.12491   0.33178   0.78368   0.00000  Uiso   1.00
H643   H     0.14979   0.17238   0.59938   0.00000  Uiso   1.00
H644   H     0.24332   0.08941   0.96309   0.00000  Uiso   1.00
H645   H     0.05275   0.22342   0.97813   0.00000  Uiso   1.00
H646   H     0.07805   0.22496   0.90669   0.00000  Uiso   1.00
H647   H     0.18471   0.16137   0.90180   0.00000  Uiso   1.00
H648   H     0.20439   0.11838   0.92839   0.00000  Uiso   1.00
N649   N     0.04735   0.21790   0.68293   0.00000  Uiso   1.00
N650   N     0.31235   0.13370   0.79328   0.00000  Uiso   1.00
N651   N     0.21765   0.00663   0.70806   0.00000  Uiso   1.00
N652   N     0.27774   0.08252   0.61473   0.00000  Uiso   1.00
N653   N     0.08179   0.15506   0.58057   0.00000  Uiso   1.00
O654   O     0.16667   0.16667   0.75000   0.00000  Uiso   1.00
O655   O     0.15693   0.12393   0.66625   0.00000  Uiso   1.00
O656   O     0.12687   0.20646   0.83749   0.00000  Uiso   1.00
O657   O     0.21088   0.17493   0.65877   0.00000  Uiso   1.00
O658   O     0.17198   0.16135   0.83749   0.00000  Uiso   1.00
O659   O     0.17849   0.08101   0.77821   0.00000  Uiso   1.00
O660   O     0.14581   0.26136   0.76767   0.00000  Uiso   1.00
O661   O     0.07452   0.13251   0.73607   0.00000  Uiso   1.00
O662   O     0.26785   0.19179   0.71805   0.00000  Uiso   1.00
O663   O     0.06990   0.18960   0.77820   0.00000  Uiso   1.00
O664   O     0.25440   0.15277   0.76767   0.00000  Uiso   1.00
O665   O     0.13800   0.06903   0.73607   0.00000  Uiso   1.00
O666   O     0.20437   0.25527   0.71805   0.00000  Uiso   1.00
Zn667  Zn    0.19244   0.14090   0.78277   0.00000  Uiso   1.00
Zn668  Zn    0.13459   0.12378   0.72257   0.00000  Uiso   1.00
Zn669  Zn    0.21166   0.19664   0.71188   0.00000  Uiso   1.00
Zn670  Zn    0.12798   0.20535   0.78277   0.00000  Uiso   1.00
C671   C     0.38615   0.15982   0.75875   0.00000  Uiso   1.00
C672   C     0.52855   0.12524   0.95997   0.00000  Uiso   1.00
C673   C     0.55102   0.10761   0.97991   0.00000  Uiso   1.00
C674   C     0.61437   0.17348   0.74128   0.00000  Uiso   1.00
C675   C     0.54242   0.11528   0.52065   0.00000  Uiso   1.00
C676   C     0.50814   0.13840   0.54231   0.00000  Uiso   1.00
C677   C     0.56866   0.10097   0.53978   0.00000  Uiso   1.00
C678   C     0.56247   0.11068   0.58026   0.00000  Uiso   1.00
C679   C     0.50462   0.15037   0.58248   0.00000  Uiso   1.00
C680   C     0.66021   0.17591   0.73790   0.00000  Uiso   1.00
C681   C     0.34093   0.15695   0.76257   0.00000  Uiso   1.00
C682   C     0.42943   0.21046   0.92127   0.00000  Uiso   1.00
C683   C     0.51496   0.32218   0.73753   0.00000  Uiso   1.00
C684   C     0.48556   0.01204   0.76166   0.00000  Uiso   1.00
C685   C     0.48900   0.05619   0.75917   0.00000  Uiso   1.00
C686   C     0.51034   0.27765   0.74123   0.00000  Uiso   1.00
C687   C     0.52143   0.14537   0.64406   0.00000  Uiso   1.00
C688   C     0.47872   0.18748   0.85619   0.00000  Uiso   1.00
C689   C     0.46604   0.19171   0.89959   0.00000  Uiso   1.00
C690   C     0.53048   0.13585   0.60150   0.00000  Uiso   1.00
C691   C     0.41485   0.20927   0.96198   0.00000  Uiso   1.00
C692   C     0.35682   0.19928   0.70729   0.00000  Uiso   1.00
C693   C     0.48866   0.17315   0.91925   0.00000  Uiso   1.00
C694   C     0.58947   0.09503   0.59937   0.00000  Uiso   1.00
C695   C     0.47362   0.17007   0.96016   0.00000  Uiso   1.00
C696   C     0.43634   0.18888   0.98148   0.00000  Uiso   1.00
C697   C     0.49475   0.14923   0.98042   0.00000  Uiso   1.00
C698   C     0.48090   0.15143   0.52242   0.00000  Uiso   1.00
C699   C     0.44024   0.16594   0.54220   0.00000  Uiso   1.00
C700   C     0.41960   0.18552   0.52172   0.00000  Uiso   1.00
H701   H     0.38913   0.19693   0.53735   0.00000  Uiso   1.00
H702   H     0.65397   0.10323   0.78861   0.00000  Uiso   1.00
H703   H     0.65076   0.14721   0.82019   0.00000  Uiso   1.00
H704   H     0.53945   0.02055   0.68901   0.00000  Uiso   1.00
H705   H     0.56897   0.02979   0.72200   0.00000  Uiso   1.00
H706   H     0.42367   0.12799   0.58756   0.00000  Uiso   1.00
H707   H     0.41782   0.18035   0.60158   0.00000  Uiso   1.00
H708   H     0.59425   0.08260   0.52308   0.00000  Uiso   1.00
H709   H     0.45825   0.33178   0.78368   0.00000  Uiso   1.00
H710   H     0.48312   0.17238   0.59938   0.00000  Uiso   1.00
H711   H     0.57666   0.08941   0.96309   0.00000  Uiso   1.00
H712   H     0.38609   0.22342   0.97813   0.00000  Uiso   1.00
H713   H     0.41138   0.22496   0.90669   0.00000  Uiso   1.00
H714   H     0.51804   0.16137   0.90180   0.00000  Uiso   1.00
H715   H     0.53772   0.11838   0.92839   0.00000  Uiso   1.00
N716   N     0.38068   0.21790   0.68293   0.00000  Uiso   1.00
N717   N     0.64569   0.13370   0.79328   0.00000  Uiso   1.00
N718   N     0.55098   0.00663   0.70806   0.00000  Uiso   1.00
N719   N     0.61108   0.08252   0.61473   0.00000  Uiso   1.00
N720   N     0.41512   0.15506   0.58057   0.00000  Uiso   1.00
O721   O     0.50000   0.16667   0.75000   0.00000  Uiso   1.00
O722   O     0.49027   0.12393   0.66625   0.00000  Uiso   1.00
O723   O     0.46020   0.20646   0.83749   0.00000  Uiso   1.00
O724   O     0.54421   0.17493   0.65877   0.00000  Uiso   1.00
O725   O     0.50532   0.16135   0.83749   0.00000  Uiso   1.00
O726   O     0.51182   0.08101   0.77821   0.00000  Uiso   1.00
O727   O     0.47914   0.26136   0.76767   0.00000  Uiso   1.00
O728   O     0.40785   0.13251   0.73607   0.00000  Uiso   1.00
O729   O     0.60119   0.19179   0.71805   0.00000  Uiso   1.00
O730   O     0.40323   0.18960   0.77820   0.00000  Uiso   1.00
O731   O     0.58773   0.15277   0.76767   0.00000  Uiso   1.00
O732   O     0.47133   0.06903   0.73607   0.00000  Uiso   1.00
O733   O     0.53771   0.25527   0.71805   0.00000  Uiso   1.00
Zn734  Zn    0.52577   0.14090   0.78277   0.00000  Uiso   1.00
Zn735  Zn    0.46792   0.12378   0.72257   0.00000  Uiso   1.00
Zn736  Zn    0.54500   0.19664   0.71188   0.00000  Uiso   1.00
Zn737  Zn    0.46131   0.20535   0.78277   0.00000  Uiso   1.00
C738   C     0.71948   0.15982   0.75875   0.00000  Uiso   1.00
C739   C     0.86188   0.12524   0.95997   0.00000  Uiso   1.00
C740   C     0.88435   0.10761   0.97991   0.00000  Uiso   1.00
C741   C     0.94771   0.17348   0.74128   0.00000  Uiso   1.00
C742   C     0.87575   0.11528   0.52065   0.00000  Uiso   1.00
C743   C     0.84147   0.13840   0.54231   0.00000  Uiso   1.00
C744   C     0.90200   0.10097   0.53978   0.00000  Uiso   1.00
C745   C     0.89580   0.11068   0.58026   0.00000  Uiso   1.00
C746   C     0.83795   0.15037   0.58248   0.00000  Uiso   1.00
C747   C     0.99355   0.17591   0.73790   0.00000  Uiso   1.00
C748   C     0.67426   0.15695   0.76257   0.00000  Uiso   1.00
C749   C     0.76277   0.21046   0.92127   0.00000  Uiso   1.00
C750   C     0.84830   0.32218   0.73753   0.00000  Uiso   1.00
C751   C     0.81889   0.01204   0.76166   0.00000  Uiso   1.00
C752   C     0.82233   0.05619   0.75917   0.00000  Uiso   1.00
C753   C     0.84368   0.27765   0.74123   0.00000  Uiso   1.00
C754   C     0.85476   0.14537   0.64406   0.00000  Uiso   1.00
C755   C     0.81205   0.18748   0.85619   0.00000  Uiso   1.00
C756   C     0.79937   0.19171   0.89959   0.00000  Uiso   1.00
C757   C     0.86381   0.13585   0.60150   0.00000  Uiso   1.00
C758   C     0.74818   0.20927   0.96198   0.00000  Uiso   1.00
C759   C     0.69015   0.19928   0.70729   0.00000  Uiso   1.00
C760   C     0.82199   0.17315   0.91925   0.00000  Uiso   1.00
C761   C     0.92280   0.09503   0.59937   0.00000  Uiso   1.00
C762   C     0.80695   0.17007   0.96016   0.00000  Uiso   1.00
C763   C     0.76968   0.18888   0.98148   0.00000  Uiso   1.00
C764   C     0.82809   0.14923   0.98042   0.00000  Uiso   1.00
C765   C     0.81423   0.15143   0.52242   0.00000  Uiso   1.00
C766   C     0.77357   0.16594   0.54220   0.00000  Uiso   1.00
C767   C     0.75294   0.18552   0.52172   0.00000  Uiso   1.00
H768   H     0.72246   0.19693   0.53735   0.00000  Uiso   1.00
H769   H     0.98730   0.10323   0.78861   0.00000  Uiso   1.00
H770   H     0.98409   0.14721   0.82019   0.00000  Uiso   1.00
H771   H     0.87278   0.02055   0.68901   0.00000  Uiso   1.00
H772   H     0.90230   0.02979   0.72200   0.00000  Uiso   1.00
H773   H     0.75700   0.12799   0.58756   0.00000  Uiso   1.00
H774   H     0.75115   0.18035   0.60158   0.00000  Uiso   1.00
H775   H     0.92758   0.08260   0.52308   0.00000  Uiso   1.00
H776   H     0.79158   0.33178   0.78368   0.00000  Uiso   1.00
H777   H     0.81645   0.17238   0.59938   0.00000  Uiso   1.00
H778   H     0.90999   0.08941   0.96309   0.00000  Uiso   1.00
H779   H     0.71942   0.22342   0.97813   0.00000  Uiso   1.00
H780   H     0.74471   0.22496   0.90669   0.00000  Uiso   1.00
H781   H     0.85137   0.16137   0.90180   0.00000  Uiso   1.00
H782   H     0.87105   0.11838   0.92839   0.00000  Uiso   1.00
N783   N     0.71402   0.21790   0.68293   0.00000  Uiso   1.00
N784   N     0.97902   0.13370   0.79328   0.00000  Uiso   1.00
N785   N     0.88432   0.00663   0.70806   0.00000  Uiso   1.00
N786   N     0.94441   0.08252   0.61473   0.00000  Uiso   1.00
N787   N     0.74846   0.15506   0.58057   0.00000  Uiso   1.00
O788   O     0.83333   0.16667   0.75000   0.00000  Uiso   1.00
O789   O     0.82360   0.12393   0.66625   0.00000  Uiso   1.00
O790   O     0.79354   0.20646   0.83749   0.00000  Uiso   1.00
O791   O     0.87755   0.17493   0.65877   0.00000  Uiso   1.00
O792   O     0.83865   0.16135   0.83749   0.00000  Uiso   1.00
O793   O     0.84515   0.08101   0.77821   0.00000  Uiso   1.00
O794   O     0.81247   0.26136   0.76767   0.00000  Uiso   1.00
O795   O     0.74119   0.13251   0.73607   0.00000  Uiso   1.00
O796   O     0.93452   0.19179   0.71805   0.00000  Uiso   1.00
O797   O     0.73656   0.18960   0.77820   0.00000  Uiso   1.00
O798   O     0.92106   0.15277   0.76767   0.00000  Uiso   1.00
O799   O     0.80467   0.06903   0.73607   0.00000  Uiso   1.00
O800   O     0.87104   0.25527   0.71805   0.00000  Uiso   1.00
Zn801  Zn    0.85910   0.14090   0.78277   0.00000  Uiso   1.00
Zn802  Zn    0.80125   0.12378   0.72257   0.00000  Uiso   1.00
Zn803  Zn    0.87833   0.19664   0.71188   0.00000  Uiso   1.00
Zn804  Zn    0.79465   0.20535   0.78277   0.00000  Uiso   1.00
C805   C     0.05282   0.49316   0.75875   0.00000  Uiso   1.00
C806   C     0.19522   0.45857   0.95997   0.00000  Uiso   1.00
C807   C     0.21769   0.44095   0.97991   0.00000  Uiso   1.00
C808   C     0.28104   0.50681   0.74128   0.00000  Uiso   1.00
C809   C     0.20908   0.44862   0.52065   0.00000  Uiso   1.00
C810   C     0.17480   0.47173   0.54231   0.00000  Uiso   1.00
C811   C     0.23533   0.43431   0.53978   0.00000  Uiso   1.00
C812   C     0.22913   0.44401   0.58026   0.00000  Uiso   1.00
C813   C     0.17129   0.48371   0.58248   0.00000  Uiso   1.00
C814   C     0.32688   0.50924   0.73790   0.00000  Uiso   1.00
C815   C     0.00760   0.49028   0.76257   0.00000  Uiso   1.00
C816   C     0.09610   0.54379   0.92127   0.00000  Uiso   1.00
C817   C     0.18163   0.65552   0.73753   0.00000  Uiso   1.00
C818   C     0.15222   0.34537   0.76166   0.00000  Uiso   1.00
C819   C     0.15566   0.38952   0.75917   0.00000  Uiso   1.00
C820   C     0.17701   0.61098   0.74123   0.00000  Uiso   1.00
C821   C     0.18809   0.47870   0.64406   0.00000  Uiso   1.00
C822   C     0.14539   0.52081   0.85619   0.00000  Uiso   1.00
C823   C     0.13270   0.52505   0.89959   0.00000  Uiso   1.00
C824   C     0.19714   0.46918   0.60150   0.00000  Uiso   1.00
C825   C     0.08152   0.54260   0.96198   0.00000  Uiso   1.00
C826   C     0.02349   0.53261   0.70729   0.00000  Uiso   1.00
C827   C     0.15532   0.50648   0.91925   0.00000  Uiso   1.00
C828   C     0.25613   0.42836   0.59937   0.00000  Uiso   1.00
C829   C     0.14028   0.50340   0.96016   0.00000  Uiso   1.00
C830   C     0.10301   0.52221   0.98148   0.00000  Uiso   1.00
C831   C     0.16142   0.48257   0.98042   0.00000  Uiso   1.00
C832   C     0.14757   0.48477   0.52242   0.00000  Uiso   1.00
C833   C     0.10691   0.49927   0.54220   0.00000  Uiso   1.00
C834   C     0.08627   0.51886   0.52172   0.00000  Uiso   1.00
H835   H     0.05579   0.53026   0.53735   0.00000  Uiso   1.00
H836   H     0.32064   0.43657   0.78861   0.00000  Uiso   1.00
H837   H     0.31742   0.48054   0.82019   0.00000  Uiso   1.00
H838   H     0.20612   0.35388   0.68901   0.00000  Uiso   1.00
H839   H     0.23564   0.36312   0.72200   0.00000  Uiso   1.00
H840   H     0.09033   0.46133   0.58756   0.00000  Uiso   1.00
H841   H     0.08449   0.51369   0.60158   0.00000  Uiso   1.00
H842   H     0.26092   0.41594   0.52308   0.00000  Uiso   1.00
H843   H     0.12491   0.66511   0.78368   0.00000  Uiso   1.00
H844   H     0.14979   0.50572   0.59938   0.00000  Uiso   1.00
H845   H     0.24332   0.42274   0.96309   0.00000  Uiso   1.00
H846   H     0.05275   0.55676   0.97813   0.00000  Uiso   1.00
H847   H     0.07805   0.55829   0.90669   0.00000  Uiso   1.00
H848   H     0.18471   0.49471   0.90180   0.00000  Uiso   1.00
H849   H     0.20439   0.45171   0.92839   0.00000  Uiso   1.00
N850   N     0.04735   0.55123   0.68293   0.00000  Uiso   1.00
N851   N     0.31235   0.46704   0.79328   0.00000  Uiso   1.00
N852   N     0.21765   0.33996   0.70806   0.00000  Uiso   1.00
N853   N     0.27774   0.41585   0.61473   0.00000  Uiso   1.00
N854   N     0.08179   0.48839   0.58057   0.00000  Uiso   1.00
O855   O     0.16667   0.50000   0.75000   0.00000  Uiso   1.00
O856   O     0.15693   0.45726   0.66625   0.00000  Uiso   1.00
O857   O     0.12687   0.53979   0.83749   0.00000  Uiso   1.00
O858   O     0.21088   0.50826   0.65877   0.00000  Uiso   1.00
O859   O     0.17198   0.49468   0.83749   0.00000  Uiso   1.00
O860   O     0.17849   0.41434   0.77821   0.00000  Uiso   1.00
O861   O     0.14581   0.59469   0.76767   0.00000  Uiso   1.00
O862   O     0.07452   0.46584   0.73607   0.00000  Uiso   1.00
O863   O     0.26785   0.52512   0.71805   0.00000  Uiso   1.00
O864   O     0.06990   0.52293   0.77820   0.00000  Uiso   1.00
O865   O     0.25440   0.48610   0.76767   0.00000  Uiso   1.00
O866   O     0.13800   0.40236   0.73607   0.00000  Uiso   1.00
O867   O     0.20437   0.58860   0.71805   0.00000  Uiso   1.00
Zn868  Zn    0.19244   0.47423   0.78277   0.00000  Uiso   1.00
Zn869  Zn    0.13459   0.45711   0.72257   0.00000  Uiso   1.00
Zn870  Zn    0.21166   0.52997   0.71188   0.00000  Uiso   1.00
Zn871  Zn    0.12798   0.53868   0.78277   0.00000  Uiso   1.00
C872   C     0.38615   0.49316   0.75875   0.00000  Uiso   1.00
C873   C     0.52855   0.45857   0.95997   0.00000  Uiso   1.00
C874   C     0.55102   0.44095   0.97991   0.00000  Uiso   1.00
C875   C     0.61437   0.50681   0.74128   0.00000  Uiso   1.00
C876   C     0.54242   0.44862   0.52065   0.00000  Uiso   1.00
C877   C     0.50814   0.47173   0.54231   0.00000  Uiso   1.00
C878   C     0.56866   0.43431   0.53978   0.00000  Uiso   1.00
C879   C     0.56247   0.44401   0.58026   0.00000  Uiso   1.00
C880   C     0.50462   0.48371   0.58248   0.00000  Uiso   1.00
C881   C     0.66021   0.50924   0.73790   0.00000  Uiso   1.00
C882   C     0.34093   0.49028   0.76257   0.00000  Uiso   1.00
C883   C     0.42943   0.54379   0.92127   0.00000  Uiso   1.00
C884   C     0.51496   0.65552   0.73753   0.00000  Uiso   1.00
C885   C     0.48556   0.34537   0.76166   0.00000  Uiso   1.00
C886   C     0.48900   0.38952   0.75917   0.00000  Uiso   1.00
C887   C     0.51034   0.61098   0.74123   0.00000  Uiso   1.00
C888   C     0.52143   0.47870   0.64406   0.00000  Uiso   1.00
C889   C     0.47872   0.52081   0.85619   0.00000  Uiso   1.00
C890   C     0.46604   0.52505   0.89959   0.00000  Uiso   1.00
C891   C     0.53048   0.46918   0.60150   0.00000  Uiso   1.00
C892   C     0.41485   0.54260   0.96198   0.00000  Uiso   1.00
C893   C     0.35682   0.53261   0.70729   0.00000  Uiso   1.00
C894   C     0.48866   0.50648   0.91925   0.00000  Uiso   1.00
C895   C     0.58947   0.42836   0.59937   0.00000  Uiso   1.00
C896   C     0.47362   0.50340   0.96016   0.00000  Uiso   1.00
C897   C     0.43634   0.52221   0.98148   0.00000  Uiso   1.00
C898   C     0.49475   0.48257   0.98042   0.00000  Uiso   1.00
C899   C     0.48090   0.48477   0.52242   0.00000  Uiso   1.00
C900   C     0.44024   0.49927   0.54220   0.00000  Uiso   1.00
C901   C     0.41960   0.51886   0.52172   0.00000  Uiso   1.00
H902   H     0.38913   0.53026   0.53735   0.00000  Uiso   1.00
H903   H     0.65397   0.43657   0.78861   0.00000  Uiso   1.00
H904   H     0.65076   0.48054   0.82019   0.00000  Uiso   1.00
H905   H     0.53945   0.35388   0.68901   0.00000  Uiso   1.00
H906   H     0.56897   0.36312   0.72200   0.00000  Uiso   1.00
H907   H     0.42367   0.46133   0.58756   0.00000  Uiso   1.00
H908   H     0.41782   0.51369   0.60158   0.00000  Uiso   1.00
H909   H     0.59425   0.41594   0.52308   0.00000  Uiso   1.00
H910   H     0.45825   0.66511   0.78368   0.00000  Uiso   1.00
H911   H     0.48312   0.50572   0.59938   0.00000  Uiso   1.00
H912   H     0.57666   0.42274   0.96309   0.00000  Uiso   1.00
H913   H     0.38609   0.55676   0.97813   0.00000  Uiso   1.00
H914   H     0.41138   0.55829   0.90669   0.00000  Uiso   1.00
H915   H     0.51804   0.49471   0.90180   0.00000  Uiso   1.00
H916   H     0.53772   0.45171   0.92839   0.00000  Uiso   1.00
N917   N     0.38068   0.55123   0.68293   0.00000  Uiso   1.00
N918   N     0.64569   0.46704   0.79328   0.00000  Uiso   1.00
N919   N     0.55098   0.33996   0.70806   0.00000  Uiso   1.00
N920   N     0.61108   0.41585   0.61473   0.00000  Uiso   1.00
N921   N     0.41512   0.48839   0.58057   0.00000  Uiso   1.00
O922   O     0.50000   0.50000   0.75000   0.00000  Uiso   1.00
O923   O     0.49027   0.45726   0.66625   0.00000  Uiso   1.00
O924   O     0.46020   0.53979   0.83749   0.00000  Uiso   1.00
O925   O     0.54421   0.50826   0.65877   0.00000  Uiso   1.00
O926   O     0.50532   0.49468   0.83749   0.00000  Uiso   1.00
O927   O     0.51182   0.41434   0.77821   0.00000  Uiso   1.00
O928   O     0.47914   0.59469   0.76767   0.00000  Uiso   1.00
O929   O     0.40785   0.46584   0.73607   0.00000  Uiso   1.00
O930   O     0.60119   0.52512   0.71805   0.00000  Uiso   1.00
O931   O     0.40323   0.52293   0.77820   0.00000  Uiso   1.00
O932   O     0.58773   0.48610   0.76767   0.00000  Uiso   1.00
O933   O     0.47133   0.40236   0.73607   0.00000  Uiso   1.00
O934   O     0.53771   0.58860   0.71805   0.00000  Uiso   1.00
Zn935  Zn    0.52577   0.47423   0.78277   0.00000  Uiso   1.00
Zn936  Zn    0.46792   0.45711   0.72257   0.00000  Uiso   1.00
Zn937  Zn    0.54500   0.52997   0.71188   0.00000  Uiso   1.00
Zn938  Zn    0.46131   0.53868   0.78277   0.00000  Uiso   1.00
C939   C     0.71948   0.49316   0.75875   0.00000  Uiso   1.00
C940   C     0.86188   0.45857   0.95997   0.00000  Uiso   1.00
C941   C     0.88435   0.44095   0.97991   0.00000  Uiso   1.00
C942   C     0.94771   0.50681   0.74128   0.00000  Uiso   1.00
C943   C     0.87575   0.44862   0.52065   0.00000  Uiso   1.00
C944   C     0.84147   0.47173   0.54231   0.00000  Uiso   1.00
C945   C     0.90200   0.43431   0.53978   0.00000  Uiso   1.00
C946   C     0.89580   0.44401   0.58026   0.00000  Uiso   1.00
C947   C     0.83795   0.48371   0.58248   0.00000  Uiso   1.00
C948   C     0.99355   0.50924   0.73790   0.00000  Uiso   1.00
C949   C     0.67426   0.49028   0.76257   0.00000  Uiso   1.00
C950   C     0.76277   0.54379   0.92127   0.00000  Uiso   1.00
C951   C     0.84830   0.65552   0.73753   0.00000  Uiso   1.00
C952   C     0.81889   0.34537   0.76166   0.00000  Uiso   1.00
C953   C     0.82233   0.38952   0.75917   0.00000  Uiso   1.00
C954   C     0.84368   0.61098   0.74123   0.00000  Uiso   1.00
C955   C     0.85476   0.47870   0.64406   0.00000  Uiso   1.00
C956   C     0.81205   0.52081   0.85619   0.00000  Uiso   1.00
C957   C     0.79937   0.52505   0.89959   0.00000  Uiso   1.00
C958   C     0.86381   0.46918   0.60150   0.00000  Uiso   1.00
C959   C     0.74818   0.54260   0.96198   0.00000  Uiso   1.00
C960   C     0.69015   0.53261   0.70729   0.00000  Uiso   1.00
C961   C     0.82199   0.50648   0.91925   0.00000  Uiso   1.00
C962   C     0.92280   0.42836   0.59937   0.00000  Uiso   1.00
C963   C     0.80695   0.50340   0.96016   0.00000  Uiso   1.00
C964   C     0.76968   0.52221   0.98148   0.00000  Uiso   1.00
C965   C     0.82809   0.48257   0.98042   0.00000  Uiso   1.00
C966   C     0.81423   0.48477   0.52242   0.00000  Uiso   1.00
C967   C     0.77357   0.49927   0.54220   0.00000  Uiso   1.00
C968   C     0.75294   0.51886   0.52172   0.00000  Uiso   1.00
H969   H     0.72246   0.53026   0.53735   0.00000  Uiso   1.00
H970   H     0.98730   0.43657   0.78861   0.00000  Uiso   1.00
H971   H     0.98409   0.48054   0.82019   0.00000  Uiso   1.00
H972   H     0.87278   0.35388   0.68901   0.00000  Uiso   1.00
H973   H     0.90230   0.36312   0.72200   0.00000  Uiso   1.00
H974   H     0.75700   0.46133   0.58756   0.00000  Uiso   1.00
H975   H     0.75115   0.51369   0.60158   0.00000  Uiso   1.00
H976   H     0.92758   0.41594   0.52308   0.00000  Uiso   1.00
H977   H     0.79158   0.66511   0.78368   0.00000  Uiso   1.00
H978   H     0.81645   0.50572   0.59938   0.00000  Uiso   1.00
H979   H     0.90999   0.42274   0.96309   0.00000  Uiso   1.00
H980   H     0.71942   0.55676   0.97813   0.00000  Uiso   1.00
H981   H     0.74471   0.55829   0.90669   0.00000  Uiso   1.00
H982   H     0.85137   0.49471   0.90180   0.00000  Uiso   1.00
H983   H     0.87105   0.45171   0.92839   0.00000  Uiso   1.00
N984   N     0.71402   0.55123   0.68293   0.00000  Uiso   1.00
N985   N     0.97902   0.46704   0.79328   0.00000  Uiso   1.00
N986   N     0.88432   0.33996   0.70806   0.00000  Uiso   1.00
N987   N     0.94441   0.41585   0.61473   0.00000  Uiso   1.00
N988   N     0.74846   0.48839   0.58057   0.00000  Uiso   1.00
O989   O     0.83333   0.50000   0.75000   0.00000  Uiso   1.00
O990   O     0.82360   0.45726   0.66625   0.00000  Uiso   1.00
O991   O     0.79354   0.53979   0.83749   0.00000  Uiso   1.00
O992   O     0.87755   0.50826   0.65877   0.00000  Uiso   1.00
O993   O     0.83865   0.49468   0.83749   0.00000  Uiso   1.00
O994   O     0.84515   0.41434   0.77821   0.00000  Uiso   1.00
O995   O     0.81247   0.59469   0.76767   0.00000  Uiso   1.00
O996   O     0.74119   0.46584   0.73607   0.00000  Uiso   1.00
O997   O     0.93452   0.52512   0.71805   0.00000  Uiso   1.00
O998   O     0.73656   0.52293   0.77820   0.00000  Uiso   1.00
O999   O     0.92106   0.48610   0.76767   0.00000  Uiso   1.00
O1000  O     0.80467   0.40236   0.73607   0.00000  Uiso   1.00
O1001  O     0.87104   0.58860   0.71805   0.00000  Uiso   1.00
Zn1002 Zn    0.85910   0.47423   0.78277   0.00000  Uiso   1.00
Zn1003 Zn    0.80125   0.45711   0.72257   0.00000  Uiso   1.00
Zn1004 Zn    0.87833   0.52997   0.71188   0.00000  Uiso   1.00
Zn1005 Zn    0.79465   0.53868   0.78277   0.00000  Uiso   1.00
C1006  C     0.05282   0.82649   0.75875   0.00000  Uiso   1.00
C1007  C     0.19522   0.79191   0.95997   0.00000  Uiso   1.00
C1008  C     0.21769   0.77428   0.97991   0.00000  Uiso   1.00
C1009  C     0.28104   0.84014   0.74128   0.00000  Uiso   1.00
C1010  C     0.20908   0.78195   0.52065   0.00000  Uiso   1.00
C1011  C     0.17480   0.80506   0.54231   0.00000  Uiso   1.00
C1012  C     0.23533   0.76764   0.53978   0.00000  Uiso   1.00
C1013  C     0.22913   0.77734   0.58026   0.00000  Uiso   1.00
C1014  C     0.17129   0.81704   0.58248   0.00000  Uiso   1.00
C1015  C     0.32688   0.84258   0.73790   0.00000  Uiso   1.00
C1016  C     0.00760   0.82362   0.76257   0.00000  Uiso   1.00
C1017  C     0.09610   0.87712   0.92127   0.00000  Uiso   1.00
C1018  C     0.18163   0.98885   0.73753   0.00000  Uiso   1.00
C1019  C     0.15222   0.67871   0.76166   0.00000  Uiso   1.00
C1020  C     0.15566   0.72285   0.75917   0.00000  Uiso   1.00
C1021  C     0.17701   0.94432   0.74123   0.00000  Uiso   1.00
C1022  C     0.18809   0.81204   0.64406   0.00000  Uiso   1.00
C1023  C     0.14539   0.85415   0.85619   0.00000  Uiso   1.00
C1024  C     0.13270   0.85838   0.89959   0.00000  Uiso   1.00
C1025  C     0.19714   0.80252   0.60150   0.00000  Uiso   1.00
C1026  C     0.08152   0.87593   0.96198   0.00000  Uiso   1.00
C1027  C     0.02349   0.86595   0.70729   0.00000  Uiso   1.00
C1028  C     0.15532   0.83982   0.91925   0.00000  Uiso   1.00
C1029  C     0.25613   0.76169   0.59937   0.00000  Uiso   1.00
C1030  C     0.14028   0.83674   0.96016   0.00000  Uiso   1.00
C1031  C     0.10301   0.85555   0.98148   0.00000  Uiso   1.00
C1032  C     0.16142   0.81590   0.98042   0.00000  Uiso   1.00
C1033  C     0.14757   0.81810   0.52242   0.00000  Uiso   1.00
C1034  C     0.10691   0.83260   0.54220   0.00000  Uiso   1.00
C1035  C     0.08627   0.85219   0.52172   0.00000  Uiso   1.00
H1036  H     0.05579   0.86359   0.53735   0.00000  Uiso   1.00
H1037  H     0.32064   0.76990   0.78861   0.00000  Uiso   1.00
H1038  H     0.31742   0.81387   0.82019   0.00000  Uiso   1.00
H1039  H     0.20612   0.68721   0.68901   0.00000  Uiso   1.00
H1040  H     0.23564   0.69646   0.72200   0.00000  Uiso   1.00
H1041  H     0.09033   0.79466   0.58756   0.00000  Uiso   1.00
H1042  H     0.08449   0.84702   0.60158   0.00000  Uiso   1.00
H1043  H     0.26092   0.74927   0.52308   0.00000  Uiso   1.00
H1044  H     0.12491   0.99845   0.78368   0.00000  Uiso   1.00
H1045  H     0.14979   0.83905   0.59938   0.00000  Uiso   1.00
H1046  H     0.24332   0.75607   0.96309   0.00000  Uiso   1.00
H1047  H     0.05275   0.89009   0.97813   0.00000  Uiso   1.00
H1048  H     0.07805   0.89163   0.90669   0.00000  Uiso   1.00
H1049  H     0.18471   0.82804   0.90180   0.00000  Uiso   1.00
H1050  H     0.20439   0.78505   0.92839   0.00000  Uiso   1.00
N1051  N     0.04735   0.88457   0.68293   0.00000  Uiso   1.00
N1052  N     0.31235   0.80037   0.79328   0.00000  Uiso   1.00
N1053  N     0.21765   0.67330   0.70806   0.00000  Uiso   1.00
N1054  N     0.27774   0.74918   0.61473   0.00000  Uiso   1.00
N1055  N     0.08179   0.82173   0.58057   0.00000  Uiso   1.00
O1056  O     0.16667   0.83333   0.75000   0.00000  Uiso   1.00
O1057  O     0.15693   0.79060   0.66625   0.00000  Uiso   1.00
O1058  O     0.12687   0.87313   0.83749   0.00000  Uiso   1.00
O1059  O     0.21088   0.84159   0.65877   0.00000  Uiso   1.00
O1060  O     0.17198   0.82802   0.83749   0.00000  Uiso   1.00
O1061  O     0.17849   0.74768   0.77821   0.00000  Uiso   1.00
O1062  O     0.14581   0.92803   0.76767   0.00000  Uiso   1.00
O1063  O     0.07452   0.79917   0.73607   0.00000  Uiso   1.00
O1064  O     0.26785   0.85845   0.71805   0.00000  Uiso   1.00
O1065  O     0.06990   0.85627   0.77820   0.00000  Uiso   1.00
O1066  O     0.25440   0.81944   0.76767   0.00000  Uiso   1.00
O1067  O     0.13800   0.73570   0.73607   0.00000  Uiso   1.00
O1068  O     0.20437   0.92193   0.71805   0.00000  Uiso   1.00
Zn1069 Zn    0.19244   0.80756   0.78277   0.00000  Uiso   1.00
Zn1070 Zn    0.13459   0.79044   0.72257   0.00000  Uiso   1.00
Zn1071 Zn    0.21166   0.86331   0.71188   0.00000  Uiso   1.00
Zn1072 Zn    0.12798   0.87202   0.78277   0.00000  Uiso   1.00
C1073  C     0.38615   0.82649   0.75875   0.00000  Uiso   1.00
C1074  C     0.52855   0.79191   0.95997   0.00000  Uiso   1.00
C1075  C     0.55102   0.77428   0.97991   0.00000  Uiso   1.00
C1076  C     0.61437   0.84014   0.74128   0.00000  Uiso   1.00
C1077  C     0.54242   0.78195   0.52065   0.00000  Uiso   1.00
C1078  C     0.50814   0.80506   0.54231   0.00000  Uiso   1.00
C1079  C     0.56866   0.76764   0.53978   0.00000  Uiso   1.00
C1080  C     0.56247   0.77734   0.58026   0.00000  Uiso   1.00
C1081  C     0.50462   0.81704   0.58248   0.00000  Uiso   1.00
C1082  C     0.66021   0.84258   0.73790   0.00000  Uiso   1.00
C1083  C     0.34093   0.82362   0.76257   0.00000  Uiso   1.00
C1084  C     0.42943   0.87712   0.92127   0.00000  Uiso   1.00
C1085  C     0.51496   0.98885   0.73753   0.00000  Uiso   1.00
C1086  C     0.48556   0.67871   0.76166   0.00000  Uiso   1.00
C1087  C     0.48900   0.72285   0.75917   0.00000  Uiso   1.00
C1088  C     0.51034   0.94432   0.74123   0.00000  Uiso   1.00
C1089  C     0.52143   0.81204   0.64406   0.00000  Uiso   1.00
C1090  C     0.47872   0.85415   0.85619   0.00000  Uiso   1.00
C1091  C     0.46604   0.85838   0.89959   0.00000  Uiso   1.00
C1092  C     0.53048   0.80252   0.60150   0.00000  Uiso   1.00
C1093  C     0.41485   0.87593   0.96198   0.00000  Uiso   1.00
C1094  C     0.35682   0.86595   0.70729   0.00000  Uiso   1.00
C1095  C     0.48866   0.83982   0.91925   0.00000  Uiso   1.00
C1096  C     0.58947   0.76169   0.59937   0.00000  Uiso   1.00
C1097  C     0.47362   0.83674   0.96016   0.00000  Uiso   1.00
C1098  C     0.43634   0.85555   0.98148   0.00000  Uiso   1.00
C1099  C     0.49475   0.81590   0.98042   0.00000  Uiso   1.00
C1100  C     0.48090   0.81810   0.52242   0.00000  Uiso   1.00
C1101  C     0.44024   0.83260   0.54220   0.00000  Uiso   1.00
C1102  C     0.41960   0.85219   0.52172   0.00000  Uiso   1.00
H1103  H     0.38913   0.86359   0.53735   0.00000  Uiso   1.00
H1104  H     0.65397   0.76990   0.78861   0.00000  Uiso   1.00
H1105  H     0.65076   0.81387   0.82019   0.00000  Uiso   1.00
H1106  H     0.53945   0.68721   0.68901   0.00000  Uiso   1.00
H1107  H     0.56897   0.69646   0.72200   0.00000  Uiso   1.00
H1108  H     0.42367   0.79466   0.58756   0.00000  Uiso   1.00
H1109  H     0.41782   0.84702   0.60158   0.00000  Uiso   1.00
H1110  H     0.59425   0.74927   0.52308   0.00000  Uiso   1.00
H1111  H     0.45825   0.99845   0.78368   0.00000  Uiso   1.00
H1112  H     0.48312   0.83905   0.59938   0.00000  Uiso   1.00
H1113  H     0.57666   0.75607   0.96309   0.00000  Uiso   1.00
H1114  H     0.38609   0.89009   0.97813   0.00000  Uiso   1.00
H1115  H     0.41138   0.89163   0.90669   0.00000  Uiso   1.00
H1116  H     0.51804   0.82804   0.90180   0.00000  Uiso   1.00
H1117  H     0.53772   0.78505   0.92839   0.00000  Uiso   1.00
N1118  N     0.38068   0.88457   0.68293   0.00000  Uiso   1.00
N1119  N     0.64569   0.80037   0.79328   0.00000  Uiso   1.00
N1120  N     0.55098   0.67330   0.70806   0.00000  Uiso   1.00
N1121  N     0.61108   0.74918   0.61473   0.00000  Uiso   1.00
N1122  N     0.41512   0.82173   0.58057   0.00000  Uiso   1.00
O1123  O     0.50000   0.83333   0.75000   0.00000  Uiso   1.00
O1124  O     0.49027   0.79060   0.66625   0.00000  Uiso   1.00
O1125  O     0.46020   0.87313   0.83749   0.00000  Uiso   1.00
O1126  O     0.54421   0.84159   0.65877   0.00000  Uiso   1.00
O1127  O     0.50532   0.82802   0.83749   0.00000  Uiso   1.00
O1128  O     0.51182   0.74768   0.77821   0.00000  Uiso   1.00
O1129  O     0.47914   0.92803   0.76767   0.00000  Uiso   1.00
O1130  O     0.40785   0.79917   0.73607   0.00000  Uiso   1.00
O1131  O     0.60119   0.85845   0.71805   0.00000  Uiso   1.00
O1132  O     0.40323   0.85627   0.77820   0.00000  Uiso   1.00
O1133  O     0.58773   0.81944   0.76767   0.00000  Uiso   1.00
O1134  O     0.47133   0.73570   0.73607   0.00000  Uiso   1.00
O1135  O     0.53771   0.92193   0.71805   0.00000  Uiso   1.00
Zn1136 Zn    0.52577   0.80756   0.78277   0.00000  Uiso   1.00
Zn1137 Zn    0.46792   0.79044   0.72257   0.00000  Uiso   1.00
Zn1138 Zn    0.54500   0.86331   0.71188   0.00000  Uiso   1.00
Zn1139 Zn    0.46131   0.87202   0.78277   0.00000  Uiso   1.00
C1140  C     0.71948   0.82649   0.75875   0.00000  Uiso   1.00
C1141  C     0.86188   0.79191   0.95997   0.00000  Uiso   1.00
C1142  C     0.88435   0.77428   0.97991   0.00000  Uiso   1.00
C1143  C     0.94771   0.84014   0.74128   0.00000  Uiso   1.00
C1144  C     0.87575   0.78195   0.52065   0.00000  Uiso   1.00
C1145  C     0.84147   0.80506   0.54231   0.00000  Uiso   1.00
C1146  C     0.90200   0.76764   0.53978   0.00000  Uiso   1.00
C1147  C     0.89580   0.77734   0.58026   0.00000  Uiso   1.00
C1148  C     0.83795   0.81704   0.58248   0.00000  Uiso   1.00
C1149  C     0.99355   0.84258   0.73790   0.00000  Uiso   1.00
C1150  C     0.67426   0.82362   0.76257   0.00000  Uiso   1.00
C1151  C     0.76277   0.87712   0.92127   0.00000  Uiso   1.00
C1152  C     0.84830   0.98885   0.73753   0.00000  Uiso   1.00
C1153  C     0.81889   0.67871   0.76166   0.00000  Uiso   1.00
C1154  C     0.82233   0.72285   0.75917   0.00000  Uiso   1.00
C1155  C     0.84368   0.94432   0.74123   0.00000  Uiso   1.00
C1156  C     0.85476   0.81204   0.64406   0.00000  Uiso   1.00
C1157  C     0.81205   0.85415   0.85619   0.00000  Uiso   1.00
C1158  C     0.79937   0.85838   0.89959   0.00000  Uiso   1.00
C1159  C     0.86381   0.80252   0.60150   0.00000  Uiso   1.00
C1160  C     0.74818   0.87593   0.96198   0.00000  Uiso   1.00
C1161  C     0.69015   0.86595   0.70729   0.00000  Uiso   1.00
C1162  C     0.82199   0.83982   0.91925   0.00000  Uiso   1.00
C1163  C     0.92280   0.76169   0.59937   0.00000  Uiso   1.00
C1164  C     0.80695   0.83674   0.96016   0.00000  Uiso   1.00
C1165  C     0.76968   0.85555   0.98148   0.00000  Uiso   1.00
C1166  C     0.82809   0.81590   0.98042   0.00000  Uiso   1.00
C1167  C     0.81423   0.81810   0.52242   0.00000  Uiso   1.00
C1168  C     0.77357   0.83260   0.54220   0.00000  Uiso   1.00
C1169  C     0.75294   0.85219   0.52172   0.00000  Uiso   1.00
H1170  H     0.72246   0.86359   0.53735   0.00000  Uiso   1.00
H1171  H     0.98730   0.76990   0.78861   0.00000  Uiso   1.00
H1172  H     0.98409   0.81387   0.82019   0.00000  Uiso   1.00
H1173  H     0.87278   0.68721   0.68901   0.00000  Uiso   1.00
H1174  H     0.90230   0.69646   0.72200   0.00000  Uiso   1.00
H1175  H     0.75700   0.79466   0.58756   0.00000  Uiso   1.00
H1176  H     0.75115   0.84702   0.60158   0.00000  Uiso   1.00
H1177  H     0.92758   0.74927   0.52308   0.00000  Uiso   1.00
H1178  H     0.79158   0.99845   0.78368   0.00000  Uiso   1.00
H1179  H     0.81645   0.83905   0.59938   0.00000  Uiso   1.00
H1180  H     0.90999   0.75607   0.96309   0.00000  Uiso   1.00
H1181  H     0.71942   0.89009   0.97813   0.00000  Uiso   1.00
H1182  H     0.74471   0.89163   0.90669   0.00000  Uiso   1.00
H1183  H     0.85137   0.82804   0.90180   0.00000  Uiso   1.00
H1184  H     0.87105   0.78505   0.92839   0.00000  Uiso   1.00
N1185  N     0.71402   0.88457   0.68293   0.00000  Uiso   1.00
N1186  N     0.97902   0.80037   0.79328   0.00000  Uiso   1.00
N1187  N     0.88432   0.67330   0.70806   0.00000  Uiso   1.00
N1188  N     0.94441   0.74918   0.61473   0.00000  Uiso   1.00
N1189  N     0.74846   0.82173   0.58057   0.00000  Uiso   1.00
O1190  O     0.83333   0.83333   0.75000   0.00000  Uiso   1.00
O1191  O     0.82360   0.79060   0.66625   0.00000  Uiso   1.00
O1192  O     0.79354   0.87313   0.83749   0.00000  Uiso   1.00
O1193  O     0.87755   0.84159   0.65877   0.00000  Uiso   1.00
O1194  O     0.83865   0.82802   0.83749   0.00000  Uiso   1.00
O1195  O     0.84515   0.74768   0.77821   0.00000  Uiso   1.00
O1196  O     0.81247   0.92803   0.76767   0.00000  Uiso   1.00
O1197  O     0.74119   0.79917   0.73607   0.00000  Uiso   1.00
O1198  O     0.93452   0.85845   0.71805   0.00000  Uiso   1.00
O1199  O     0.73656   0.85627   0.77820   0.00000  Uiso   1.00
O1200  O     0.92106   0.81944   0.76767   0.00000  Uiso   1.00
O1201  O     0.80467   0.73570   0.73607   0.00000  Uiso   1.00
O1202  O     0.87104   0.92193   0.71805   0.00000  Uiso   1.00
Zn1203 Zn    0.85910   0.80756   0.78277   0.00000  Uiso   1.00
Zn1204 Zn    0.80125   0.79044   0.72257   0.00000  Uiso   1.00
Zn1205 Zn    0.87833   0.86331   0.71188   0.00000  Uiso   1.00
Zn1206 Zn    0.79465   0.87202   0.78277   0.00000  Uiso   1.00
loop_
_geom_bond_atom_site_label_1
_geom_bond_atom_site_label_2
_geom_bond_distance
_geom_bond_site_symmetry_2
_ccdc_geom_bond_type
C1     O58     1.268   .     A
C1     O60     1.268   .     A
C1     C11     1.438   .     S
C2     C27     1.415   .     A
C2     C3      1.385   .     A
C2     H45     1.077   .     S
C3     H41     1.084   .     S
C3     C608    1.390   .     S
C4     O59     1.283   .     A
C4     C10     1.462   .     S
C4     O61     1.273   .     A
C5     C6      1.419   .     A
C5     C7      1.403   .     A
C5     C606    1.390   1_554 S
C6     C9      1.406   .     A
C6     C28     1.429   .     A
C7     C8      1.395   .     A
C7     H38     1.085   .     S
C8     C20     1.404   .     A
C8     C24     1.444   .     S
C9     C20     1.394   .     A
C9     H40     1.077   .     S
C10    C78     1.355   .     S
C10    C89     1.453   .     S
C11    C144    1.355   1_455 S
C11    N181    1.437   1_455 S
C12    C19     1.400   .     A
C12    C21     1.393   .     A
C12    H43     1.083   .     S
C13    C16     1.454   .     S
C13    C215    1.340   .     S
C13    N249    1.439   .     S
C14    C15     1.437   .     S
C14    C415    1.340   1_545 S
C14    H441    1.086   1_545 S
C15    O62     1.277   .     A
C15    O56     1.277   .     A
C16    O63     1.272   .     A
C16    O57     1.276   .     A
C17    O54     1.275   .     A
C17    C20     1.456   .     S
C17    O52     1.273   .     A
C18    O53     1.286   .     A
C18    O55     1.287   .     A
C18    C19     1.472   .     S
C19    C23     1.399   .     A
C21    C26     1.404   .     A
C21    H42     1.084   .     S
C22    N46     1.157   .     T
C22    C144    1.453   1_455 S
C23    C25     1.409   .     A
C23    H44     1.076   .     S
C24    N49     1.157   .     T
C25    C27     1.424   .     A
C25    C26     1.415   .     A
C26    C633    1.392   .     S
C27    C631    1.427   .     S
C28    C29     1.431   .     A
C28    C630    1.427   1_554 S
C29    N50     1.436   .     S
C29    C30     1.393   .     A
C30    H31     1.085   .     S
C30    C629    1.392   1_554 S
H32    N47     1.046   .     S
H33    N47     1.046   .     S
H34    N48     1.046   .     S
H35    N48     1.046   .     S
H36    N50     1.045   .     S
H37    N50     1.045   .     S
H39    C215    1.086   .     S
N47    C78     1.437   .     S
N48    C415    1.439   1_545 S
O51    Zn67    1.942   .     S
O51    Zn65    1.944   .     S
O51    Zn64    1.958   .     S
O51    Zn66    1.933   .     S
O52    Zn65    1.926   .     S
O53    Zn67    1.934   .     S
O54    Zn66    1.932   .     S
O55    Zn64    1.926   .     S
O56    Zn64    1.928   .     S
O57    Zn67    1.928   .     S
O58    Zn65    1.941   .     S
O59    Zn66    1.948   .     S
O60    Zn67    1.942   .     S
O61    Zn64    1.935   .     S
O62    Zn65    1.935   .     S
O63    Zn66    1.932   .     S
C68    O125    1.268   .     A
C68    O127    1.268   .     A
C68    C78     1.438   .     S
C69    C94     1.415   .     A
C69    C70     1.385   .     A
C69    H112    1.077   .     S
C70    H108    1.084   .     S
C70    C675    1.390   .     S
C71    O126    1.283   .     A
C71    C77     1.462   .     S
C71    O128    1.273   .     A
C72    C73     1.419   .     A
C72    C74     1.403   .     A
C72    C673    1.390   1_554 S
C73    C76     1.406   .     A
C73    C95     1.429   .     A
C74    C75     1.395   .     A
C74    H105    1.085   .     S
C75    C87     1.404   .     A
C75    C91     1.444   .     S
C76    C87     1.394   .     A
C76    H107    1.077   .     S
C77    C145    1.355   .     S
C77    C156    1.453   .     S
C79    C86     1.400   .     A
C79    C88     1.393   .     A
C79    H110    1.083   .     S
C80    C83     1.454   .     S
C80    C282    1.340   .     S
C80    N316    1.439   .     S
C81    C82     1.437   .     S
C81    C482    1.340   1_545 S
C81    H508    1.086   1_545 S
C82    O129    1.277   .     A
C82    O123    1.277   .     A
C83    O130    1.272   .     A
C83    O124    1.276   .     A
C84    O121    1.275   .     A
C84    C87     1.456   .     S
C84    O119    1.273   .     A
C85    O120    1.286   .     A
C85    O122    1.287   .     A
C85    C86     1.472   .     S
C86    C90     1.399   .     A
C88    C93     1.404   .     A
C88    H109    1.084   .     S
C89    N113    1.157   .     T
C90    C92     1.409   .     A
C90    H111    1.076   .     S
C91    N116    1.157   .     T
C92    C94     1.424   .     A
C92    C93     1.415   .     A
C93    C700    1.392   .     S
C94    C698    1.427   .     S
C95    C96     1.431   .     A
C95    C697    1.427   1_554 S
C96    N117    1.436   .     S
C96    C97     1.393   .     A
C97    H98     1.085   .     S
C97    C696    1.392   1_554 S
H99    N114    1.046   .     S
H100   N114    1.046   .     S
H101   N115    1.046   .     S
H102   N115    1.046   .     S
H103   N117    1.045   .     S
H104   N117    1.045   .     S
H106   C282    1.086   .     S
N114   C145    1.437   .     S
N115   C482    1.439   1_545 S
O118   Zn134   1.942   .     S
O118   Zn132   1.944   .     S
O118   Zn131   1.958   .     S
O118   Zn133   1.933   .     S
O119   Zn132   1.926   .     S
O120   Zn134   1.934   .     S
O121   Zn133   1.932   .     S
O122   Zn131   1.926   .     S
O123   Zn131   1.928   .     S
O124   Zn134   1.928   .     S
O125   Zn132   1.941   .     S
O126   Zn133   1.948   .     S
O127   Zn134   1.942   .     S
O128   Zn131   1.935   .     S
O129   Zn132   1.935   .     S
O130   Zn133   1.932   .     S
C135   O192    1.268   .     A
C135   O194    1.268   .     A
C135   C145    1.438   .     S
C136   C161    1.415   .     A
C136   C137    1.385   .     A
C136   H179    1.077   .     S
C137   H175    1.084   .     S
C137   C742    1.390   .     S
C138   O193    1.283   .     A
C138   C144    1.462   .     S
C138   O195    1.273   .     A
C139   C140    1.419   .     A
C139   C141    1.403   .     A
C139   C740    1.390   1_554 S
C140   C143    1.406   .     A
C140   C162    1.429   .     A
C141   C142    1.395   .     A
C141   H172    1.085   .     S
C142   C154    1.404   .     A
C142   C158    1.444   .     S
C143   C154    1.394   .     A
C143   H174    1.077   .     S
C144   C11     1.355   1_655 S
C144   C22     1.453   1_655 S
C146   C153    1.400   .     A
C146   C155    1.393   .     A
C146   H177    1.083   .     S
C147   C150    1.454   .     S
C147   C349    1.340   .     S
C147   N383    1.439   .     S
C148   C149    1.437   .     S
C148   C549    1.340   1_545 S
C148   H575    1.086   1_545 S
C149   O196    1.277   .     A
C149   O190    1.277   .     A
C150   O197    1.272   .     A
C150   O191    1.276   .     A
C151   O188    1.275   .     A
C151   C154    1.456   .     S
C151   O186    1.273   .     A
C152   O187    1.286   .     A
C152   O189    1.287   .     A
C152   C153    1.472   .     S
C153   C157    1.399   .     A
C155   C160    1.404   .     A
C155   H176    1.084   .     S
C156   N180    1.157   .     T
C157   C159    1.409   .     A
C157   H178    1.076   .     S
C158   N183    1.157   .     T
C159   C161    1.424   .     A
C159   C160    1.415   .     A
C160   C767    1.392   .     S
C161   C765    1.427   .     S
C162   C163    1.431   .     A
C162   C764    1.427   1_554 S
C163   N184    1.436   .     S
C163   C164    1.393   .     A
C164   H165    1.085   .     S
C164   C763    1.392   1_554 S
H166   N181    1.046   .     S
H167   N181    1.046   .     S
H168   N182    1.046   .     S
H169   N182    1.046   .     S
H170   N184    1.045   .     S
H171   N184    1.045   .     S
H173   C349    1.086   .     S
N181   C11     1.437   1_655 S
N182   C549    1.439   1_545 S
O185   Zn201   1.942   .     S
O185   Zn199   1.944   .     S
O185   Zn198   1.958   .     S
O185   Zn200   1.933   .     S
O186   Zn199   1.926   .     S
O187   Zn201   1.934   .     S
O188   Zn200   1.932   .     S
O189   Zn198   1.926   .     S
O190   Zn198   1.928   .     S
O191   Zn201   1.928   .     S
O192   Zn199   1.941   .     S
O193   Zn200   1.948   .     S
O194   Zn201   1.942   .     S
O195   Zn198   1.935   .     S
O196   Zn199   1.935   .     S
O197   Zn200   1.932   .     S
C202   O259    1.268   .     A
C202   O261    1.268   .     A
C202   C212    1.438   .     S
C203   C228    1.415   .     A
C203   C204    1.385   .     A
C203   H246    1.077   .     S
C204   H242    1.084   .     S
C204   C809    1.390   .     S
C205   O260    1.283   .     A
C205   C211    1.462   .     S
C205   O262    1.273   .     A
C206   C207    1.419   .     A
C206   C208    1.403   .     A
C206   C807    1.390   1_554 S
C207   C210    1.406   .     A
C207   C229    1.429   .     A
C208   C209    1.395   .     A
C208   H239    1.085   .     S
C209   C221    1.404   .     A
C209   C225    1.444   .     S
C210   C221    1.394   .     A
C210   H241    1.077   .     S
C211   C279    1.355   .     S
C211   C290    1.453   .     S
C212   C345    1.355   1_455 S
C212   N382    1.437   1_455 S
C213   C220    1.400   .     A
C213   C222    1.393   .     A
C213   H244    1.083   .     S
C214   C217    1.454   .     S
C214   C416    1.340   .     S
C214   N450    1.439   .     S
C215   C216    1.437   .     S
C216   O263    1.277   .     A
C216   O257    1.277   .     A
C217   O264    1.272   .     A
C217   O258    1.276   .     A
C218   O255    1.275   .     A
C218   C221    1.456   .     S
C218   O253    1.273   .     A
C219   O254    1.286   .     A
C219   O256    1.287   .     A
C219   C220    1.472   .     S
C220   C224    1.399   .     A
C222   C227    1.404   .     A
C222   H243    1.084   .     S
C223   N247    1.157   .     T
C223   C345    1.453   1_455 S
C224   C226    1.409   .     A
C224   H245    1.076   .     S
C225   N250    1.157   .     T
C226   C228    1.424   .     A
C226   C227    1.415   .     A
C227   C834    1.392   .     S
C228   C832    1.427   .     S
C229   C230    1.431   .     A
C229   C831    1.427   1_554 S
C230   N251    1.436   .     S
C230   C231    1.393   .     A
C231   H232    1.085   .     S
C231   C830    1.392   1_554 S
H233   N248    1.046   .     S
H234   N248    1.046   .     S
H235   N249    1.046   .     S
H236   N249    1.046   .     S
H237   N251    1.045   .     S
H238   N251    1.045   .     S
H240   C416    1.086   .     S
N248   C279    1.437   .     S
O252   Zn268   1.942   .     S
O252   Zn266   1.944   .     S
O252   Zn265   1.958   .     S
O252   Zn267   1.933   .     S
O253   Zn266   1.926   .     S
O254   Zn268   1.934   .     S
O255   Zn267   1.932   .     S
O256   Zn265   1.926   .     S
O257   Zn265   1.928   .     S
O258   Zn268   1.928   .     S
O259   Zn266   1.941   .     S
O260   Zn267   1.948   .     S
O261   Zn268   1.942   .     S
O262   Zn265   1.935   .     S
O263   Zn266   1.935   .     S
O264   Zn267   1.932   .     S
C269   O326    1.268   .     A
C269   O328    1.268   .     A
C269   C279    1.438   .     S
C270   C295    1.415   .     A
C270   C271    1.385   .     A
C270   H313    1.077   .     S
C271   H309    1.084   .     S
C271   C876    1.390   .     S
C272   O327    1.283   .     A
C272   C278    1.462   .     S
C272   O329    1.273   .     A
C273   C274    1.419   .     A
C273   C275    1.403   .     A
C273   C874    1.390   1_554 S
C274   C277    1.406   .     A
C274   C296    1.429   .     A
C275   C276    1.395   .     A
C275   H306    1.085   .     S
C276   C288    1.404   .     A
C276   C292    1.444   .     S
C277   C288    1.394   .     A
C277   H308    1.077   .     S
C278   C346    1.355   .     S
C278   C357    1.453   .     S
C280   C287    1.400   .     A
C280   C289    1.393   .     A
C280   H311    1.083   .     S
C281   C284    1.454   .     S
C281   C483    1.340   .     S
C281   N517    1.439   .     S
C282   C283    1.437   .     S
C283   O330    1.277   .     A
C283   O324    1.277   .     A
C284   O331    1.272   .     A
C284   O325    1.276   .     A
C285   O322    1.275   .     A
C285   C288    1.456   .     S
C285   O320    1.273   .     A
C286   O321    1.286   .     A
C286   O323    1.287   .     A
C286   C287    1.472   .     S
C287   C291    1.399   .     A
C289   C294    1.404   .     A
C289   H310    1.084   .     S
C290   N314    1.157   .     T
C291   C293    1.409   .     A
C291   H312    1.076   .     S
C292   N317    1.157   .     T
C293   C295    1.424   .     A
C293   C294    1.415   .     A
C294   C901    1.392   .     S
C295   C899    1.427   .     S
C296   C297    1.431   .     A
C296   C898    1.427   1_554 S
C297   N318    1.436   .     S
C297   C298    1.393   .     A
C298   H299    1.085   .     S
C298   C897    1.392   1_554 S
H300   N315    1.046   .     S
H301   N315    1.046   .     S
H302   N316    1.046   .     S
H303   N316    1.046   .     S
H304   N318    1.045   .     S
H305   N318    1.045   .     S
H307   C483    1.086   .     S
N315   C346    1.437   .     S
O319   Zn335   1.942   .     S
O319   Zn333   1.944   .     S
O319   Zn332   1.958   .     S
O319   Zn334   1.933   .     S
O320   Zn333   1.926   .     S
O321   Zn335   1.934   .     S
O322   Zn334   1.932   .     S
O323   Zn332   1.926   .     S
O324   Zn332   1.928   .     S
O325   Zn335   1.928   .     S
O326   Zn333   1.941   .     S
O327   Zn334   1.948   .     S
O328   Zn335   1.942   .     S
O329   Zn332   1.935   .     S
O330   Zn333   1.935   .     S
O331   Zn334   1.932   .     S
C336   O393    1.268   .     A
C336   O395    1.268   .     A
C336   C346    1.438   .     S
C337   C362    1.415   .     A
C337   C338    1.385   .     A
C337   H380    1.077   .     S
C338   H376    1.084   .     S
C338   C943    1.390   .     S
C339   O394    1.283   .     A
C339   C345    1.462   .     S
C339   O396    1.273   .     A
C340   C341    1.419   .     A
C340   C342    1.403   .     A
C340   C941    1.390   1_554 S
C341   C344    1.406   .     A
C341   C363    1.429   .     A
C342   C343    1.395   .     A
C342   H373    1.085   .     S
C343   C355    1.404   .     A
C343   C359    1.444   .     S
C344   C355    1.394   .     A
C344   H375    1.077   .     S
C345   C212    1.355   1_655 S
C345   C223    1.453   1_655 S
C347   C354    1.400   .     A
C347   C356    1.393   .     A
C347   H378    1.083   .     S
C348   C351    1.454   .     S
C348   C550    1.340   .     S
C348   N584    1.439   .     S
C349   C350    1.437   .     S
C350   O397    1.277   .     A
C350   O391    1.277   .     A
C351   O398    1.272   .     A
C351   O392    1.276   .     A
C352   O389    1.275   .     A
C352   C355    1.456   .     S
C352   O387    1.273   .     A
C353   O388    1.286   .     A
C353   O390    1.287   .     A
C353   C354    1.472   .     S
C354   C358    1.399   .     A
C356   C361    1.404   .     A
C356   H377    1.084   .     S
C357   N381    1.157   .     T
C358   C360    1.409   .     A
C358   H379    1.076   .     S
C359   N384    1.157   .     T
C360   C362    1.424   .     A
C360   C361    1.415   .     A
C361   C968    1.392   .     S
C362   C966    1.427   .     S
C363   C364    1.431   .     A
C363   C965    1.427   1_554 S
C364   N385    1.436   .     S
C364   C365    1.393   .     A
C365   H366    1.085   .     S
C365   C964    1.392   1_554 S
H367   N382    1.046   .     S
H368   N382    1.046   .     S
H369   N383    1.046   .     S
H370   N383    1.046   .     S
H371   N385    1.045   .     S
H372   N385    1.045   .     S
H374   C550    1.086   .     S
N382   C212    1.437   1_655 S
O386   Zn402   1.942   .     S
O386   Zn400   1.944   .     S
O386   Zn399   1.958   .     S
O386   Zn401   1.933   .     S
O387   Zn400   1.926   .     S
O388   Zn402   1.934   .     S
O389   Zn401   1.932   .     S
O390   Zn399   1.926   .     S
O391   Zn399   1.928   .     S
O392   Zn402   1.928   .     S
O393   Zn400   1.941   .     S
O394   Zn401   1.948   .     S
O395   Zn402   1.942   .     S
O396   Zn399   1.935   .     S
O397   Zn400   1.935   .     S
O398   Zn401   1.932   .     S
C403   O460    1.268   .     A
C403   O462    1.268   .     A
C403   C413    1.438   .     S
C404   C429    1.415   .     A
C404   C405    1.385   .     A
C404   H447    1.077   .     S
C405   H443    1.084   .     S
C405   C1010   1.390   .     S
C406   O461    1.283   .     A
C406   C412    1.462   .     S
C406   O463    1.273   .     A
C407   C408    1.419   .     A
C407   C409    1.403   .     A
C407   C1008   1.390   1_554 S
C408   C411    1.406   .     A
C408   C430    1.429   .     A
C409   C410    1.395   .     A
C409   H440    1.085   .     S
C410   C422    1.404   .     A
C410   C426    1.444   .     S
C411   C422    1.394   .     A
C411   H442    1.077   .     S
C412   C480    1.355   .     S
C412   C491    1.453   .     S
C413   C546    1.355   1_455 S
C413   N583    1.437   1_455 S
C414   C421    1.400   .     A
C414   C423    1.393   .     A
C414   H445    1.083   .     S
C415   C418    1.454   .     S
C415   C14     1.340   1_565 S
C415   N48     1.439   1_565 S
C416   C417    1.437   .     S
C417   O464    1.277   .     A
C417   O458    1.277   .     A
C418   O465    1.272   .     A
C418   O459    1.276   .     A
C419   O456    1.275   .     A
C419   C422    1.456   .     S
C419   O454    1.273   .     A
C420   O455    1.286   .     A
C420   O457    1.287   .     A
C420   C421    1.472   .     S
C421   C425    1.399   .     A
C423   C428    1.404   .     A
C423   H444    1.084   .     S
C424   N448    1.157   .     T
C424   C546    1.453   1_455 S
C425   C427    1.409   .     A
C425   H446    1.076   .     S
C426   N451    1.157   .     T
C427   C429    1.424   .     A
C427   C428    1.415   .     A
C428   C1035   1.392   .     S
C429   C1033   1.427   .     S
C430   C431    1.431   .     A
C430   C1032   1.427   1_554 S
C431   N452    1.436   .     S
C431   C432    1.393   .     A
C432   H433    1.085   .     S
C432   C1031   1.392   1_554 S
H434   N449    1.046   .     S
H435   N449    1.046   .     S
H436   N450    1.046   .     S
H437   N450    1.046   .     S
H438   N452    1.045   .     S
H439   N452    1.045   .     S
H441   C14     1.086   1_565 S
N449   C480    1.437   .     S
O453   Zn469   1.942   .     S
O453   Zn467   1.944   .     S
O453   Zn466   1.958   .     S
O453   Zn468   1.933   .     S
O454   Zn467   1.926   .     S
O455   Zn469   1.934   .     S
O456   Zn468   1.932   .     S
O457   Zn466   1.926   .     S
O458   Zn466   1.928   .     S
O459   Zn469   1.928   .     S
O460   Zn467   1.941   .     S
O461   Zn468   1.948   .     S
O462   Zn469   1.942   .     S
O463   Zn466   1.935   .     S
O464   Zn467   1.935   .     S
O465   Zn468   1.932   .     S
C470   O527    1.268   .     A
C470   O529    1.268   .     A
C470   C480    1.438   .     S
C471   C496    1.415   .     A
C471   C472    1.385   .     A
C471   H514    1.077   .     S
C472   H510    1.084   .     S
C472   C1077   1.390   .     S
C473   O528    1.283   .     A
C473   C479    1.462   .     S
C473   O530    1.273   .     A
C474   C475    1.419   .     A
C474   C476    1.403   .     A
C474   C1075   1.390   1_554 S
C475   C478    1.406   .     A
C475   C497    1.429   .     A
C476   C477    1.395   .     A
C476   H507    1.085   .     S
C477   C489    1.404   .     A
C477   C493    1.444   .     S
C478   C489    1.394   .     A
C478   H509    1.077   .     S
C479   C547    1.355   .     S
C479   C558    1.453   .     S
C481   C488    1.400   .     A
C481   C490    1.393   .     A
C481   H512    1.083   .     S
C482   C485    1.454   .     S
C482   C81     1.340   1_565 S
C482   N115    1.439   1_565 S
C483   C484    1.437   .     S
C484   O531    1.277   .     A
C484   O525    1.277   .     A
C485   O532    1.272   .     A
C485   O526    1.276   .     A
C486   O523    1.275   .     A
C486   C489    1.456   .     S
C486   O521    1.273   .     A
C487   O522    1.286   .     A
C487   O524    1.287   .     A
C487   C488    1.472   .     S
C488   C492    1.399   .     A
C490   C495    1.404   .     A
C490   H511    1.084   .     S
C491   N515    1.157   .     T
C492   C494    1.409   .     A
C492   H513    1.076   .     S
C493   N518    1.157   .     T
C494   C496    1.424   .     A
C494   C495    1.415   .     A
C495   C1102   1.392   .     S
C496   C1100   1.427   .     S
C497   C498    1.431   .     A
C497   C1099   1.427   1_554 S
C498   N519    1.436   .     S
C498   C499    1.393   .     A
C499   H500    1.085   .     S
C499   C1098   1.392   1_554 S
H501   N516    1.046   .     S
H502   N516    1.046   .     S
H503   N517    1.046   .     S
H504   N517    1.046   .     S
H505   N519    1.045   .     S
H506   N519    1.045   .     S
H508   C81     1.086   1_565 S
N516   C547    1.437   .     S
O520   Zn536   1.942   .     S
O520   Zn534   1.944   .     S
O520   Zn533   1.958   .     S
O520   Zn535   1.933   .     S
O521   Zn534   1.926   .     S
O522   Zn536   1.934   .     S
O523   Zn535   1.932   .     S
O524   Zn533   1.926   .     S
O525   Zn533   1.928   .     S
O526   Zn536   1.928   .     S
O527   Zn534   1.941   .     S
O528   Zn535   1.948   .     S
O529   Zn536   1.942   .     S
O530   Zn533   1.935   .     S
O531   Zn534   1.935   .     S
O532   Zn535   1.932   .     S
C537   O594    1.268   .     A
C537   O596    1.268   .     A
C537   C547    1.438   .     S
C538   C563    1.415   .     A
C538   C539    1.385   .     A
C538   H581    1.077   .     S
C539   H577    1.084   .     S
C539   C1144   1.390   .     S
C540   O595    1.283   .     A
C540   C546    1.462   .     S
C540   O597    1.273   .     A
C541   C542    1.419   .     A
C541   C543    1.403   .     A
C541   C1142   1.390   1_554 S
C542   C545    1.406   .     A
C542   C564    1.429   .     A
C543   C544    1.395   .     A
C543   H574    1.085   .     S
C544   C556    1.404   .     A
C544   C560    1.444   .     S
C545   C556    1.394   .     A
C545   H576    1.077   .     S
C546   C413    1.355   1_655 S
C546   C424    1.453   1_655 S
C548   C555    1.400   .     A
C548   C557    1.393   .     A
C548   H579    1.083   .     S
C549   C552    1.454   .     S
C549   C148    1.340   1_565 S
C549   N182    1.439   1_565 S
C550   C551    1.437   .     S
C551   O598    1.277   .     A
C551   O592    1.277   .     A
C552   O599    1.272   .     A
C552   O593    1.276   .     A
C553   O590    1.275   .     A
C553   C556    1.456   .     S
C553   O588    1.273   .     A
C554   O589    1.286   .     A
C554   O591    1.287   .     A
C554   C555    1.472   .     S
C555   C559    1.399   .     A
C557   C562    1.404   .     A
C557   H578    1.084   .     S
C558   N582    1.157   .     T
C559   C561    1.409   .     A
C559   H580    1.076   .     S
C560   N585    1.157   .     T
C561   C563    1.424   .     A
C561   C562    1.415   .     A
C562   C1169   1.392   .     S
C563   C1167   1.427   .     S
C564   C565    1.431   .     A
C564   C1166   1.427   1_554 S
C565   N586    1.436   .     S
C565   C566    1.393   .     A
C566   H567    1.085   .     S
C566   C1165   1.392   1_554 S
H568   N583    1.046   .     S
H569   N583    1.046   .     S
H570   N584    1.046   .     S
H571   N584    1.046   .     S
H572   N586    1.045   .     S
H573   N586    1.045   .     S
H575   C148    1.086   1_565 S
N583   C413    1.437   1_655 S
O587   Zn603   1.942   .     S
O587   Zn601   1.944   .     S
O587   Zn600   1.958   .     S
O587   Zn602   1.933   .     S
O588   Zn601   1.926   .     S
O589   Zn603   1.934   .     S
O590   Zn602   1.932   .     S
O591   Zn600   1.926   .     S
O592   Zn600   1.928   .     S
O593   Zn603   1.928   .     S
O594   Zn601   1.941   .     S
O595   Zn602   1.948   .     S
O596   Zn603   1.942   .     S
O597   Zn600   1.935   .     S
O598   Zn601   1.935   .     S
O599   Zn602   1.932   .     S
C604   O661    1.268   .     A
C604   O663    1.268   .     A
C604   C614    1.438   .     S
C605   C630    1.415   .     A
C605   C606    1.385   .     A
C605   H648    1.077   .     S
C606   H644    1.084   .     S
C606   C5      1.390   1_556 S
C607   O662    1.283   .     A
C607   C613    1.462   .     S
C607   O664    1.273   .     A
C608   C609    1.419   .     A
C608   C610    1.403   .     A
C609   C612    1.406   .     A
C609   C631    1.429   .     A
C610   C611    1.395   .     A
C610   H641    1.085   .     S
C611   C623    1.404   .     A
C611   C627    1.444   .     S
C612   C623    1.394   .     A
C612   H643    1.077   .     S
C613   C681    1.355   .     S
C613   C692    1.453   .     S
C614   C747    1.355   1_455 S
C614   N784    1.437   1_455 S
C615   C622    1.400   .     A
C615   C624    1.393   .     A
C615   H646    1.083   .     S
C616   C619    1.454   .     S
C616   C818    1.340   .     S
C616   N852    1.439   .     S
C617   C618    1.437   .     S
C617   C1018   1.340   1_545 S
C617   H1044   1.086   1_545 S
C618   O665    1.277   .     A
C618   O659    1.277   .     A
C619   O666    1.272   .     A
C619   O660    1.276   .     A
C620   O657    1.275   .     A
C620   C623    1.456   .     S
C620   O655    1.273   .     A
C621   O656    1.286   .     A
C621   O658    1.287   .     A
C621   C622    1.472   .     S
C622   C626    1.399   .     A
C624   C629    1.404   .     A
C624   H645    1.084   .     S
C625   N649    1.157   .     T
C625   C747    1.453   1_455 S
C626   C628    1.409   .     A
C626   H647    1.076   .     S
C627   N652    1.157   .     T
C628   C630    1.424   .     A
C628   C629    1.415   .     A
C629   C30     1.392   1_556 S
C630   C28     1.427   1_556 S
C631   C632    1.431   .     A
C632   N653    1.436   .     S
C632   C633    1.393   .     A
C633   H634    1.085   .     S
H635   N650    1.046   .     S
H636   N650    1.046   .     S
H637   N651    1.046   .     S
H638   N651    1.046   .     S
H639   N653    1.045   .     S
H640   N653    1.045   .     S
H642   C818    1.086   .     S
N650   C681    1.437   .     S
N651   C1018   1.439   1_545 S
O654   Zn670   1.942   .     S
O654   Zn668   1.944   .     S
O654   Zn667   1.958   .     S
O654   Zn669   1.933   .     S
O655   Zn668   1.926   .     S
O656   Zn670   1.934   .     S
O657   Zn669   1.932   .     S
O658   Zn667   1.926   .     S
O659   Zn667   1.928   .     S
O660   Zn670   1.928   .     S
O661   Zn668   1.941   .     S
O662   Zn669   1.948   .     S
O663   Zn670   1.942   .     S
O664   Zn667   1.935   .     S
O665   Zn668   1.935   .     S
O666   Zn669   1.932   .     S
C671   O728    1.268   .     A
C671   O730    1.268   .     A
C671   C681    1.438   .     S
C672   C697    1.415   .     A
C672   C673    1.385   .     A
C672   H715    1.077   .     S
C673   H711    1.084   .     S
C673   C72     1.390   1_556 S
C674   O729    1.283   .     A
C674   C680    1.462   .     S
C674   O731    1.273   .     A
C675   C676    1.419   .     A
C675   C677    1.403   .     A
C676   C679    1.406   .     A
C676   C698    1.429   .     A
C677   C678    1.395   .     A
C677   H708    1.085   .     S
C678   C690    1.404   .     A
C678   C694    1.444   .     S
C679   C690    1.394   .     A
C679   H710    1.077   .     S
C680   C748    1.355   .     S
C680   C759    1.453   .     S
C682   C689    1.400   .     A
C682   C691    1.393   .     A
C682   H713    1.083   .     S
C683   C686    1.454   .     S
C683   C885    1.340   .     S
C683   N919    1.439   .     S
C684   C685    1.437   .     S
C684   C1085   1.340   1_545 S
C684   H1111   1.086   1_545 S
C685   O732    1.277   .     A
C685   O726    1.277   .     A
C686   O733    1.272   .     A
C686   O727    1.276   .     A
C687   O724    1.275   .     A
C687   C690    1.456   .     S
C687   O722    1.273   .     A
C688   O723    1.286   .     A
C688   O725    1.287   .     A
C688   C689    1.472   .     S
C689   C693    1.399   .     A
C691   C696    1.404   .     A
C691   H712    1.084   .     S
C692   N716    1.157   .     T
C693   C695    1.409   .     A
C693   H714    1.076   .     S
C694   N719    1.157   .     T
C695   C697    1.424   .     A
C695   C696    1.415   .     A
C696   C97     1.392   1_556 S
C697   C95     1.427   1_556 S
C698   C699    1.431   .     A
C699   N720    1.436   .     S
C699   C700    1.393   .     A
C700   H701    1.085   .     S
H702   N717    1.046   .     S
H703   N717    1.046   .     S
H704   N718    1.046   .     S
H705   N718    1.046   .     S
H706   N720    1.045   .     S
H707   N720    1.045   .     S
H709   C885    1.086   .     S
N717   C748    1.437   .     S
N718   C1085   1.439   1_545 S
O721   Zn737   1.942   .     S
O721   Zn735   1.944   .     S
O721   Zn734   1.958   .     S
O721   Zn736   1.933   .     S
O722   Zn735   1.926   .     S
O723   Zn737   1.934   .     S
O724   Zn736   1.932   .     S
O725   Zn734   1.926   .     S
O726   Zn734   1.928   .     S
O727   Zn737   1.928   .     S
O728   Zn735   1.941   .     S
O729   Zn736   1.948   .     S
O730   Zn737   1.942   .     S
O731   Zn734   1.935   .     S
O732   Zn735   1.935   .     S
O733   Zn736   1.932   .     S
C738   O795    1.268   .     A
C738   O797    1.268   .     A
C738   C748    1.438   .     S
C739   C764    1.415   .     A
C739   C740    1.385   .     A
C739   H782    1.077   .     S
C740   H778    1.084   .     S
C740   C139    1.390   1_556 S
C741   O796    1.283   .     A
C741   C747    1.462   .     S
C741   O798    1.273   .     A
C742   C743    1.419   .     A
C742   C744    1.403   .     A
C743   C746    1.406   .     A
C743   C765    1.429   .     A
C744   C745    1.395   .     A
C744   H775    1.085   .     S
C745   C757    1.404   .     A
C745   C761    1.444   .     S
C746   C757    1.394   .     A
C746   H777    1.077   .     S
C747   C614    1.355   1_655 S
C747   C625    1.453   1_655 S
C749   C756    1.400   .     A
C749   C758    1.393   .     A
C749   H780    1.083   .     S
C750   C753    1.454   .     S
C750   C952    1.340   .     S
C750   N986    1.439   .     S
C751   C752    1.437   .     S
C751   C1152   1.340   1_545 S
C751   H1178   1.086   1_545 S
C752   O799    1.277   .     A
C752   O793    1.277   .     A
C753   O800    1.272   .     A
C753   O794    1.276   .     A
C754   O791    1.275   .     A
C754   C757    1.456   .     S
C754   O789    1.273   .     A
C755   O790    1.286   .     A
C755   O792    1.287   .     A
C755   C756    1.472   .     S
C756   C760    1.399   .     A
C758   C763    1.404   .     A
C758   H779    1.084   .     S
C759   N783    1.157   .     T
C760   C762    1.409   .     A
C760   H781    1.076   .     S
C761   N786    1.157   .     T
C762   C764    1.424   .     A
C762   C763    1.415   .     A
C763   C164    1.392   1_556 S
C764   C162    1.427   1_556 S
C765   C766    1.431   .     A
C766   N787    1.436   .     S
C766   C767    1.393   .     A
C767   H768    1.085   .     S
H769   N784    1.046   .     S
H770   N784    1.046   .     S
H771   N785    1.046   .     S
H772   N785    1.046   .     S
H773   N787    1.045   .     S
H774   N787    1.045   .     S
H776   C952    1.086   .     S
N784   C614    1.437   1_655 S
N785   C1152   1.439   1_545 S
O788   Zn804   1.942   .     S
O788   Zn802   1.944   .     S
O788   Zn801   1.958   .     S
O788   Zn803   1.933   .     S
O789   Zn802   1.926   .     S
O790   Zn804   1.934   .     S
O791   Zn803   1.932   .     S
O792   Zn801   1.926   .     S
O793   Zn801   1.928   .     S
O794   Zn804   1.928   .     S
O795   Zn802   1.941   .     S
O796   Zn803   1.948   .     S
O797   Zn804   1.942   .     S
O798   Zn801   1.935   .     S
O799   Zn802   1.935   .     S
O800   Zn803   1.932   .     S
C805   O862    1.268   .     A
C805   O864    1.268   .     A
C805   C815    1.438   .     S
C806   C831    1.415   .     A
C806   C807    1.385   .     A
C806   H849    1.077   .     S
C807   H845    1.084   .     S
C807   C206    1.390   1_556 S
C808   O863    1.283   .     A
C808   C814    1.462   .     S
C808   O865    1.273   .     A
C809   C810    1.419   .     A
C809   C811    1.403   .     A
C810   C813    1.406   .     A
C810   C832    1.429   .     A
C811   C812    1.395   .     A
C811   H842    1.085   .     S
C812   C824    1.404   .     A
C812   C828    1.444   .     S
C813   C824    1.394   .     A
C813   H844    1.077   .     S
C814   C882    1.355   .     S
C814   C893    1.453   .     S
C815   C948    1.355   1_455 S
C815   N985    1.437   1_455 S
C816   C823    1.400   .     A
C816   C825    1.393   .     A
C816   H847    1.083   .     S
C817   C820    1.454   .     S
C817   C1019   1.340   .     S
C817   N1053   1.439   .     S
C818   C819    1.437   .     S
C819   O866    1.277   .     A
C819   O860    1.277   .     A
C820   O867    1.272   .     A
C820   O861    1.276   .     A
C821   O858    1.275   .     A
C821   C824    1.456   .     S
C821   O856    1.273   .     A
C822   O857    1.286   .     A
C822   O859    1.287   .     A
C822   C823    1.472   .     S
C823   C827    1.399   .     A
C825   C830    1.404   .     A
C825   H846    1.084   .     S
C826   N850    1.157   .     T
C826   C948    1.453   1_455 S
C827   C829    1.409   .     A
C827   H848    1.076   .     S
C828   N853    1.157   .     T
C829   C831    1.424   .     A
C829   C830    1.415   .     A
C830   C231    1.392   1_556 S
C831   C229    1.427   1_556 S
C832   C833    1.431   .     A
C833   N854    1.436   .     S
C833   C834    1.393   .     A
C834   H835    1.085   .     S
H836   N851    1.046   .     S
H837   N851    1.046   .     S
H838   N852    1.046   .     S
H839   N852    1.046   .     S
H840   N854    1.045   .     S
H841   N854    1.045   .     S
H843   C1019   1.086   .     S
N851   C882    1.437   .     S
O855   Zn871   1.942   .     S
O855   Zn869   1.944   .     S
O855   Zn868   1.958   .     S
O855   Zn870   1.933   .     S
O856   Zn869   1.926   .     S
O857   Zn871   1.934   .     S
O858   Zn870   1.932   .     S
O859   Zn868   1.926   .     S
O860   Zn868   1.928   .     S
O861   Zn871   1.928   .     S
O862   Zn869   1.941   .     S
O863   Zn870   1.948   .     S
O864   Zn871   1.942   .     S
O865   Zn868   1.935   .     S
O866   Zn869   1.935   .     S
O867   Zn870   1.932   .     S
C872   O929    1.268   .     A
C872   O931    1.268   .     A
C872   C882    1.438   .     S
C873   C898    1.415   .     A
C873   C874    1.385   .     A
C873   H916    1.077   .     S
C874   H912    1.084   .     S
C874   C273    1.390   1_556 S
C875   O930    1.283   .     A
C875   C881    1.462   .     S
C875   O932    1.273   .     A
C876   C877    1.419   .     A
C876   C878    1.403   .     A
C877   C880    1.406   .     A
C877   C899    1.429   .     A
C878   C879    1.395   .     A
C878   H909    1.085   .     S
C879   C891    1.404   .     A
C879   C895    1.444   .     S
C880   C891    1.394   .     A
C880   H911    1.077   .     S
C881   C949    1.355   .     S
C881   C960    1.453   .     S
C883   C890    1.400   .     A
C883   C892    1.393   .     A
C883   H914    1.083   .     S
C884   C887    1.454   .     S
C884   C1086   1.340   .     S
C884   N1120   1.439   .     S
C885   C886    1.437   .     S
C886   O933    1.277   .     A
C886   O927    1.277   .     A
C887   O934    1.272   .     A
C887   O928    1.276   .     A
C888   O925    1.275   .     A
C888   C891    1.456   .     S
C888   O923    1.273   .     A
C889   O924    1.286   .     A
C889   O926    1.287   .     A
C889   C890    1.472   .     S
C890   C894    1.399   .     A
C892   C897    1.404   .     A
C892   H913    1.084   .     S
C893   N917    1.157   .     T
C894   C896    1.409   .     A
C894   H915    1.076   .     S
C895   N920    1.157   .     T
C896   C898    1.424   .     A
C896   C897    1.415   .     A
C897   C298    1.392   1_556 S
C898   C296    1.427   1_556 S
C899   C900    1.431   .     A
C900   N921    1.436   .     S
C900   C901    1.393   .     A
C901   H902    1.085   .     S
H903   N918    1.046   .     S
H904   N918    1.046   .     S
H905   N919    1.046   .     S
H906   N919    1.046   .     S
H907   N921    1.045   .     S
H908   N921    1.045   .     S
H910   C1086   1.086   .     S
N918   C949    1.437   .     S
O922   Zn938   1.942   .     S
O922   Zn936   1.944   .     S
O922   Zn935   1.958   .     S
O922   Zn937   1.933   .     S
O923   Zn936   1.926   .     S
O924   Zn938   1.934   .     S
O925   Zn937   1.932   .     S
O926   Zn935   1.926   .     S
O927   Zn935   1.928   .     S
O928   Zn938   1.928   .     S
O929   Zn936   1.941   .     S
O930   Zn937   1.948   .     S
O931   Zn938   1.942   .     S
O932   Zn935   1.935   .     S
O933   Zn936   1.935   .     S
O934   Zn937   1.932   .     S
C939   O996    1.268   .     A
C939   O998    1.268   .     A
C939   C949    1.438   .     S
C940   C965    1.415   .     A
C940   C941    1.385   .     A
C940   H983    1.077   .     S
C941   H979    1.084   .     S
C941   C340    1.390   1_556 S
C942   O997    1.283   .     A
C942   C948    1.462   .     S
C942   O999    1.273   .     A
C943   C944    1.419   .     A
C943   C945    1.403   .     A
C944   C947    1.406   .     A
C944   C966    1.429   .     A
C945   C946    1.395   .     A
C945   H976    1.085   .     S
C946   C958    1.404   .     A
C946   C962    1.444   .     S
C947   C958    1.394   .     A
C947   H978    1.077   .     S
C948   C815    1.355   1_655 S
C948   C826    1.453   1_655 S
C950   C957    1.400   .     A
C950   C959    1.393   .     A
C950   H981    1.083   .     S
C951   C954    1.454   .     S
C951   C1153   1.340   .     S
C951   N1187   1.439   .     S
C952   C953    1.437   .     S
C953   O1000   1.277   .     A
C953   O994    1.277   .     A
C954   O1001   1.272   .     A
C954   O995    1.276   .     A
C955   O992    1.275   .     A
C955   C958    1.456   .     S
C955   O990    1.273   .     A
C956   O991    1.286   .     A
C956   O993    1.287   .     A
C956   C957    1.472   .     S
C957   C961    1.399   .     A
C959   C964    1.404   .     A
C959   H980    1.084   .     S
C960   N984    1.157   .     T
C961   C963    1.409   .     A
C961   H982    1.076   .     S
C962   N987    1.157   .     T
C963   C965    1.424   .     A
C963   C964    1.415   .     A
C964   C365    1.392   1_556 S
C965   C363    1.427   1_556 S
C966   C967    1.431   .     A
C967   N988    1.436   .     S
C967   C968    1.393   .     A
C968   H969    1.085   .     S
H970   N985    1.046   .     S
H971   N985    1.046   .     S
H972   N986    1.046   .     S
H973   N986    1.046   .     S
H974   N988    1.045   .     S
H975   N988    1.045   .     S
H977   C1153   1.086   .     S
N985   C815    1.437   1_655 S
O989   Zn1005  1.942   .     S
O989   Zn1003  1.944   .     S
O989   Zn1002  1.958   .     S
O989   Zn1004  1.933   .     S
O990   Zn1003  1.926   .     S
O991   Zn1005  1.934   .     S
O992   Zn1004  1.932   .     S
O993   Zn1002  1.926   .     S
O994   Zn1002  1.928   .     S
O995   Zn1005  1.928   .     S
O996   Zn1003  1.941   .     S
O997   Zn1004  1.948   .     S
O998   Zn1005  1.942   .     S
O999   Zn1002  1.935   .     S
O1000  Zn1003  1.935   .     S
O1001  Zn1004  1.932   .     S
C1006  O1063   1.268   .     A
C1006  O1065   1.268   .     A
C1006  C1016   1.438   .     S
C1007  C1032   1.415   .     A
C1007  C1008   1.385   .     A
C1007  H1050   1.077   .     S
C1008  H1046   1.084   .     S
C1008  C407    1.390   1_556 S
C1009  O1064   1.283   .     A
C1009  C1015   1.462   .     S
C1009  O1066   1.273   .     A
C1010  C1011   1.419   .     A
C1010  C1012   1.403   .     A
C1011  C1014   1.406   .     A
C1011  C1033   1.429   .     A
C1012  C1013   1.395   .     A
C1012  H1043   1.085   .     S
C1013  C1025   1.404   .     A
C1013  C1029   1.444   .     S
C1014  C1025   1.394   .     A
C1014  H1045   1.077   .     S
C1015  C1083   1.355   .     S
C1015  C1094   1.453   .     S
C1016  C1149   1.355   1_455 S
C1016  N1186   1.437   1_455 S
C1017  C1024   1.400   .     A
C1017  C1026   1.393   .     A
C1017  H1048   1.083   .     S
C1018  C1021   1.454   .     S
C1018  C617    1.340   1_565 S
C1018  N651    1.439   1_565 S
C1019  C1020   1.437   .     S
C1020  O1067   1.277   .     A
C1020  O1061   1.277   .     A
C1021  O1068   1.272   .     A
C1021  O1062   1.276   .     A
C1022  O1059   1.275   .     A
C1022  C1025   1.456   .     S
C1022  O1057   1.273   .     A
C1023  O1058   1.286   .     A
C1023  O1060   1.287   .     A
C1023  C1024   1.472   .     S
C1024  C1028   1.399   .     A
C1026  C1031   1.404   .     A
C1026  H1047   1.084   .     S
C1027  N1051   1.157   .     T
C1027  C1149   1.453   1_455 S
C1028  C1030   1.409   .     A
C1028  H1049   1.076   .     S
C1029  N1054   1.157   .     T
C1030  C1032   1.424   .     A
C1030  C1031   1.415   .     A
C1031  C432    1.392   1_556 S
C1032  C430    1.427   1_556 S
C1033  C1034   1.431   .     A
C1034  N1055   1.436   .     S
C1034  C1035   1.393   .     A
C1035  H1036   1.085   .     S
H1037  N1052   1.046   .     S
H1038  N1052   1.046   .     S
H1039  N1053   1.046   .     S
H1040  N1053   1.046   .     S
H1041  N1055   1.045   .     S
H1042  N1055   1.045   .     S
H1044  C617    1.086   1_565 S
N1052  C1083   1.437   .     S
O1056  Zn1072  1.942   .     S
O1056  Zn1070  1.944   .     S
O1056  Zn1069  1.958   .     S
O1056  Zn1071  1.933   .     S
O1057  Zn1070  1.926   .     S
O1058  Zn1072  1.934   .     S
O1059  Zn1071  1.932   .     S
O1060  Zn1069  1.926   .     S
O1061  Zn1069  1.928   .     S
O1062  Zn1072  1.928   .     S
O1063  Zn1070  1.941   .     S
O1064  Zn1071  1.948   .     S
O1065  Zn1072  1.942   .     S
O1066  Zn1069  1.935   .     S
O1067  Zn1070  1.935   .     S
O1068  Zn1071  1.932   .     S
C1073  O1130   1.268   .     A
C1073  O1132   1.268   .     A
C1073  C1083   1.438   .     S
C1074  C1099   1.415   .     A
C1074  C1075   1.385   .     A
C1074  H1117   1.077   .     S
C1075  H1113   1.084   .     S
C1075  C474    1.390   1_556 S
C1076  O1131   1.283   .     A
C1076  C1082   1.462   .     S
C1076  O1133   1.273   .     A
C1077  C1078   1.419   .     A
C1077  C1079   1.403   .     A
C1078  C1081   1.406   .     A
C1078  C1100   1.429   .     A
C1079  C1080   1.395   .     A
C1079  H1110   1.085   .     S
C1080  C1092   1.404   .     A
C1080  C1096   1.444   .     S
C1081  C1092   1.394   .     A
C1081  H1112   1.077   .     S
C1082  C1150   1.355   .     S
C1082  C1161   1.453   .     S
C1084  C1091   1.400   .     A
C1084  C1093   1.393   .     A
C1084  H1115   1.083   .     S
C1085  C1088   1.454   .     S
C1085  C684    1.340   1_565 S
C1085  N718    1.439   1_565 S
C1086  C1087   1.437   .     S
C1087  O1134   1.277   .     A
C1087  O1128   1.277   .     A
C1088  O1135   1.272   .     A
C1088  O1129   1.276   .     A
C1089  O1126   1.275   .     A
C1089  C1092   1.456   .     S
C1089  O1124   1.273   .     A
C1090  O1125   1.286   .     A
C1090  O1127   1.287   .     A
C1090  C1091   1.472   .     S
C1091  C1095   1.399   .     A
C1093  C1098   1.404   .     A
C1093  H1114   1.084   .     S
C1094  N1118   1.157   .     T
C1095  C1097   1.409   .     A
C1095  H1116   1.076   .     S
C1096  N1121   1.157   .     T
C1097  C1099   1.424   .     A
C1097  C1098   1.415   .     A
C1098  C499    1.392   1_556 S
C1099  C497    1.427   1_556 S
C1100  C1101   1.431   .     A
C1101  N1122   1.436   .     S
C1101  C1102   1.393   .     A
C1102  H1103   1.085   .     S
H1104  N1119   1.046   .     S
H1105  N1119   1.046   .     S
H1106  N1120   1.046   .     S
H1107  N1120   1.046   .     S
H1108  N1122   1.045   .     S
H1109  N1122   1.045   .     S
H1111  C684    1.086   1_565 S
N1119  C1150   1.437   .     S
O1123  Zn1139  1.942   .     S
O1123  Zn1137  1.944   .     S
O1123  Zn1136  1.958   .     S
O1123  Zn1138  1.933   .     S
O1124  Zn1137  1.926   .     S
O1125  Zn1139  1.934   .     S
O1126  Zn1138  1.932   .     S
O1127  Zn1136  1.926   .     S
O1128  Zn1136  1.928   .     S
O1129  Zn1139  1.928   .     S
O1130  Zn1137  1.941   .     S
O1131  Zn1138  1.948   .     S
O1132  Zn1139  1.942   .     S
O1133  Zn1136  1.935   .     S
O1134  Zn1137  1.935   .     S
O1135  Zn1138  1.932   .     S
C1140  O1197   1.268   .     A
C1140  O1199   1.268   .     A
C1140  C1150   1.438   .     S
C1141  C1166   1.415   .     A
C1141  C1142   1.385   .     A
C1141  H1184   1.077   .     S
C1142  H1180   1.084   .     S
C1142  C541    1.390   1_556 S
C1143  O1198   1.283   .     A
C1143  C1149   1.462   .     S
C1143  O1200   1.273   .     A
C1144  C1145   1.419   .     A
C1144  C1146   1.403   .     A
C1145  C1148   1.406   .     A
C1145  C1167   1.429   .     A
C1146  C1147   1.395   .     A
C1146  H1177   1.085   .     S
C1147  C1159   1.404   .     A
C1147  C1163   1.444   .     S
C1148  C1159   1.394   .     A
C1148  H1179   1.077   .     S
C1149  C1016   1.355   1_655 S
C1149  C1027   1.453   1_655 S
C1151  C1158   1.400   .     A
C1151  C1160   1.393   .     A
C1151  H1182   1.083   .     S
C1152  C1155   1.454   .     S
C1152  C751    1.340   1_565 S
C1152  N785    1.439   1_565 S
C1153  C1154   1.437   .     S
C1154  O1201   1.277   .     A
C1154  O1195   1.277   .     A
C1155  O1202   1.272   .     A
C1155  O1196   1.276   .     A
C1156  O1193   1.275   .     A
C1156  C1159   1.456   .     S
C1156  O1191   1.273   .     A
C1157  O1192   1.286   .     A
C1157  O1194   1.287   .     A
C1157  C1158   1.472   .     S
C1158  C1162   1.399   .     A
C1160  C1165   1.404   .     A
C1160  H1181   1.084   .     S
C1161  N1185   1.157   .     T
C1162  C1164   1.409   .     A
C1162  H1183   1.076   .     S
C1163  N1188   1.157   .     T
C1164  C1166   1.424   .     A
C1164  C1165   1.415   .     A
C1165  C566    1.392   1_556 S
C1166  C564    1.427   1_556 S
C1167  C1168   1.431   .     A
C1168  N1189   1.436   .     S
C1168  C1169   1.393   .     A
C1169  H1170   1.085   .     S
H1171  N1186   1.046   .     S
H1172  N1186   1.046   .     S
H1173  N1187   1.046   .     S
H1174  N1187   1.046   .     S
H1175  N1189   1.045   .     S
H1176  N1189   1.045   .     S
H1178  C751    1.086   1_565 S
N1186  C1016   1.437   1_655 S
O1190  Zn1206  1.942   .     S
O1190  Zn1204  1.944   .     S
O1190  Zn1203  1.958   .     S
O1190  Zn1205  1.933   .     S
O1191  Zn1204  1.926   .     S
O1192  Zn1206  1.934   .     S
O1193  Zn1205  1.932   .     S
O1194  Zn1203  1.926   .     S
O1195  Zn1203  1.928   .     S
O1196  Zn1206  1.928   .     S
O1197  Zn1204  1.941   .     S
O1198  Zn1205  1.948   .     S
O1199  Zn1206  1.942   .     S
O1200  Zn1203  1.935   .     S
O1201  Zn1204  1.935   .     S
O1202  Zn1205  1.932   .     S
