data_str_m1_o1_o5_pcu_sym.8
_audit_creation_date              2020-01-03
_audit_creation_method            'Materials Studio'
_symmetry_space_group_name_H-M    'P1'
_symmetry_Int_Tables_number       1
_symmetry_cell_setting            triclinic
loop_
_symmetry_equiv_pos_as_xyz
  x,y,z
_cell_length_a                    36.6790
_cell_length_b                    36.6694
_cell_length_c                    22.4446
_cell_angle_alpha                 89.9646
_cell_angle_beta                  89.9863
_cell_angle_gamma                 90.1359
loop_
_atom_site_label
_atom_site_type_symbol
_atom_site_fract_x
_atom_site_fract_y
_atom_site_fract_z
_atom_site_U_iso_or_equiv
_atom_site_adp_type
_atom_site_occupancy
C1     C     0.00000   0.25000   0.02666   0.00000  Uiso   1.00
C2     C    -0.00000   0.25001   0.58991   0.00000  Uiso   1.00
C3     C     0.45096   0.39398   0.23186   0.00000  Uiso   1.00
C4     C     0.11014   0.44704   0.79839   0.00000  Uiso   1.00
C5     C     0.38735   0.05541   0.19120   0.00000  Uiso   1.00
C6     C     0.45034   0.39328   0.77527   0.00000  Uiso   1.00
C7     C     0.05014   0.10724   0.21766   0.00000  Uiso   1.00
C8     C     0.39456   0.45118   0.23049   0.00000  Uiso   1.00
C9     C     0.10865   0.05222   0.79420   0.00000  Uiso   1.00
C10    C     0.05652   0.38661   0.18751   0.00000  Uiso   1.00
C11    C     0.44387   0.11333   0.81150   0.00000  Uiso   1.00
C12    C     0.10830   0.05195   0.20679   0.00000  Uiso   1.00
C13    C     0.25000   0.00000   0.41009   0.00000  Uiso   1.00
C14    C     0.39321   0.45023   0.77992   0.00000  Uiso   1.00
C15    C     0.44181   0.11545   0.18218   0.00000  Uiso   1.00
C16    C     0.05540   0.38751   0.80865   0.00000  Uiso   1.00
C17    C     0.25000   0.00000   0.58991   0.00000  Uiso   1.00
C18    C     0.25000   0.49999   0.91009   0.00000  Uiso   1.00
C19    C     0.25000   0.00001   0.08991   0.00000  Uiso   1.00
C20    C    -0.00000   0.25000   0.91009   0.00000  Uiso   1.00
C21    C     0.00000   0.25000   0.08991   0.00000  Uiso   1.00
C22    C     0.06999   0.18001   0.24997   0.00000  Uiso   1.00
C23    C     0.43004   0.32002   0.74999   0.00000  Uiso   1.00
C24    C     0.18003   0.43003   0.25001   0.00000  Uiso   1.00
C25    C    -0.00000   0.25000   0.97334   0.00000  Uiso   1.00
C26    C     0.31998   0.06995   0.74996   0.00000  Uiso   1.00
C27    C     0.43001   0.31999   0.25005   0.00000  Uiso   1.00
C28    C     0.07010   0.18013   0.74981   0.00000  Uiso   1.00
C29    C     0.31993   0.06999   0.24998   0.00000  Uiso   1.00
C30    C     0.18007   0.43000   0.75000   0.00000  Uiso   1.00
C31    C     0.06994   0.32000   0.75000   0.00000  Uiso   1.00
C32    C     0.43003   0.18003   0.25008   0.00000  Uiso   1.00
C33    C     0.17991   0.06987   0.75019   0.00000  Uiso   1.00
C34    C     0.32003   0.43003   0.24988   0.00000  Uiso   1.00
C35    C     0.43002   0.18005   0.75004   0.00000  Uiso   1.00
C36    C     0.25000   0.00001   0.02666   0.00000  Uiso   1.00
C37    C     0.06995   0.31997   0.24998   0.00000  Uiso   1.00
C38    C     0.31996   0.42998   0.75000   0.00000  Uiso   1.00
C39    C     0.17988   0.06986   0.24970   0.00000  Uiso   1.00
C40    C     0.13168   0.34102   0.27824   0.00000  Uiso   1.00
C41    C     0.36955   0.15773   0.71741   0.00000  Uiso   1.00
C42    C     0.33789   0.36502   0.25559   0.00000  Uiso   1.00
C43    C     0.16111   0.13383   0.73230   0.00000  Uiso   1.00
C44    C     0.36882   0.15837   0.28055   0.00000  Uiso   1.00
C45    C     0.13242   0.34034   0.72465   0.00000  Uiso   1.00
C46    C     0.16122   0.13393   0.26583   0.00000  Uiso   1.00
C47    C     0.25000   0.49999   0.97334   0.00000  Uiso   1.00
C48    C     0.33817   0.36530   0.73949   0.00000  Uiso   1.00
C49    C     0.13387   0.16092   0.73123   0.00000  Uiso   1.00
C50    C     0.36487   0.33776   0.25692   0.00000  Uiso   1.00
C51    C     0.34205   0.13075   0.71815   0.00000  Uiso   1.00
C52    C     0.15960   0.36749   0.27540   0.00000  Uiso   1.00
C53    C     0.36524   0.33808   0.73831   0.00000  Uiso   1.00
C54    C     0.13420   0.16128   0.26630   0.00000  Uiso   1.00
C55    C     0.15945   0.36776   0.72370   0.00000  Uiso   1.00
C56    C     0.34181   0.13089   0.28125   0.00000  Uiso   1.00
C57    C     0.38045   0.09227   0.78259   0.00000  Uiso   1.00
C58    C     0.25000   0.00000   0.52666   0.00000  Uiso   1.00
C59    C     0.11749   0.40968   0.22489   0.00000  Uiso   1.00
C60    C     0.08889   0.11617   0.76770   0.00000  Uiso   1.00
C61    C     0.41216   0.38496   0.24369   0.00000  Uiso   1.00
C62    C     0.11758   0.40966   0.77535   0.00000  Uiso   1.00
C63    C     0.38110   0.09166   0.21952   0.00000  Uiso   1.00
C64    C     0.41183   0.38470   0.76051   0.00000  Uiso   1.00
C65    C     0.08872   0.11597   0.23302   0.00000  Uiso   1.00
C66    C     0.38520   0.41225   0.24304   0.00000  Uiso   1.00
C67    C     0.11613   0.08908   0.76877   0.00000  Uiso   1.00
C68    C     0.09098   0.38180   0.22195   0.00000  Uiso   1.00
C69    C     0.25000   0.00001   0.47334   0.00000  Uiso   1.00
C70    C     0.40795   0.11925   0.78185   0.00000  Uiso   1.00
C71    C     0.11597   0.08894   0.23146   0.00000  Uiso   1.00
C72    C     0.38476   0.41192   0.76169   0.00000  Uiso   1.00
C73    C     0.40808   0.11915   0.21877   0.00000  Uiso   1.00
C74    C     0.09055   0.38223   0.77630   0.00000  Uiso   1.00
C75    C     0.15189   0.40189   0.25006   0.00000  Uiso   1.00
C76    C     0.34819   0.09798   0.74960   0.00000  Uiso   1.00
C77    C     0.40181   0.34805   0.25039   0.00000  Uiso   1.00
C78    C     0.09822   0.15202   0.75033   0.00000  Uiso   1.00
C79    C     0.34794   0.09821   0.24959   0.00000  Uiso   1.00
C80    C    -0.00000   0.25001   0.52666   0.00000  Uiso   1.00
C81    C     0.15201   0.40181   0.75039   0.00000  Uiso   1.00
C82    C     0.09815   0.15191   0.24980   0.00000  Uiso   1.00
C83    C     0.40183   0.34810   0.74953   0.00000  Uiso   1.00
C84    C     0.15178   0.09798   0.74967   0.00000  Uiso   1.00
C85    C     0.34824   0.40196   0.24945   0.00000  Uiso   1.00
C86    C     0.40181   0.15202   0.75040   0.00000  Uiso   1.00
C87    C     0.09805   0.34808   0.25000   0.00000  Uiso   1.00
C88    C     0.34817   0.40190   0.75047   0.00000  Uiso   1.00
C89    C     0.15171   0.09795   0.24971   0.00000  Uiso   1.00
C90    C     0.09799   0.34819   0.74961   0.00000  Uiso   1.00
C91    C     0.00000   0.24999   0.47334   0.00000  Uiso   1.00
C92    C     0.40198   0.15182   0.25048   0.00000  Uiso   1.00
C93    C     0.13631   0.30659   0.31285   0.00000  Uiso   1.00
C94    C     0.36631   0.19105   0.67966   0.00000  Uiso   1.00
C95    C     0.29892   0.35583   0.26510   0.00000  Uiso   1.00
C96    C     0.19970   0.14263   0.71689   0.00000  Uiso   1.00
C97    C     0.36259   0.19461   0.30890   0.00000  Uiso   1.00
C98    C     0.13986   0.30296   0.70161   0.00000  Uiso   1.00
C99    C     0.19910   0.14159   0.28553   0.00000  Uiso   1.00
C100   C     0.29966   0.35672   0.72473   0.00000  Uiso   1.00
C101   C     0.14135   0.19778   0.70580   0.00000  Uiso   1.00
C102   C     0.00000   0.24999   0.41009   0.00000  Uiso   1.00
C103   C     0.35558   0.29887   0.27015   0.00000  Uiso   1.00
C104   C     0.30613   0.13667   0.68850   0.00000  Uiso   1.00
C105   C     0.19702   0.35974   0.29806   0.00000  Uiso   1.00
C106   C     0.35679   0.29977   0.72008   0.00000  Uiso   1.00
C107   C     0.14185   0.19885   0.28911   0.00000  Uiso   1.00
C108   C     0.19460   0.36249   0.69135   0.00000  Uiso   1.00
C109   C     0.30802   0.13459   0.31775   0.00000  Uiso   1.00
C110   C     0.38369   0.05895   0.82034   0.00000  Uiso   1.00
C111   C     0.10975   0.44716   0.20256   0.00000  Uiso   1.00
C112   C     0.05030   0.10737   0.78312   0.00000  Uiso   1.00
H113   H     0.12356   0.28155   0.29784   0.00000  Uiso   1.00
H114   H     0.37453   0.28210   0.29517   0.00000  Uiso   1.00
H115   H     0.29141   0.11385   0.66918   0.00000  Uiso   1.00
H116   H     0.21350   0.38144   0.31702   0.00000  Uiso   1.00
H117   H     0.37707   0.28400   0.69623   0.00000  Uiso   1.00
H118   H     0.12038   0.21419   0.31082   0.00000  Uiso   1.00
H119   H     0.21939   0.37514   0.70760   0.00000  Uiso   1.00
H120   H     0.28249   0.12308   0.30218   0.00000  Uiso   1.00
H121   H     0.37233   0.03326   0.80526   0.00000  Uiso   1.00
H122   H     0.13121   0.46324   0.18198   0.00000  Uiso   1.00
H123   H     0.03353   0.12726   0.80605   0.00000  Uiso   1.00
H124   H     0.37767   0.21674   0.69474   0.00000  Uiso   1.00
H125   H     0.46399   0.38370   0.19188   0.00000  Uiso   1.00
H126   H     0.13159   0.46250   0.82017   0.00000  Uiso   1.00
H127   H     0.36479   0.04049   0.17153   0.00000  Uiso   1.00
H128   H     0.46285   0.38090   0.81410   0.00000  Uiso   1.00
H129   H     0.03372   0.12696   0.19369   0.00000  Uiso   1.00
H130   H     0.37583   0.46804   0.20520   0.00000  Uiso   1.00
H131   H     0.12104   0.02819   0.77493   0.00000  Uiso   1.00
H132   H     0.03164   0.37318   0.20174   0.00000  Uiso   1.00
H133   H     0.45859   0.13614   0.83081   0.00000  Uiso   1.00
H134   H     0.12088   0.02802   0.22612   0.00000  Uiso   1.00
H135   H     0.28486   0.36608   0.30417   0.00000  Uiso   1.00
H136   H     0.37293   0.46600   0.80377   0.00000  Uiso   1.00
H137   H     0.46732   0.12696   0.19773   0.00000  Uiso   1.00
H138   H     0.03061   0.37486   0.79240   0.00000  Uiso   1.00
H139   H     0.21647   0.12274   0.69395   0.00000  Uiso   1.00
H140   H     0.38517   0.20952   0.32854   0.00000  Uiso   1.00
H141   H     0.11841   0.28750   0.67983   0.00000  Uiso   1.00
H142   H     0.21014   0.12733   0.32385   0.00000  Uiso   1.00
H143   H     0.28715   0.36910   0.68590   0.00000  Uiso   1.00
H144   H     0.12896   0.22181   0.72507   0.00000  Uiso   1.00
O145   O     0.00000   0.25000   0.25000   0.00000  Uiso   1.00
O146   O     0.00000   0.28035   0.61781   0.00000  Uiso   1.00
O147   O     0.21965  -0.00000   0.38219   0.00000  Uiso   1.00
O148   O     0.28036  -0.00000   0.61781   0.00000  Uiso   1.00
O149   O     0.25000   0.03035   0.88219   0.00000  Uiso   1.00
O150   O     0.25000   0.46964   0.11781   0.00000  Uiso   1.00
O151   O     0.03036   0.25000   0.88219   0.00000  Uiso   1.00
O152   O     0.46965   0.25000   0.11781   0.00000  Uiso   1.00
O153   O     0.25000   0.46964   0.88219   0.00000  Uiso   1.00
O154   O     0.25000   0.03035   0.11781   0.00000  Uiso   1.00
O155   O     0.46965   0.25000   0.88219   0.00000  Uiso   1.00
O156   O     0.00000   0.25000   0.75000   0.00000  Uiso   1.00
O157   O     0.03036   0.25000   0.11781   0.00000  Uiso   1.00
O158   O     0.04268   0.17692   0.28474   0.00000  Uiso   1.00
O159   O     0.45733   0.32307   0.71526   0.00000  Uiso   1.00
O160   O     0.17693   0.45732   0.28474   0.00000  Uiso   1.00
O161   O     0.32308   0.04267   0.71526   0.00000  Uiso   1.00
O162   O     0.45733   0.32307   0.28474   0.00000  Uiso   1.00
O163   O     0.04268   0.17692   0.71526   0.00000  Uiso   1.00
O164   O     0.32308   0.04267   0.28474   0.00000  Uiso   1.00
O165   O     0.17693   0.45732   0.71526   0.00000  Uiso   1.00
O166   O     0.04268   0.32307   0.71526   0.00000  Uiso   1.00
O167   O     0.25000  -0.00000   0.25000   0.00000  Uiso   1.00
O168   O     0.45733   0.17692   0.28474   0.00000  Uiso   1.00
O169   O     0.17693   0.04267   0.71526   0.00000  Uiso   1.00
O170   O     0.32308   0.45732   0.28474   0.00000  Uiso   1.00
O171   O     0.45733   0.17692   0.71526   0.00000  Uiso   1.00
O172   O     0.04268   0.32307   0.28474   0.00000  Uiso   1.00
O173   O     0.32308   0.45732   0.71526   0.00000  Uiso   1.00
O174   O     0.17693   0.04267   0.28474   0.00000  Uiso   1.00
O175   O     0.29268   0.42692   0.78474   0.00000  Uiso   1.00
O176   O     0.20733   0.07307   0.21526   0.00000  Uiso   1.00
O177   O     0.42693   0.20732   0.78474   0.00000  Uiso   1.00
O178   O     0.25000  -0.00000   0.75000   0.00000  Uiso   1.00
O179   O     0.07308   0.29267   0.21526   0.00000  Uiso   1.00
O180   O     0.20733   0.07307   0.78474   0.00000  Uiso   1.00
O181   O     0.29268   0.42692   0.21526   0.00000  Uiso   1.00
O182   O     0.07308   0.29267   0.78474   0.00000  Uiso   1.00
O183   O     0.42693   0.20732   0.21526   0.00000  Uiso   1.00
O184   O     0.29268   0.07307   0.21526   0.00000  Uiso   1.00
O185   O     0.20733   0.42692   0.78474   0.00000  Uiso   1.00
O186   O     0.42693   0.29267   0.21526   0.00000  Uiso   1.00
O187   O     0.07308   0.20732   0.78474   0.00000  Uiso   1.00
O188   O     0.20733   0.42692   0.21526   0.00000  Uiso   1.00
O189   O     0.00000   0.28035   0.38219   0.00000  Uiso   1.00
O190   O     0.29268   0.07307   0.78474   0.00000  Uiso   1.00
O191   O     0.07308   0.20732   0.21526   0.00000  Uiso   1.00
O192   O     0.42693   0.29267   0.78474   0.00000  Uiso   1.00
O193   O     0.15292   0.30627   0.35998   0.00000  Uiso   1.00
O194   O     0.35260   0.18971   0.63013   0.00000  Uiso   1.00
O195   O     0.28188   0.33885   0.22749   0.00000  Uiso   1.00
O196   O     0.21354   0.17149   0.73200   0.00000  Uiso   1.00
O197   O     0.33257   0.20892   0.30820   0.00000  Uiso   1.00
O198   O     0.16944   0.28848   0.70917   0.00000  Uiso   1.00
O199   O     0.21884   0.16184   0.25673   0.00000  Uiso   1.00
O200   O     0.00000   0.21964   0.61781   0.00000  Uiso   1.00
O201   O     0.28122   0.33776   0.75784   0.00000  Uiso   1.00
O202   O     0.16024   0.20146   0.66138   0.00000  Uiso   1.00
O203   O     0.32755   0.28475   0.25208   0.00000  Uiso   1.00
O204   O     0.29186   0.16671   0.68780   0.00000  Uiso   1.00
O205   O     0.21040   0.32941   0.29350   0.00000  Uiso   1.00
O206   O     0.32793   0.28503   0.73249   0.00000  Uiso   1.00
O207   O     0.17149   0.21351   0.28294   0.00000  Uiso   1.00
O208   O     0.19586   0.34552   0.64462   0.00000  Uiso   1.00
O209   O     0.30877   0.14886   0.36687   0.00000  Uiso   1.00
O210   O     0.39740   0.06029   0.86987   0.00000  Uiso   1.00
O211   O     0.28036  -0.00000   0.38219   0.00000  Uiso   1.00
O212   O     0.07979   0.46101   0.20928   0.00000  Uiso   1.00
O213   O     0.03647   0.07851   0.76801   0.00000  Uiso   1.00
O214   O     0.46896   0.41092   0.26829   0.00000  Uiso   1.00
O215   O     0.08056   0.46152   0.79083   0.00000  Uiso   1.00
O216   O     0.41737   0.04110   0.19199   0.00000  Uiso   1.00
O217   O     0.46878   0.41224   0.74216   0.00000  Uiso   1.00
O218   O     0.03600   0.07869   0.23366   0.00000  Uiso   1.00
O219   O     0.42237   0.46522   0.24960   0.00000  Uiso   1.00
O220   O     0.08976   0.04854   0.83862   0.00000  Uiso   1.00
O221   O     0.05597   0.40416   0.14127   0.00000  Uiso   1.00
O222   O     0.21965  -0.00000   0.61781   0.00000  Uiso   1.00
O223   O     0.45814   0.08329   0.81221   0.00000  Uiso   1.00
O224   O     0.08900   0.04802   0.16292   0.00000  Uiso   1.00
O225   O     0.42207   0.46497   0.76751   0.00000  Uiso   1.00
O226   O     0.44103   0.10119   0.13306   0.00000  Uiso   1.00
O227   O     0.05414   0.40448   0.85538   0.00000  Uiso   1.00
O228   O     0.00000   0.21964   0.38219   0.00000  Uiso   1.00
Zn229  Zn    0.04333   0.25000   0.20067   0.00000  Uiso   1.00
Zn230  Zn    0.20667  -0.00000   0.29933   0.00000  Uiso   1.00
Zn231  Zn    0.00000   0.20667   0.70067   0.00000  Uiso   1.00
Zn232  Zn    0.00000   0.29333   0.29933   0.00000  Uiso   1.00
Zn233  Zn    0.20667  -0.00000   0.70067   0.00000  Uiso   1.00
Zn234  Zn    0.29333  -0.00000   0.29933   0.00000  Uiso   1.00
Zn235  Zn    0.00000   0.29333   0.70067   0.00000  Uiso   1.00
Zn236  Zn    0.00000   0.20667   0.29933   0.00000  Uiso   1.00
Zn237  Zn    0.45667   0.25000   0.79933   0.00000  Uiso   1.00
Zn238  Zn    0.25000   0.45667   0.20067   0.00000  Uiso   1.00
Zn239  Zn    0.25000   0.04333   0.79933   0.00000  Uiso   1.00
Zn240  Zn    0.45667   0.25000   0.20067   0.00000  Uiso   1.00
Zn241  Zn    0.04333   0.25000   0.79933   0.00000  Uiso   1.00
Zn242  Zn    0.25000   0.04333   0.20067   0.00000  Uiso   1.00
Zn243  Zn    0.25000   0.45667   0.79933   0.00000  Uiso   1.00
Zn244  Zn    0.29333  -0.00000   0.70067   0.00000  Uiso   1.00
C245   C     0.50000   0.25000   0.02666   0.00000  Uiso   1.00
C246   C     0.50000   0.25001   0.58991   0.00000  Uiso   1.00
C247   C     0.95096   0.39398   0.23186   0.00000  Uiso   1.00
C248   C     0.61014   0.44704   0.79839   0.00000  Uiso   1.00
C249   C     0.88735   0.05541   0.19120   0.00000  Uiso   1.00
C250   C     0.95034   0.39328   0.77527   0.00000  Uiso   1.00
C251   C     0.55014   0.10724   0.21766   0.00000  Uiso   1.00
C252   C     0.89456   0.45118   0.23049   0.00000  Uiso   1.00
C253   C     0.60865   0.05222   0.79420   0.00000  Uiso   1.00
C254   C     0.55652   0.38661   0.18751   0.00000  Uiso   1.00
C255   C     0.94387   0.11333   0.81150   0.00000  Uiso   1.00
C256   C     0.60830   0.05195   0.20679   0.00000  Uiso   1.00
C257   C     0.75000   0.00000   0.41009   0.00000  Uiso   1.00
C258   C     0.89321   0.45023   0.77992   0.00000  Uiso   1.00
C259   C     0.94181   0.11545   0.18218   0.00000  Uiso   1.00
C260   C     0.55540   0.38751   0.80865   0.00000  Uiso   1.00
C261   C     0.75000   0.00000   0.58991   0.00000  Uiso   1.00
C262   C     0.75000   0.49999   0.91009   0.00000  Uiso   1.00
C263   C     0.75000   0.00001   0.08991   0.00000  Uiso   1.00
C264   C     0.50000   0.25000   0.91009   0.00000  Uiso   1.00
C265   C     0.50000   0.25000   0.08991   0.00000  Uiso   1.00
C266   C     0.56999   0.18001   0.24997   0.00000  Uiso   1.00
C267   C     0.93004   0.32002   0.74999   0.00000  Uiso   1.00
C268   C     0.68003   0.43003   0.25001   0.00000  Uiso   1.00
C269   C     0.50000   0.25000   0.97334   0.00000  Uiso   1.00
C270   C     0.81998   0.06995   0.74996   0.00000  Uiso   1.00
C271   C     0.93001   0.31999   0.25005   0.00000  Uiso   1.00
C272   C     0.57010   0.18013   0.74981   0.00000  Uiso   1.00
C273   C     0.81993   0.06999   0.24998   0.00000  Uiso   1.00
C274   C     0.68007   0.43000   0.75000   0.00000  Uiso   1.00
C275   C     0.56994   0.32000   0.75000   0.00000  Uiso   1.00
C276   C     0.93003   0.18003   0.25008   0.00000  Uiso   1.00
C277   C     0.67991   0.06987   0.75019   0.00000  Uiso   1.00
C278   C     0.82003   0.43003   0.24988   0.00000  Uiso   1.00
C279   C     0.93002   0.18005   0.75004   0.00000  Uiso   1.00
C280   C     0.75000   0.00001   0.02666   0.00000  Uiso   1.00
C281   C     0.56995   0.31997   0.24998   0.00000  Uiso   1.00
C282   C     0.81996   0.42998   0.75000   0.00000  Uiso   1.00
C283   C     0.67988   0.06986   0.24970   0.00000  Uiso   1.00
C284   C     0.63168   0.34102   0.27824   0.00000  Uiso   1.00
C285   C     0.86955   0.15773   0.71741   0.00000  Uiso   1.00
C286   C     0.83789   0.36502   0.25559   0.00000  Uiso   1.00
C287   C     0.66111   0.13383   0.73230   0.00000  Uiso   1.00
C288   C     0.86882   0.15837   0.28055   0.00000  Uiso   1.00
C289   C     0.63242   0.34034   0.72465   0.00000  Uiso   1.00
C290   C     0.66122   0.13393   0.26583   0.00000  Uiso   1.00
C291   C     0.75000   0.49999   0.97334   0.00000  Uiso   1.00
C292   C     0.83817   0.36530   0.73949   0.00000  Uiso   1.00
C293   C     0.63387   0.16092   0.73123   0.00000  Uiso   1.00
C294   C     0.86487   0.33776   0.25692   0.00000  Uiso   1.00
C295   C     0.84205   0.13075   0.71815   0.00000  Uiso   1.00
C296   C     0.65960   0.36749   0.27540   0.00000  Uiso   1.00
C297   C     0.86524   0.33808   0.73831   0.00000  Uiso   1.00
C298   C     0.63420   0.16128   0.26630   0.00000  Uiso   1.00
C299   C     0.65945   0.36776   0.72370   0.00000  Uiso   1.00
C300   C     0.84181   0.13089   0.28125   0.00000  Uiso   1.00
C301   C     0.88045   0.09227   0.78259   0.00000  Uiso   1.00
C302   C     0.75000   0.00000   0.52666   0.00000  Uiso   1.00
C303   C     0.61749   0.40968   0.22489   0.00000  Uiso   1.00
C304   C     0.58889   0.11617   0.76770   0.00000  Uiso   1.00
C305   C     0.91216   0.38496   0.24369   0.00000  Uiso   1.00
C306   C     0.61758   0.40966   0.77535   0.00000  Uiso   1.00
C307   C     0.88110   0.09166   0.21952   0.00000  Uiso   1.00
C308   C     0.91183   0.38470   0.76051   0.00000  Uiso   1.00
C309   C     0.58872   0.11597   0.23302   0.00000  Uiso   1.00
C310   C     0.88520   0.41225   0.24304   0.00000  Uiso   1.00
C311   C     0.61613   0.08908   0.76877   0.00000  Uiso   1.00
C312   C     0.59098   0.38180   0.22195   0.00000  Uiso   1.00
C313   C     0.75000   0.00001   0.47334   0.00000  Uiso   1.00
C314   C     0.90795   0.11925   0.78185   0.00000  Uiso   1.00
C315   C     0.61597   0.08894   0.23146   0.00000  Uiso   1.00
C316   C     0.88476   0.41192   0.76169   0.00000  Uiso   1.00
C317   C     0.90808   0.11915   0.21877   0.00000  Uiso   1.00
C318   C     0.59055   0.38223   0.77630   0.00000  Uiso   1.00
C319   C     0.65189   0.40189   0.25006   0.00000  Uiso   1.00
C320   C     0.84819   0.09798   0.74960   0.00000  Uiso   1.00
C321   C     0.90181   0.34805   0.25039   0.00000  Uiso   1.00
C322   C     0.59822   0.15202   0.75033   0.00000  Uiso   1.00
C323   C     0.84794   0.09821   0.24959   0.00000  Uiso   1.00
C324   C     0.50000   0.25001   0.52666   0.00000  Uiso   1.00
C325   C     0.65201   0.40181   0.75039   0.00000  Uiso   1.00
C326   C     0.59815   0.15191   0.24980   0.00000  Uiso   1.00
C327   C     0.90183   0.34810   0.74953   0.00000  Uiso   1.00
C328   C     0.65178   0.09798   0.74967   0.00000  Uiso   1.00
C329   C     0.84824   0.40196   0.24945   0.00000  Uiso   1.00
C330   C     0.90181   0.15202   0.75040   0.00000  Uiso   1.00
C331   C     0.59805   0.34808   0.25000   0.00000  Uiso   1.00
C332   C     0.84817   0.40190   0.75047   0.00000  Uiso   1.00
C333   C     0.65171   0.09795   0.24971   0.00000  Uiso   1.00
C334   C     0.59799   0.34819   0.74961   0.00000  Uiso   1.00
C335   C     0.50000   0.24999   0.47334   0.00000  Uiso   1.00
C336   C     0.90198   0.15182   0.25048   0.00000  Uiso   1.00
C337   C     0.63631   0.30659   0.31285   0.00000  Uiso   1.00
C338   C     0.86631   0.19105   0.67966   0.00000  Uiso   1.00
C339   C     0.79892   0.35583   0.26510   0.00000  Uiso   1.00
C340   C     0.69970   0.14263   0.71689   0.00000  Uiso   1.00
C341   C     0.86259   0.19461   0.30890   0.00000  Uiso   1.00
C342   C     0.63986   0.30296   0.70161   0.00000  Uiso   1.00
C343   C     0.69910   0.14159   0.28553   0.00000  Uiso   1.00
C344   C     0.79966   0.35672   0.72473   0.00000  Uiso   1.00
C345   C     0.64135   0.19778   0.70580   0.00000  Uiso   1.00
C346   C     0.50000   0.24999   0.41009   0.00000  Uiso   1.00
C347   C     0.85558   0.29887   0.27015   0.00000  Uiso   1.00
C348   C     0.80613   0.13667   0.68850   0.00000  Uiso   1.00
C349   C     0.69702   0.35974   0.29806   0.00000  Uiso   1.00
C350   C     0.85679   0.29977   0.72008   0.00000  Uiso   1.00
C351   C     0.64185   0.19885   0.28911   0.00000  Uiso   1.00
C352   C     0.69460   0.36249   0.69135   0.00000  Uiso   1.00
C353   C     0.80802   0.13459   0.31775   0.00000  Uiso   1.00
C354   C     0.88369   0.05895   0.82034   0.00000  Uiso   1.00
C355   C     0.60975   0.44716   0.20256   0.00000  Uiso   1.00
C356   C     0.55030   0.10737   0.78312   0.00000  Uiso   1.00
H357   H     0.62356   0.28155   0.29784   0.00000  Uiso   1.00
H358   H     0.87453   0.28210   0.29517   0.00000  Uiso   1.00
H359   H     0.79141   0.11385   0.66918   0.00000  Uiso   1.00
H360   H     0.71350   0.38144   0.31702   0.00000  Uiso   1.00
H361   H     0.87707   0.28400   0.69623   0.00000  Uiso   1.00
H362   H     0.62038   0.21419   0.31082   0.00000  Uiso   1.00
H363   H     0.71939   0.37514   0.70760   0.00000  Uiso   1.00
H364   H     0.78249   0.12308   0.30218   0.00000  Uiso   1.00
H365   H     0.87233   0.03326   0.80526   0.00000  Uiso   1.00
H366   H     0.63121   0.46324   0.18198   0.00000  Uiso   1.00
H367   H     0.53353   0.12726   0.80605   0.00000  Uiso   1.00
H368   H     0.87767   0.21674   0.69474   0.00000  Uiso   1.00
H369   H     0.96399   0.38370   0.19188   0.00000  Uiso   1.00
H370   H     0.63159   0.46250   0.82017   0.00000  Uiso   1.00
H371   H     0.86479   0.04049   0.17153   0.00000  Uiso   1.00
H372   H     0.96285   0.38090   0.81410   0.00000  Uiso   1.00
H373   H     0.53372   0.12696   0.19369   0.00000  Uiso   1.00
H374   H     0.87583   0.46804   0.20520   0.00000  Uiso   1.00
H375   H     0.62104   0.02819   0.77493   0.00000  Uiso   1.00
H376   H     0.53164   0.37318   0.20174   0.00000  Uiso   1.00
H377   H     0.95859   0.13614   0.83081   0.00000  Uiso   1.00
H378   H     0.62088   0.02802   0.22612   0.00000  Uiso   1.00
H379   H     0.78486   0.36608   0.30417   0.00000  Uiso   1.00
H380   H     0.87293   0.46600   0.80377   0.00000  Uiso   1.00
H381   H     0.96732   0.12696   0.19773   0.00000  Uiso   1.00
H382   H     0.53061   0.37486   0.79240   0.00000  Uiso   1.00
H383   H     0.71647   0.12274   0.69395   0.00000  Uiso   1.00
H384   H     0.88517   0.20952   0.32854   0.00000  Uiso   1.00
H385   H     0.61841   0.28750   0.67983   0.00000  Uiso   1.00
H386   H     0.71014   0.12733   0.32385   0.00000  Uiso   1.00
H387   H     0.78715   0.36910   0.68590   0.00000  Uiso   1.00
H388   H     0.62896   0.22181   0.72507   0.00000  Uiso   1.00
O389   O     0.50000   0.25000   0.25000   0.00000  Uiso   1.00
O390   O     0.50000   0.28035   0.61781   0.00000  Uiso   1.00
O391   O     0.71965  -0.00000   0.38219   0.00000  Uiso   1.00
O392   O     0.78036  -0.00000   0.61781   0.00000  Uiso   1.00
O393   O     0.75000   0.03035   0.88219   0.00000  Uiso   1.00
O394   O     0.75000   0.46964   0.11781   0.00000  Uiso   1.00
O395   O     0.53036   0.25000   0.88219   0.00000  Uiso   1.00
O396   O     0.96965   0.25000   0.11781   0.00000  Uiso   1.00
O397   O     0.75000   0.46964   0.88219   0.00000  Uiso   1.00
O398   O     0.75000   0.03035   0.11781   0.00000  Uiso   1.00
O399   O     0.96965   0.25000   0.88219   0.00000  Uiso   1.00
O400   O     0.50000   0.25000   0.75000   0.00000  Uiso   1.00
O401   O     0.53036   0.25000   0.11781   0.00000  Uiso   1.00
O402   O     0.54268   0.17692   0.28474   0.00000  Uiso   1.00
O403   O     0.95733   0.32307   0.71526   0.00000  Uiso   1.00
O404   O     0.67693   0.45732   0.28474   0.00000  Uiso   1.00
O405   O     0.82308   0.04267   0.71526   0.00000  Uiso   1.00
O406   O     0.95733   0.32307   0.28474   0.00000  Uiso   1.00
O407   O     0.54268   0.17692   0.71526   0.00000  Uiso   1.00
O408   O     0.82308   0.04267   0.28474   0.00000  Uiso   1.00
O409   O     0.67693   0.45732   0.71526   0.00000  Uiso   1.00
O410   O     0.54268   0.32307   0.71526   0.00000  Uiso   1.00
O411   O     0.75000  -0.00000   0.25000   0.00000  Uiso   1.00
O412   O     0.95733   0.17692   0.28474   0.00000  Uiso   1.00
O413   O     0.67693   0.04267   0.71526   0.00000  Uiso   1.00
O414   O     0.82308   0.45732   0.28474   0.00000  Uiso   1.00
O415   O     0.95733   0.17692   0.71526   0.00000  Uiso   1.00
O416   O     0.54268   0.32307   0.28474   0.00000  Uiso   1.00
O417   O     0.82308   0.45732   0.71526   0.00000  Uiso   1.00
O418   O     0.67693   0.04267   0.28474   0.00000  Uiso   1.00
O419   O     0.79268   0.42692   0.78474   0.00000  Uiso   1.00
O420   O     0.70733   0.07307   0.21526   0.00000  Uiso   1.00
O421   O     0.92693   0.20732   0.78474   0.00000  Uiso   1.00
O422   O     0.75000  -0.00000   0.75000   0.00000  Uiso   1.00
O423   O     0.57308   0.29267   0.21526   0.00000  Uiso   1.00
O424   O     0.70733   0.07307   0.78474   0.00000  Uiso   1.00
O425   O     0.79268   0.42692   0.21526   0.00000  Uiso   1.00
O426   O     0.57308   0.29267   0.78474   0.00000  Uiso   1.00
O427   O     0.92693   0.20732   0.21526   0.00000  Uiso   1.00
O428   O     0.79268   0.07307   0.21526   0.00000  Uiso   1.00
O429   O     0.70733   0.42692   0.78474   0.00000  Uiso   1.00
O430   O     0.92693   0.29267   0.21526   0.00000  Uiso   1.00
O431   O     0.57308   0.20732   0.78474   0.00000  Uiso   1.00
O432   O     0.70733   0.42692   0.21526   0.00000  Uiso   1.00
O433   O     0.50000   0.28035   0.38219   0.00000  Uiso   1.00
O434   O     0.79268   0.07307   0.78474   0.00000  Uiso   1.00
O435   O     0.57308   0.20732   0.21526   0.00000  Uiso   1.00
O436   O     0.92693   0.29267   0.78474   0.00000  Uiso   1.00
O437   O     0.65292   0.30627   0.35998   0.00000  Uiso   1.00
O438   O     0.85260   0.18971   0.63013   0.00000  Uiso   1.00
O439   O     0.78188   0.33885   0.22749   0.00000  Uiso   1.00
O440   O     0.71354   0.17149   0.73200   0.00000  Uiso   1.00
O441   O     0.83257   0.20892   0.30820   0.00000  Uiso   1.00
O442   O     0.66944   0.28848   0.70917   0.00000  Uiso   1.00
O443   O     0.71884   0.16184   0.25673   0.00000  Uiso   1.00
O444   O     0.50000   0.21964   0.61781   0.00000  Uiso   1.00
O445   O     0.78122   0.33776   0.75784   0.00000  Uiso   1.00
O446   O     0.66024   0.20146   0.66138   0.00000  Uiso   1.00
O447   O     0.82755   0.28475   0.25208   0.00000  Uiso   1.00
O448   O     0.79186   0.16671   0.68780   0.00000  Uiso   1.00
O449   O     0.71040   0.32941   0.29350   0.00000  Uiso   1.00
O450   O     0.82793   0.28503   0.73249   0.00000  Uiso   1.00
O451   O     0.67149   0.21351   0.28294   0.00000  Uiso   1.00
O452   O     0.69586   0.34552   0.64462   0.00000  Uiso   1.00
O453   O     0.80877   0.14886   0.36687   0.00000  Uiso   1.00
O454   O     0.89740   0.06029   0.86987   0.00000  Uiso   1.00
O455   O     0.78036  -0.00000   0.38219   0.00000  Uiso   1.00
O456   O     0.57979   0.46101   0.20928   0.00000  Uiso   1.00
O457   O     0.53647   0.07851   0.76801   0.00000  Uiso   1.00
O458   O     0.96896   0.41092   0.26829   0.00000  Uiso   1.00
O459   O     0.58056   0.46152   0.79083   0.00000  Uiso   1.00
O460   O     0.91737   0.04110   0.19199   0.00000  Uiso   1.00
O461   O     0.96878   0.41224   0.74216   0.00000  Uiso   1.00
O462   O     0.53600   0.07869   0.23366   0.00000  Uiso   1.00
O463   O     0.92237   0.46522   0.24960   0.00000  Uiso   1.00
O464   O     0.58976   0.04854   0.83862   0.00000  Uiso   1.00
O465   O     0.55597   0.40416   0.14127   0.00000  Uiso   1.00
O466   O     0.71965  -0.00000   0.61781   0.00000  Uiso   1.00
O467   O     0.95814   0.08329   0.81221   0.00000  Uiso   1.00
O468   O     0.58900   0.04802   0.16292   0.00000  Uiso   1.00
O469   O     0.92207   0.46497   0.76751   0.00000  Uiso   1.00
O470   O     0.94103   0.10119   0.13306   0.00000  Uiso   1.00
O471   O     0.55414   0.40448   0.85538   0.00000  Uiso   1.00
O472   O     0.50000   0.21964   0.38219   0.00000  Uiso   1.00
Zn473  Zn    0.54333   0.25000   0.20067   0.00000  Uiso   1.00
Zn474  Zn    0.70667  -0.00000   0.29933   0.00000  Uiso   1.00
Zn475  Zn    0.50000   0.20667   0.70067   0.00000  Uiso   1.00
Zn476  Zn    0.50000   0.29333   0.29933   0.00000  Uiso   1.00
Zn477  Zn    0.70667  -0.00000   0.70067   0.00000  Uiso   1.00
Zn478  Zn    0.79333  -0.00000   0.29933   0.00000  Uiso   1.00
Zn479  Zn    0.50000   0.29333   0.70067   0.00000  Uiso   1.00
Zn480  Zn    0.50000   0.20667   0.29933   0.00000  Uiso   1.00
Zn481  Zn    0.95667   0.25000   0.79933   0.00000  Uiso   1.00
Zn482  Zn    0.75000   0.45667   0.20067   0.00000  Uiso   1.00
Zn483  Zn    0.75000   0.04333   0.79933   0.00000  Uiso   1.00
Zn484  Zn    0.95667   0.25000   0.20067   0.00000  Uiso   1.00
Zn485  Zn    0.54333   0.25000   0.79933   0.00000  Uiso   1.00
Zn486  Zn    0.75000   0.04333   0.20067   0.00000  Uiso   1.00
Zn487  Zn    0.75000   0.45667   0.79933   0.00000  Uiso   1.00
Zn488  Zn    0.79333  -0.00000   0.70067   0.00000  Uiso   1.00
C489   C     0.00000   0.75000   0.02666   0.00000  Uiso   1.00
C490   C    -0.00000   0.75001   0.58991   0.00000  Uiso   1.00
C491   C     0.45096   0.89398   0.23186   0.00000  Uiso   1.00
C492   C     0.11014   0.94704   0.79839   0.00000  Uiso   1.00
C493   C     0.38735   0.55541   0.19120   0.00000  Uiso   1.00
C494   C     0.45034   0.89328   0.77527   0.00000  Uiso   1.00
C495   C     0.05014   0.60724   0.21766   0.00000  Uiso   1.00
C496   C     0.39456   0.95118   0.23049   0.00000  Uiso   1.00
C497   C     0.10865   0.55222   0.79420   0.00000  Uiso   1.00
C498   C     0.05652   0.88661   0.18751   0.00000  Uiso   1.00
C499   C     0.44387   0.61333   0.81150   0.00000  Uiso   1.00
C500   C     0.10830   0.55195   0.20679   0.00000  Uiso   1.00
C501   C     0.25000   0.50000   0.41009   0.00000  Uiso   1.00
C502   C     0.39321   0.95023   0.77992   0.00000  Uiso   1.00
C503   C     0.44181   0.61545   0.18218   0.00000  Uiso   1.00
C504   C     0.05540   0.88751   0.80865   0.00000  Uiso   1.00
C505   C     0.25000   0.50000   0.58991   0.00000  Uiso   1.00
C506   C     0.25000   0.99999   0.91009   0.00000  Uiso   1.00
C507   C     0.25000   0.50001   0.08991   0.00000  Uiso   1.00
C508   C    -0.00000   0.75000   0.91009   0.00000  Uiso   1.00
C509   C     0.00000   0.75000   0.08991   0.00000  Uiso   1.00
C510   C     0.06999   0.68001   0.24997   0.00000  Uiso   1.00
C511   C     0.43004   0.82002   0.74999   0.00000  Uiso   1.00
C512   C     0.18003   0.93003   0.25001   0.00000  Uiso   1.00
C513   C    -0.00000   0.75000   0.97334   0.00000  Uiso   1.00
C514   C     0.31998   0.56995   0.74996   0.00000  Uiso   1.00
C515   C     0.43001   0.81999   0.25005   0.00000  Uiso   1.00
C516   C     0.07010   0.68013   0.74981   0.00000  Uiso   1.00
C517   C     0.31993   0.56999   0.24998   0.00000  Uiso   1.00
C518   C     0.18007   0.93000   0.75000   0.00000  Uiso   1.00
C519   C     0.06994   0.82000   0.75000   0.00000  Uiso   1.00
C520   C     0.43003   0.68003   0.25008   0.00000  Uiso   1.00
C521   C     0.17991   0.56987   0.75019   0.00000  Uiso   1.00
C522   C     0.32003   0.93003   0.24988   0.00000  Uiso   1.00
C523   C     0.43002   0.68005   0.75004   0.00000  Uiso   1.00
C524   C     0.25000   0.50001   0.02666   0.00000  Uiso   1.00
C525   C     0.06995   0.81997   0.24998   0.00000  Uiso   1.00
C526   C     0.31996   0.92998   0.75000   0.00000  Uiso   1.00
C527   C     0.17988   0.56986   0.24970   0.00000  Uiso   1.00
C528   C     0.13168   0.84102   0.27824   0.00000  Uiso   1.00
C529   C     0.36955   0.65773   0.71741   0.00000  Uiso   1.00
C530   C     0.33789   0.86502   0.25559   0.00000  Uiso   1.00
C531   C     0.16111   0.63383   0.73230   0.00000  Uiso   1.00
C532   C     0.36882   0.65837   0.28055   0.00000  Uiso   1.00
C533   C     0.13242   0.84034   0.72465   0.00000  Uiso   1.00
C534   C     0.16122   0.63393   0.26583   0.00000  Uiso   1.00
C535   C     0.25000   0.99999   0.97334   0.00000  Uiso   1.00
C536   C     0.33817   0.86530   0.73949   0.00000  Uiso   1.00
C537   C     0.13387   0.66092   0.73123   0.00000  Uiso   1.00
C538   C     0.36487   0.83776   0.25692   0.00000  Uiso   1.00
C539   C     0.34205   0.63075   0.71815   0.00000  Uiso   1.00
C540   C     0.15960   0.86749   0.27540   0.00000  Uiso   1.00
C541   C     0.36524   0.83808   0.73831   0.00000  Uiso   1.00
C542   C     0.13420   0.66128   0.26630   0.00000  Uiso   1.00
C543   C     0.15945   0.86776   0.72370   0.00000  Uiso   1.00
C544   C     0.34181   0.63089   0.28125   0.00000  Uiso   1.00
C545   C     0.38045   0.59227   0.78259   0.00000  Uiso   1.00
C546   C     0.25000   0.50000   0.52666   0.00000  Uiso   1.00
C547   C     0.11749   0.90968   0.22489   0.00000  Uiso   1.00
C548   C     0.08889   0.61617   0.76770   0.00000  Uiso   1.00
C549   C     0.41216   0.88496   0.24369   0.00000  Uiso   1.00
C550   C     0.11758   0.90966   0.77535   0.00000  Uiso   1.00
C551   C     0.38110   0.59166   0.21952   0.00000  Uiso   1.00
C552   C     0.41183   0.88470   0.76051   0.00000  Uiso   1.00
C553   C     0.08872   0.61597   0.23302   0.00000  Uiso   1.00
C554   C     0.38520   0.91225   0.24304   0.00000  Uiso   1.00
C555   C     0.11613   0.58908   0.76877   0.00000  Uiso   1.00
C556   C     0.09098   0.88180   0.22195   0.00000  Uiso   1.00
C557   C     0.25000   0.50001   0.47334   0.00000  Uiso   1.00
C558   C     0.40795   0.61925   0.78185   0.00000  Uiso   1.00
C559   C     0.11597   0.58894   0.23146   0.00000  Uiso   1.00
C560   C     0.38476   0.91192   0.76169   0.00000  Uiso   1.00
C561   C     0.40808   0.61915   0.21877   0.00000  Uiso   1.00
C562   C     0.09055   0.88223   0.77630   0.00000  Uiso   1.00
C563   C     0.15189   0.90189   0.25006   0.00000  Uiso   1.00
C564   C     0.34819   0.59798   0.74960   0.00000  Uiso   1.00
C565   C     0.40181   0.84805   0.25039   0.00000  Uiso   1.00
C566   C     0.09822   0.65202   0.75033   0.00000  Uiso   1.00
C567   C     0.34794   0.59821   0.24959   0.00000  Uiso   1.00
C568   C    -0.00000   0.75001   0.52666   0.00000  Uiso   1.00
C569   C     0.15201   0.90181   0.75039   0.00000  Uiso   1.00
C570   C     0.09815   0.65191   0.24980   0.00000  Uiso   1.00
C571   C     0.40183   0.84810   0.74953   0.00000  Uiso   1.00
C572   C     0.15178   0.59798   0.74967   0.00000  Uiso   1.00
C573   C     0.34824   0.90196   0.24945   0.00000  Uiso   1.00
C574   C     0.40181   0.65202   0.75040   0.00000  Uiso   1.00
C575   C     0.09805   0.84808   0.25000   0.00000  Uiso   1.00
C576   C     0.34817   0.90190   0.75047   0.00000  Uiso   1.00
C577   C     0.15171   0.59795   0.24971   0.00000  Uiso   1.00
C578   C     0.09799   0.84819   0.74961   0.00000  Uiso   1.00
C579   C     0.00000   0.74999   0.47334   0.00000  Uiso   1.00
C580   C     0.40198   0.65182   0.25048   0.00000  Uiso   1.00
C581   C     0.13631   0.80659   0.31285   0.00000  Uiso   1.00
C582   C     0.36631   0.69105   0.67966   0.00000  Uiso   1.00
C583   C     0.29892   0.85583   0.26510   0.00000  Uiso   1.00
C584   C     0.19970   0.64263   0.71689   0.00000  Uiso   1.00
C585   C     0.36259   0.69461   0.30890   0.00000  Uiso   1.00
C586   C     0.13986   0.80296   0.70161   0.00000  Uiso   1.00
C587   C     0.19910   0.64159   0.28553   0.00000  Uiso   1.00
C588   C     0.29966   0.85672   0.72473   0.00000  Uiso   1.00
C589   C     0.14135   0.69778   0.70580   0.00000  Uiso   1.00
C590   C     0.00000   0.74999   0.41009   0.00000  Uiso   1.00
C591   C     0.35558   0.79887   0.27015   0.00000  Uiso   1.00
C592   C     0.30613   0.63667   0.68850   0.00000  Uiso   1.00
C593   C     0.19702   0.85974   0.29806   0.00000  Uiso   1.00
C594   C     0.35679   0.79977   0.72008   0.00000  Uiso   1.00
C595   C     0.14185   0.69885   0.28911   0.00000  Uiso   1.00
C596   C     0.19460   0.86249   0.69135   0.00000  Uiso   1.00
C597   C     0.30802   0.63459   0.31775   0.00000  Uiso   1.00
C598   C     0.38369   0.55895   0.82034   0.00000  Uiso   1.00
C599   C     0.10975   0.94716   0.20256   0.00000  Uiso   1.00
C600   C     0.05030   0.60737   0.78312   0.00000  Uiso   1.00
H601   H     0.12356   0.78155   0.29784   0.00000  Uiso   1.00
H602   H     0.37453   0.78210   0.29517   0.00000  Uiso   1.00
H603   H     0.29141   0.61385   0.66918   0.00000  Uiso   1.00
H604   H     0.21350   0.88144   0.31702   0.00000  Uiso   1.00
H605   H     0.37707   0.78400   0.69623   0.00000  Uiso   1.00
H606   H     0.12038   0.71419   0.31082   0.00000  Uiso   1.00
H607   H     0.21939   0.87514   0.70760   0.00000  Uiso   1.00
H608   H     0.28249   0.62308   0.30218   0.00000  Uiso   1.00
H609   H     0.37233   0.53326   0.80526   0.00000  Uiso   1.00
H610   H     0.13121   0.96324   0.18198   0.00000  Uiso   1.00
H611   H     0.03353   0.62726   0.80605   0.00000  Uiso   1.00
H612   H     0.37767   0.71674   0.69474   0.00000  Uiso   1.00
H613   H     0.46399   0.88370   0.19188   0.00000  Uiso   1.00
H614   H     0.13159   0.96250   0.82017   0.00000  Uiso   1.00
H615   H     0.36479   0.54049   0.17153   0.00000  Uiso   1.00
H616   H     0.46285   0.88090   0.81410   0.00000  Uiso   1.00
H617   H     0.03372   0.62696   0.19369   0.00000  Uiso   1.00
H618   H     0.37583   0.96804   0.20520   0.00000  Uiso   1.00
H619   H     0.12104   0.52819   0.77493   0.00000  Uiso   1.00
H620   H     0.03164   0.87318   0.20174   0.00000  Uiso   1.00
H621   H     0.45859   0.63614   0.83081   0.00000  Uiso   1.00
H622   H     0.12088   0.52802   0.22612   0.00000  Uiso   1.00
H623   H     0.28486   0.86608   0.30417   0.00000  Uiso   1.00
H624   H     0.37293   0.96600   0.80377   0.00000  Uiso   1.00
H625   H     0.46732   0.62696   0.19773   0.00000  Uiso   1.00
H626   H     0.03061   0.87486   0.79240   0.00000  Uiso   1.00
H627   H     0.21647   0.62274   0.69395   0.00000  Uiso   1.00
H628   H     0.38517   0.70952   0.32854   0.00000  Uiso   1.00
H629   H     0.11841   0.78750   0.67983   0.00000  Uiso   1.00
H630   H     0.21014   0.62733   0.32385   0.00000  Uiso   1.00
H631   H     0.28715   0.86910   0.68590   0.00000  Uiso   1.00
H632   H     0.12896   0.72181   0.72507   0.00000  Uiso   1.00
O633   O     0.00000   0.75000   0.25000   0.00000  Uiso   1.00
O634   O     0.00000   0.78035   0.61781   0.00000  Uiso   1.00
O635   O     0.21965   0.50000   0.38219   0.00000  Uiso   1.00
O636   O     0.28036   0.50000   0.61781   0.00000  Uiso   1.00
O637   O     0.25000   0.53035   0.88219   0.00000  Uiso   1.00
O638   O     0.25000   0.96964   0.11781   0.00000  Uiso   1.00
O639   O     0.03036   0.75000   0.88219   0.00000  Uiso   1.00
O640   O     0.46965   0.75000   0.11781   0.00000  Uiso   1.00
O641   O     0.25000   0.96964   0.88219   0.00000  Uiso   1.00
O642   O     0.25000   0.53035   0.11781   0.00000  Uiso   1.00
O643   O     0.46965   0.75000   0.88219   0.00000  Uiso   1.00
O644   O     0.00000   0.75000   0.75000   0.00000  Uiso   1.00
O645   O     0.03036   0.75000   0.11781   0.00000  Uiso   1.00
O646   O     0.04268   0.67692   0.28474   0.00000  Uiso   1.00
O647   O     0.45733   0.82307   0.71526   0.00000  Uiso   1.00
O648   O     0.17693   0.95732   0.28474   0.00000  Uiso   1.00
O649   O     0.32308   0.54267   0.71526   0.00000  Uiso   1.00
O650   O     0.45733   0.82307   0.28474   0.00000  Uiso   1.00
O651   O     0.04268   0.67692   0.71526   0.00000  Uiso   1.00
O652   O     0.32308   0.54267   0.28474   0.00000  Uiso   1.00
O653   O     0.17693   0.95732   0.71526   0.00000  Uiso   1.00
O654   O     0.04268   0.82307   0.71526   0.00000  Uiso   1.00
O655   O     0.25000   0.50000   0.25000   0.00000  Uiso   1.00
O656   O     0.45733   0.67692   0.28474   0.00000  Uiso   1.00
O657   O     0.17693   0.54267   0.71526   0.00000  Uiso   1.00
O658   O     0.32308   0.95732   0.28474   0.00000  Uiso   1.00
O659   O     0.45733   0.67692   0.71526   0.00000  Uiso   1.00
O660   O     0.04268   0.82307   0.28474   0.00000  Uiso   1.00
O661   O     0.32308   0.95732   0.71526   0.00000  Uiso   1.00
O662   O     0.17693   0.54267   0.28474   0.00000  Uiso   1.00
O663   O     0.29268   0.92692   0.78474   0.00000  Uiso   1.00
O664   O     0.20733   0.57307   0.21526   0.00000  Uiso   1.00
O665   O     0.42693   0.70732   0.78474   0.00000  Uiso   1.00
O666   O     0.25000   0.50000   0.75000   0.00000  Uiso   1.00
O667   O     0.07308   0.79267   0.21526   0.00000  Uiso   1.00
O668   O     0.20733   0.57307   0.78474   0.00000  Uiso   1.00
O669   O     0.29268   0.92692   0.21526   0.00000  Uiso   1.00
O670   O     0.07308   0.79267   0.78474   0.00000  Uiso   1.00
O671   O     0.42693   0.70732   0.21526   0.00000  Uiso   1.00
O672   O     0.29268   0.57307   0.21526   0.00000  Uiso   1.00
O673   O     0.20733   0.92692   0.78474   0.00000  Uiso   1.00
O674   O     0.42693   0.79267   0.21526   0.00000  Uiso   1.00
O675   O     0.07308   0.70732   0.78474   0.00000  Uiso   1.00
O676   O     0.20733   0.92692   0.21526   0.00000  Uiso   1.00
O677   O     0.00000   0.78035   0.38219   0.00000  Uiso   1.00
O678   O     0.29268   0.57307   0.78474   0.00000  Uiso   1.00
O679   O     0.07308   0.70732   0.21526   0.00000  Uiso   1.00
O680   O     0.42693   0.79267   0.78474   0.00000  Uiso   1.00
O681   O     0.15292   0.80627   0.35998   0.00000  Uiso   1.00
O682   O     0.35260   0.68971   0.63013   0.00000  Uiso   1.00
O683   O     0.28188   0.83885   0.22749   0.00000  Uiso   1.00
O684   O     0.21354   0.67149   0.73200   0.00000  Uiso   1.00
O685   O     0.33257   0.70892   0.30820   0.00000  Uiso   1.00
O686   O     0.16944   0.78848   0.70917   0.00000  Uiso   1.00
O687   O     0.21884   0.66184   0.25673   0.00000  Uiso   1.00
O688   O     0.00000   0.71964   0.61781   0.00000  Uiso   1.00
O689   O     0.28122   0.83776   0.75784   0.00000  Uiso   1.00
O690   O     0.16024   0.70146   0.66138   0.00000  Uiso   1.00
O691   O     0.32755   0.78475   0.25208   0.00000  Uiso   1.00
O692   O     0.29186   0.66671   0.68780   0.00000  Uiso   1.00
O693   O     0.21040   0.82941   0.29350   0.00000  Uiso   1.00
O694   O     0.32793   0.78503   0.73249   0.00000  Uiso   1.00
O695   O     0.17149   0.71351   0.28294   0.00000  Uiso   1.00
O696   O     0.19586   0.84552   0.64462   0.00000  Uiso   1.00
O697   O     0.30877   0.64886   0.36687   0.00000  Uiso   1.00
O698   O     0.39740   0.56029   0.86987   0.00000  Uiso   1.00
O699   O     0.28036   0.50000   0.38219   0.00000  Uiso   1.00
O700   O     0.07979   0.96101   0.20928   0.00000  Uiso   1.00
O701   O     0.03647   0.57851   0.76801   0.00000  Uiso   1.00
O702   O     0.46896   0.91092   0.26829   0.00000  Uiso   1.00
O703   O     0.08056   0.96152   0.79083   0.00000  Uiso   1.00
O704   O     0.41737   0.54110   0.19199   0.00000  Uiso   1.00
O705   O     0.46878   0.91224   0.74216   0.00000  Uiso   1.00
O706   O     0.03600   0.57869   0.23366   0.00000  Uiso   1.00
O707   O     0.42237   0.96522   0.24960   0.00000  Uiso   1.00
O708   O     0.08976   0.54854   0.83862   0.00000  Uiso   1.00
O709   O     0.05597   0.90416   0.14127   0.00000  Uiso   1.00
O710   O     0.21965   0.50000   0.61781   0.00000  Uiso   1.00
O711   O     0.45814   0.58329   0.81221   0.00000  Uiso   1.00
O712   O     0.08900   0.54802   0.16292   0.00000  Uiso   1.00
O713   O     0.42207   0.96497   0.76751   0.00000  Uiso   1.00
O714   O     0.44103   0.60119   0.13306   0.00000  Uiso   1.00
O715   O     0.05414   0.90448   0.85538   0.00000  Uiso   1.00
O716   O     0.00000   0.71964   0.38219   0.00000  Uiso   1.00
Zn717  Zn    0.04333   0.75000   0.20067   0.00000  Uiso   1.00
Zn718  Zn    0.20667   0.50000   0.29933   0.00000  Uiso   1.00
Zn719  Zn    0.00000   0.70667   0.70067   0.00000  Uiso   1.00
Zn720  Zn    0.00000   0.79333   0.29933   0.00000  Uiso   1.00
Zn721  Zn    0.20667   0.50000   0.70067   0.00000  Uiso   1.00
Zn722  Zn    0.29333   0.50000   0.29933   0.00000  Uiso   1.00
Zn723  Zn    0.00000   0.79333   0.70067   0.00000  Uiso   1.00
Zn724  Zn    0.00000   0.70667   0.29933   0.00000  Uiso   1.00
Zn725  Zn    0.45667   0.75000   0.79933   0.00000  Uiso   1.00
Zn726  Zn    0.25000   0.95667   0.20067   0.00000  Uiso   1.00
Zn727  Zn    0.25000   0.54333   0.79933   0.00000  Uiso   1.00
Zn728  Zn    0.45667   0.75000   0.20067   0.00000  Uiso   1.00
Zn729  Zn    0.04333   0.75000   0.79933   0.00000  Uiso   1.00
Zn730  Zn    0.25000   0.54333   0.20067   0.00000  Uiso   1.00
Zn731  Zn    0.25000   0.95667   0.79933   0.00000  Uiso   1.00
Zn732  Zn    0.29333   0.50000   0.70067   0.00000  Uiso   1.00
C733   C     0.50000   0.75000   0.02666   0.00000  Uiso   1.00
C734   C     0.50000   0.75001   0.58991   0.00000  Uiso   1.00
C735   C     0.95096   0.89398   0.23186   0.00000  Uiso   1.00
C736   C     0.61014   0.94704   0.79839   0.00000  Uiso   1.00
C737   C     0.88735   0.55541   0.19120   0.00000  Uiso   1.00
C738   C     0.95034   0.89328   0.77527   0.00000  Uiso   1.00
C739   C     0.55014   0.60724   0.21766   0.00000  Uiso   1.00
C740   C     0.89456   0.95118   0.23049   0.00000  Uiso   1.00
C741   C     0.60865   0.55222   0.79420   0.00000  Uiso   1.00
C742   C     0.55652   0.88661   0.18751   0.00000  Uiso   1.00
C743   C     0.94387   0.61333   0.81150   0.00000  Uiso   1.00
C744   C     0.60830   0.55195   0.20679   0.00000  Uiso   1.00
C745   C     0.75000   0.50000   0.41009   0.00000  Uiso   1.00
C746   C     0.89321   0.95023   0.77992   0.00000  Uiso   1.00
C747   C     0.94181   0.61545   0.18218   0.00000  Uiso   1.00
C748   C     0.55540   0.88751   0.80865   0.00000  Uiso   1.00
C749   C     0.75000   0.50000   0.58991   0.00000  Uiso   1.00
C750   C     0.75000   0.99999   0.91009   0.00000  Uiso   1.00
C751   C     0.75000   0.50001   0.08991   0.00000  Uiso   1.00
C752   C     0.50000   0.75000   0.91009   0.00000  Uiso   1.00
C753   C     0.50000   0.75000   0.08991   0.00000  Uiso   1.00
C754   C     0.56999   0.68001   0.24997   0.00000  Uiso   1.00
C755   C     0.93004   0.82002   0.74999   0.00000  Uiso   1.00
C756   C     0.68003   0.93003   0.25001   0.00000  Uiso   1.00
C757   C     0.50000   0.75000   0.97334   0.00000  Uiso   1.00
C758   C     0.81998   0.56995   0.74996   0.00000  Uiso   1.00
C759   C     0.93001   0.81999   0.25005   0.00000  Uiso   1.00
C760   C     0.57010   0.68013   0.74981   0.00000  Uiso   1.00
C761   C     0.81993   0.56999   0.24998   0.00000  Uiso   1.00
C762   C     0.68007   0.93000   0.75000   0.00000  Uiso   1.00
C763   C     0.56994   0.82000   0.75000   0.00000  Uiso   1.00
C764   C     0.93003   0.68003   0.25008   0.00000  Uiso   1.00
C765   C     0.67991   0.56987   0.75019   0.00000  Uiso   1.00
C766   C     0.82003   0.93003   0.24988   0.00000  Uiso   1.00
C767   C     0.93002   0.68005   0.75004   0.00000  Uiso   1.00
C768   C     0.75000   0.50001   0.02666   0.00000  Uiso   1.00
C769   C     0.56995   0.81997   0.24998   0.00000  Uiso   1.00
C770   C     0.81996   0.92998   0.75000   0.00000  Uiso   1.00
C771   C     0.67988   0.56986   0.24970   0.00000  Uiso   1.00
C772   C     0.63168   0.84102   0.27824   0.00000  Uiso   1.00
C773   C     0.86955   0.65773   0.71741   0.00000  Uiso   1.00
C774   C     0.83789   0.86502   0.25559   0.00000  Uiso   1.00
C775   C     0.66111   0.63383   0.73230   0.00000  Uiso   1.00
C776   C     0.86882   0.65837   0.28055   0.00000  Uiso   1.00
C777   C     0.63242   0.84034   0.72465   0.00000  Uiso   1.00
C778   C     0.66122   0.63393   0.26583   0.00000  Uiso   1.00
C779   C     0.75000   0.99999   0.97334   0.00000  Uiso   1.00
C780   C     0.83817   0.86530   0.73949   0.00000  Uiso   1.00
C781   C     0.63387   0.66092   0.73123   0.00000  Uiso   1.00
C782   C     0.86487   0.83776   0.25692   0.00000  Uiso   1.00
C783   C     0.84205   0.63075   0.71815   0.00000  Uiso   1.00
C784   C     0.65960   0.86749   0.27540   0.00000  Uiso   1.00
C785   C     0.86524   0.83808   0.73831   0.00000  Uiso   1.00
C786   C     0.63420   0.66128   0.26630   0.00000  Uiso   1.00
C787   C     0.65945   0.86776   0.72370   0.00000  Uiso   1.00
C788   C     0.84181   0.63089   0.28125   0.00000  Uiso   1.00
C789   C     0.88045   0.59227   0.78259   0.00000  Uiso   1.00
C790   C     0.75000   0.50000   0.52666   0.00000  Uiso   1.00
C791   C     0.61749   0.90968   0.22489   0.00000  Uiso   1.00
C792   C     0.58889   0.61617   0.76770   0.00000  Uiso   1.00
C793   C     0.91216   0.88496   0.24369   0.00000  Uiso   1.00
C794   C     0.61758   0.90966   0.77535   0.00000  Uiso   1.00
C795   C     0.88110   0.59166   0.21952   0.00000  Uiso   1.00
C796   C     0.91183   0.88470   0.76051   0.00000  Uiso   1.00
C797   C     0.58872   0.61597   0.23302   0.00000  Uiso   1.00
C798   C     0.88520   0.91225   0.24304   0.00000  Uiso   1.00
C799   C     0.61613   0.58908   0.76877   0.00000  Uiso   1.00
C800   C     0.59098   0.88180   0.22195   0.00000  Uiso   1.00
C801   C     0.75000   0.50001   0.47334   0.00000  Uiso   1.00
C802   C     0.90795   0.61925   0.78185   0.00000  Uiso   1.00
C803   C     0.61597   0.58894   0.23146   0.00000  Uiso   1.00
C804   C     0.88476   0.91192   0.76169   0.00000  Uiso   1.00
C805   C     0.90808   0.61915   0.21877   0.00000  Uiso   1.00
C806   C     0.59055   0.88223   0.77630   0.00000  Uiso   1.00
C807   C     0.65189   0.90189   0.25006   0.00000  Uiso   1.00
C808   C     0.84819   0.59798   0.74960   0.00000  Uiso   1.00
C809   C     0.90181   0.84805   0.25039   0.00000  Uiso   1.00
C810   C     0.59822   0.65202   0.75033   0.00000  Uiso   1.00
C811   C     0.84794   0.59821   0.24959   0.00000  Uiso   1.00
C812   C     0.50000   0.75001   0.52666   0.00000  Uiso   1.00
C813   C     0.65201   0.90181   0.75039   0.00000  Uiso   1.00
C814   C     0.59815   0.65191   0.24980   0.00000  Uiso   1.00
C815   C     0.90183   0.84810   0.74953   0.00000  Uiso   1.00
C816   C     0.65178   0.59798   0.74967   0.00000  Uiso   1.00
C817   C     0.84824   0.90196   0.24945   0.00000  Uiso   1.00
C818   C     0.90181   0.65202   0.75040   0.00000  Uiso   1.00
C819   C     0.59805   0.84808   0.25000   0.00000  Uiso   1.00
C820   C     0.84817   0.90190   0.75047   0.00000  Uiso   1.00
C821   C     0.65171   0.59795   0.24971   0.00000  Uiso   1.00
C822   C     0.59799   0.84819   0.74961   0.00000  Uiso   1.00
C823   C     0.50000   0.74999   0.47334   0.00000  Uiso   1.00
C824   C     0.90198   0.65182   0.25048   0.00000  Uiso   1.00
C825   C     0.63631   0.80659   0.31285   0.00000  Uiso   1.00
C826   C     0.86631   0.69105   0.67966   0.00000  Uiso   1.00
C827   C     0.79892   0.85583   0.26510   0.00000  Uiso   1.00
C828   C     0.69970   0.64263   0.71689   0.00000  Uiso   1.00
C829   C     0.86259   0.69461   0.30890   0.00000  Uiso   1.00
C830   C     0.63986   0.80296   0.70161   0.00000  Uiso   1.00
C831   C     0.69910   0.64159   0.28553   0.00000  Uiso   1.00
C832   C     0.79966   0.85672   0.72473   0.00000  Uiso   1.00
C833   C     0.64135   0.69778   0.70580   0.00000  Uiso   1.00
C834   C     0.50000   0.74999   0.41009   0.00000  Uiso   1.00
C835   C     0.85558   0.79887   0.27015   0.00000  Uiso   1.00
C836   C     0.80613   0.63667   0.68850   0.00000  Uiso   1.00
C837   C     0.69702   0.85974   0.29806   0.00000  Uiso   1.00
C838   C     0.85679   0.79977   0.72008   0.00000  Uiso   1.00
C839   C     0.64185   0.69885   0.28911   0.00000  Uiso   1.00
C840   C     0.69460   0.86249   0.69135   0.00000  Uiso   1.00
C841   C     0.80802   0.63459   0.31775   0.00000  Uiso   1.00
C842   C     0.88369   0.55895   0.82034   0.00000  Uiso   1.00
C843   C     0.60975   0.94716   0.20256   0.00000  Uiso   1.00
C844   C     0.55030   0.60737   0.78312   0.00000  Uiso   1.00
H845   H     0.62356   0.78155   0.29784   0.00000  Uiso   1.00
H846   H     0.87453   0.78210   0.29517   0.00000  Uiso   1.00
H847   H     0.79141   0.61385   0.66918   0.00000  Uiso   1.00
H848   H     0.71350   0.88144   0.31702   0.00000  Uiso   1.00
H849   H     0.87707   0.78400   0.69623   0.00000  Uiso   1.00
H850   H     0.62038   0.71419   0.31082   0.00000  Uiso   1.00
H851   H     0.71939   0.87514   0.70760   0.00000  Uiso   1.00
H852   H     0.78249   0.62308   0.30218   0.00000  Uiso   1.00
H853   H     0.87233   0.53326   0.80526   0.00000  Uiso   1.00
H854   H     0.63121   0.96324   0.18198   0.00000  Uiso   1.00
H855   H     0.53353   0.62726   0.80605   0.00000  Uiso   1.00
H856   H     0.87767   0.71674   0.69474   0.00000  Uiso   1.00
H857   H     0.96399   0.88370   0.19188   0.00000  Uiso   1.00
H858   H     0.63159   0.96250   0.82017   0.00000  Uiso   1.00
H859   H     0.86479   0.54049   0.17153   0.00000  Uiso   1.00
H860   H     0.96285   0.88090   0.81410   0.00000  Uiso   1.00
H861   H     0.53372   0.62696   0.19369   0.00000  Uiso   1.00
H862   H     0.87583   0.96804   0.20520   0.00000  Uiso   1.00
H863   H     0.62104   0.52819   0.77493   0.00000  Uiso   1.00
H864   H     0.53164   0.87318   0.20174   0.00000  Uiso   1.00
H865   H     0.95859   0.63614   0.83081   0.00000  Uiso   1.00
H866   H     0.62088   0.52802   0.22612   0.00000  Uiso   1.00
H867   H     0.78486   0.86608   0.30417   0.00000  Uiso   1.00
H868   H     0.87293   0.96600   0.80377   0.00000  Uiso   1.00
H869   H     0.96732   0.62696   0.19773   0.00000  Uiso   1.00
H870   H     0.53061   0.87486   0.79240   0.00000  Uiso   1.00
H871   H     0.71647   0.62274   0.69395   0.00000  Uiso   1.00
H872   H     0.88517   0.70952   0.32854   0.00000  Uiso   1.00
H873   H     0.61841   0.78750   0.67983   0.00000  Uiso   1.00
H874   H     0.71014   0.62733   0.32385   0.00000  Uiso   1.00
H875   H     0.78715   0.86910   0.68590   0.00000  Uiso   1.00
H876   H     0.62896   0.72181   0.72507   0.00000  Uiso   1.00
O877   O     0.50000   0.75000   0.25000   0.00000  Uiso   1.00
O878   O     0.50000   0.78035   0.61781   0.00000  Uiso   1.00
O879   O     0.71965   0.50000   0.38219   0.00000  Uiso   1.00
O880   O     0.78036   0.50000   0.61781   0.00000  Uiso   1.00
O881   O     0.75000   0.53035   0.88219   0.00000  Uiso   1.00
O882   O     0.75000   0.96964   0.11781   0.00000  Uiso   1.00
O883   O     0.53036   0.75000   0.88219   0.00000  Uiso   1.00
O884   O     0.96965   0.75000   0.11781   0.00000  Uiso   1.00
O885   O     0.75000   0.96964   0.88219   0.00000  Uiso   1.00
O886   O     0.75000   0.53035   0.11781   0.00000  Uiso   1.00
O887   O     0.96965   0.75000   0.88219   0.00000  Uiso   1.00
O888   O     0.50000   0.75000   0.75000   0.00000  Uiso   1.00
O889   O     0.53036   0.75000   0.11781   0.00000  Uiso   1.00
O890   O     0.54268   0.67692   0.28474   0.00000  Uiso   1.00
O891   O     0.95733   0.82307   0.71526   0.00000  Uiso   1.00
O892   O     0.67693   0.95732   0.28474   0.00000  Uiso   1.00
O893   O     0.82308   0.54267   0.71526   0.00000  Uiso   1.00
O894   O     0.95733   0.82307   0.28474   0.00000  Uiso   1.00
O895   O     0.54268   0.67692   0.71526   0.00000  Uiso   1.00
O896   O     0.82308   0.54267   0.28474   0.00000  Uiso   1.00
O897   O     0.67693   0.95732   0.71526   0.00000  Uiso   1.00
O898   O     0.54268   0.82307   0.71526   0.00000  Uiso   1.00
O899   O     0.75000   0.50000   0.25000   0.00000  Uiso   1.00
O900   O     0.95733   0.67692   0.28474   0.00000  Uiso   1.00
O901   O     0.67693   0.54267   0.71526   0.00000  Uiso   1.00
O902   O     0.82308   0.95732   0.28474   0.00000  Uiso   1.00
O903   O     0.95733   0.67692   0.71526   0.00000  Uiso   1.00
O904   O     0.54268   0.82307   0.28474   0.00000  Uiso   1.00
O905   O     0.82308   0.95732   0.71526   0.00000  Uiso   1.00
O906   O     0.67693   0.54267   0.28474   0.00000  Uiso   1.00
O907   O     0.79268   0.92692   0.78474   0.00000  Uiso   1.00
O908   O     0.70733   0.57307   0.21526   0.00000  Uiso   1.00
O909   O     0.92693   0.70732   0.78474   0.00000  Uiso   1.00
O910   O     0.75000   0.50000   0.75000   0.00000  Uiso   1.00
O911   O     0.57308   0.79267   0.21526   0.00000  Uiso   1.00
O912   O     0.70733   0.57307   0.78474   0.00000  Uiso   1.00
O913   O     0.79268   0.92692   0.21526   0.00000  Uiso   1.00
O914   O     0.57308   0.79267   0.78474   0.00000  Uiso   1.00
O915   O     0.92693   0.70732   0.21526   0.00000  Uiso   1.00
O916   O     0.79268   0.57307   0.21526   0.00000  Uiso   1.00
O917   O     0.70733   0.92692   0.78474   0.00000  Uiso   1.00
O918   O     0.92693   0.79267   0.21526   0.00000  Uiso   1.00
O919   O     0.57308   0.70732   0.78474   0.00000  Uiso   1.00
O920   O     0.70733   0.92692   0.21526   0.00000  Uiso   1.00
O921   O     0.50000   0.78035   0.38219   0.00000  Uiso   1.00
O922   O     0.79268   0.57307   0.78474   0.00000  Uiso   1.00
O923   O     0.57308   0.70732   0.21526   0.00000  Uiso   1.00
O924   O     0.92693   0.79267   0.78474   0.00000  Uiso   1.00
O925   O     0.65292   0.80627   0.35998   0.00000  Uiso   1.00
O926   O     0.85260   0.68971   0.63013   0.00000  Uiso   1.00
O927   O     0.78188   0.83885   0.22749   0.00000  Uiso   1.00
O928   O     0.71354   0.67149   0.73200   0.00000  Uiso   1.00
O929   O     0.83257   0.70892   0.30820   0.00000  Uiso   1.00
O930   O     0.66944   0.78848   0.70917   0.00000  Uiso   1.00
O931   O     0.71884   0.66184   0.25673   0.00000  Uiso   1.00
O932   O     0.50000   0.71964   0.61781   0.00000  Uiso   1.00
O933   O     0.78122   0.83776   0.75784   0.00000  Uiso   1.00
O934   O     0.66024   0.70146   0.66138   0.00000  Uiso   1.00
O935   O     0.82755   0.78475   0.25208   0.00000  Uiso   1.00
O936   O     0.79186   0.66671   0.68780   0.00000  Uiso   1.00
O937   O     0.71040   0.82941   0.29350   0.00000  Uiso   1.00
O938   O     0.82793   0.78503   0.73249   0.00000  Uiso   1.00
O939   O     0.67149   0.71351   0.28294   0.00000  Uiso   1.00
O940   O     0.69586   0.84552   0.64462   0.00000  Uiso   1.00
O941   O     0.80877   0.64886   0.36687   0.00000  Uiso   1.00
O942   O     0.89740   0.56029   0.86987   0.00000  Uiso   1.00
O943   O     0.78036   0.50000   0.38219   0.00000  Uiso   1.00
O944   O     0.57979   0.96101   0.20928   0.00000  Uiso   1.00
O945   O     0.53647   0.57851   0.76801   0.00000  Uiso   1.00
O946   O     0.96896   0.91092   0.26829   0.00000  Uiso   1.00
O947   O     0.58056   0.96152   0.79083   0.00000  Uiso   1.00
O948   O     0.91737   0.54110   0.19199   0.00000  Uiso   1.00
O949   O     0.96878   0.91224   0.74216   0.00000  Uiso   1.00
O950   O     0.53600   0.57869   0.23366   0.00000  Uiso   1.00
O951   O     0.92237   0.96522   0.24960   0.00000  Uiso   1.00
O952   O     0.58976   0.54854   0.83862   0.00000  Uiso   1.00
O953   O     0.55597   0.90416   0.14127   0.00000  Uiso   1.00
O954   O     0.71965   0.50000   0.61781   0.00000  Uiso   1.00
O955   O     0.95814   0.58329   0.81221   0.00000  Uiso   1.00
O956   O     0.58900   0.54802   0.16292   0.00000  Uiso   1.00
O957   O     0.92207   0.96497   0.76751   0.00000  Uiso   1.00
O958   O     0.94103   0.60119   0.13306   0.00000  Uiso   1.00
O959   O     0.55414   0.90448   0.85538   0.00000  Uiso   1.00
O960   O     0.50000   0.71964   0.38219   0.00000  Uiso   1.00
Zn961  Zn    0.54333   0.75000   0.20067   0.00000  Uiso   1.00
Zn962  Zn    0.70667   0.50000   0.29933   0.00000  Uiso   1.00
Zn963  Zn    0.50000   0.70667   0.70067   0.00000  Uiso   1.00
Zn964  Zn    0.50000   0.79333   0.29933   0.00000  Uiso   1.00
Zn965  Zn    0.70667   0.50000   0.70067   0.00000  Uiso   1.00
Zn966  Zn    0.79333   0.50000   0.29933   0.00000  Uiso   1.00
Zn967  Zn    0.50000   0.79333   0.70067   0.00000  Uiso   1.00
Zn968  Zn    0.50000   0.70667   0.29933   0.00000  Uiso   1.00
Zn969  Zn    0.95667   0.75000   0.79933   0.00000  Uiso   1.00
Zn970  Zn    0.75000   0.95667   0.20067   0.00000  Uiso   1.00
Zn971  Zn    0.75000   0.54333   0.79933   0.00000  Uiso   1.00
Zn972  Zn    0.95667   0.75000   0.20067   0.00000  Uiso   1.00
Zn973  Zn    0.54333   0.75000   0.79933   0.00000  Uiso   1.00
Zn974  Zn    0.75000   0.54333   0.20067   0.00000  Uiso   1.00
Zn975  Zn    0.75000   0.95667   0.79933   0.00000  Uiso   1.00
Zn976  Zn    0.79333   0.50000   0.70067   0.00000  Uiso   1.00
loop_
_geom_bond_atom_site_label_1
_geom_bond_atom_site_label_2
_geom_bond_distance
_geom_bond_site_symmetry_2
_ccdc_geom_bond_type
C1     C21     1.420   .     S
C1     C25     1.197   1_554 S
C2     C80     1.420   .     S
C2     O146    1.277   .     A
C2     O200    1.277   .     S
C3     O214    1.221   .     D
C3     H125    1.085   .     S
C3     C61     1.484   .     S
C4     C62     1.491   .     S
C4     O215    1.221   .     D
C4     H126    1.085   .     S
C5     C63     1.492   .     S
C5     H127    1.085   .     S
C5     O216    1.221   .     D
C6     O217    1.221   .     D
C6     C64     1.484   .     S
C6     H128    1.085   .     S
C7     O218    1.221   .     D
C7     C65     1.491   .     S
C7     H129    1.085   .     S
C8     C66     1.494   .     S
C8     H130    1.085   .     S
C8     O219    1.220   .     D
C9     H131    1.083   .     S
C9     C67     1.492   .     S
C9     O220    1.221   .     D
C10    O221    1.221   .     D
C10    C68     1.493   .     S
C10    H132    1.084   .     S
C11    C70     1.492   .     S
C11    H133    1.085   .     S
C11    O223    1.221   .     D
C12    O224    1.221   .     D
C12    H134    1.083   .     S
C12    C71     1.492   .     S
C13    C69     1.420   .     S
C13    O147    1.277   .     S
C13    O211    1.277   .     S
C14    C72     1.495   .     S
C14    O225    1.220   .     D
C14    H136    1.085   .     S
C15    O226    1.221   .     D
C15    C73     1.491   .     S
C15    H137    1.083   .     S
C16    O227    1.221   .     D
C16    C74     1.492   .     S
C16    H138    1.083   .     S
C17    O222    1.277   .     A
C17    C58     1.420   .     S
C17    O148    1.277   .     A
C18    C47     1.420   .     S
C18    O153    1.277   .     A
C18    O637    1.277   .     S
C19    C36     1.420   .     S
C19    O154    1.277   .     A
C19    O638    1.277   1_545 S
C20    O399    1.277   1_455 A
C20    C25     1.420   .     S
C20    O151    1.277   .     S
C21    O157    1.277   .     A
C21    O396    1.277   1_455 S
C22    C82     1.461   .     S
C22    O158    1.274   .     A
C22    O191    1.273   .     A
C23    O159    1.273   .     A
C23    C83     1.461   .     S
C23    O192    1.275   .     A
C24    O160    1.274   .     A
C24    C75     1.457   .     S
C24    O188    1.274   .     A
C25    C1      1.197   1_556 S
C26    O190    1.275   .     A
C26    C76     1.457   .     S
C26    O161    1.273   .     A
C27    C77     1.461   .     S
C27    O162    1.274   .     A
C27    O186    1.275   .     A
C28    C78     1.460   .     S
C28    O187    1.273   .     A
C28    O163    1.275   .     A
C29    O184    1.273   .     A
C29    C79     1.457   .     S
C29    O164    1.275   .     A
C30    O185    1.273   .     A
C30    O165    1.275   .     A
C30    C81     1.457   .     S
C31    O182    1.275   .     A
C31    C90     1.457   .     S
C31    O166    1.273   .     A
C32    O168    1.273   .     A
C32    C92     1.457   .     S
C32    O183    1.275   .     A
C33    O169    1.273   .     A
C33    C84     1.460   .     S
C33    O180    1.275   .     A
C34    O181    1.274   .     A
C34    O170    1.275   .     A
C34    C85     1.462   .     S
C35    O177    1.273   .     A
C35    O171    1.275   .     A
C35    C86     1.457   .     S
C36    C535    1.197   1_544 S
C37    C87     1.456   .     S
C37    O179    1.274   .     A
C37    O172    1.274   .     A
C38    O175    1.273   .     A
C38    O173    1.275   .     A
C38    C88     1.461   .     S
C39    C89     1.461   .     S
C39    O174    1.274   .     A
C39    O176    1.274   .     A
C40    C93     1.492   .     S
C40    C52     1.411   .     A
C40    C87     1.412   .     A
C41    C86     1.412   .     A
C41    C94     1.491   .     S
C41    C51     1.411   .     A
C42    C95     1.483   .     S
C42    C85     1.413   .     A
C42    C50     1.408   .     A
C43    C84     1.413   .     A
C43    C49     1.411   .     A
C43    C96     1.491   .     S
C44    C97     1.492   .     S
C44    C56     1.411   .     A
C44    C92     1.412   .     A
C45    C90     1.412   .     A
C45    C55     1.411   .     A
C45    C98     1.491   .     S
C46    C99     1.484   .     S
C46    C89     1.412   .     A
C46    C54     1.412   .     A
C47    C524    1.197   1_556 S
C48    C88     1.412   .     A
C48    C53     1.410   .     A
C48    C100    1.484   .     S
C49    C101    1.492   .     S
C49    C78     1.413   .     A
C50    C77     1.413   .     A
C50    C103    1.495   .     S
C51    C76     1.412   .     A
C51    C104    1.492   .     S
C52    C75     1.412   .     A
C52    C105    1.492   .     S
C53    C106    1.495   .     S
C53    C83     1.413   .     A
C54    C107    1.496   .     S
C54    C82     1.415   .     A
C55    C81     1.412   .     A
C55    C108    1.492   .     S
C56    C79     1.412   .     A
C56    C109    1.492   .     S
C57    C76     1.412   .     A
C57    C70     1.411   .     A
C57    C110    1.491   .     S
C58    C69     1.197   .     T
C59    C68     1.411   .     A
C59    C111    1.491   .     S
C59    C75     1.412   .     A
C60    C78     1.413   .     A
C60    C67     1.411   .     A
C60    C112    1.491   .     S
C61    C77     1.413   .     A
C61    C66     1.409   .     A
C62    C81     1.412   .     A
C62    C74     1.411   .     A
C63    C79     1.412   .     A
C63    C73     1.411   .     A
C64    C83     1.412   .     A
C64    C72     1.410   .     A
C65    C82     1.413   .     A
C65    C71     1.410   .     A
C66    C85     1.414   .     A
C67    C84     1.413   .     A
C68    C87     1.412   .     A
C70    C86     1.412   .     A
C71    C89     1.412   .     A
C72    C88     1.413   .     A
C73    C92     1.412   .     A
C74    C90     1.412   .     A
C80    C91     1.197   .     T
C91    C102    1.420   .     S
C93    H113    1.083   .     S
C93    O193    1.221   .     D
C94    O194    1.221   .     D
C94    H124    1.084   .     S
C95    H135    1.085   .     S
C95    O195    1.221   .     D
C96    H139    1.085   .     S
C96    O196    1.221   .     D
C97    H140    1.085   .     S
C97    O197    1.221   .     D
C98    O198    1.221   .     D
C98    H141    1.085   .     S
C99    H142    1.085   .     S
C99    O199    1.221   .     D
C100   O201    1.221   .     D
C100   H143    1.085   .     S
C101   O202    1.221   .     D
C101   H144    1.083   .     S
C102   O189    1.277   .     A
C102   O228    1.277   .     A
C103   H114    1.085   .     S
C103   O203    1.220   .     D
C104   H115    1.085   .     S
C104   O204    1.221   .     D
C105   H116    1.085   .     S
C105   O205    1.221   .     D
C106   H117    1.085   .     S
C106   O206    1.220   .     D
C107   O207    1.220   .     D
C107   H118    1.085   .     S
C108   O208    1.221   .     D
C108   H119    1.083   .     S
C109   H120    1.084   .     S
C109   O209    1.221   .     D
C110   H121    1.084   .     S
C110   O210    1.221   .     D
C111   O212    1.221   .     D
C111   H122    1.085   .     S
C112   O213    1.221   .     D
C112   H123    1.085   .     S
O145   Zn229   1.937   .     S
O145   Zn232   1.937   .     S
O145   Zn236   1.936   .     S
O145   Zn484   1.937   1_455 S
O146   Zn235   1.920   .     S
O147   Zn230   1.920   .     S
O148   Zn244   1.920   .     S
O149   Zn239   1.919   .     S
O149   C506    1.277   1_545 S
O150   Zn238   1.919   .     S
O150   C507    1.277   .     S
O151   Zn241   1.920   .     S
O152   Zn240   1.920   .     S
O152   C265    1.277   .     S
O153   Zn243   1.920   .     S
O154   Zn242   1.920   .     S
O155   C264    1.277   .     A
O155   Zn237   1.920   .     S
O156   Zn235   1.936   .     S
O156   Zn231   1.937   .     S
O156   Zn241   1.937   .     S
O156   Zn481   1.937   1_455 S
O157   Zn229   1.920   .     S
O158   Zn236   1.938   .     S
O159   Zn479   1.938   .     S
O160   Zn718   1.934   .     S
O161   Zn244   1.934   .     S
O162   Zn476   1.938   .     S
O163   Zn231   1.938   .     S
O164   Zn234   1.933   .     S
O165   Zn721   1.933   .     S
O166   Zn235   1.934   .     S
O167   Zn242   1.936   .     S
O167   Zn230   1.937   .     S
O167   Zn234   1.937   .     S
O167   Zn726   1.937   1_545 S
O168   Zn480   1.934   .     S
O169   Zn233   1.938   .     S
O170   Zn722   1.938   .     S
O171   Zn475   1.933   .     S
O172   Zn232   1.933   .     S
O173   Zn732   1.938   .     S
O174   Zn230   1.938   .     S
O175   Zn243   1.938   .     S
O176   Zn242   1.938   .     S
O177   Zn237   1.934   .     S
O178   Zn239   1.937   .     S
O178   Zn244   1.937   .     S
O178   Zn233   1.937   .     S
O178   Zn731   1.936   1_545 S
O179   Zn229   1.934   .     S
O180   Zn239   1.938   .     S
O181   Zn238   1.938   .     S
O182   Zn241   1.933   .     S
O183   Zn240   1.933   .     S
O184   Zn242   1.934   .     S
O185   Zn243   1.934   .     S
O186   Zn240   1.938   .     S
O187   Zn241   1.938   .     S
O188   Zn238   1.933   .     S
O189   Zn232   1.919   .     S
O190   Zn239   1.933   .     S
O191   Zn229   1.938   .     S
O192   Zn237   1.938   .     S
O200   Zn231   1.919   .     S
O211   Zn234   1.920   .     S
O222   Zn233   1.920   .     S
O228   Zn236   1.920   .     S
Zn230  O648    1.934   1_545 S
Zn231  O415    1.933   1_455 S
Zn232  O406    1.938   1_455 S
Zn233  O653    1.933   1_545 S
Zn234  O658    1.938   1_545 S
Zn235  O403    1.938   1_455 S
Zn236  O412    1.934   1_455 S
Zn237  O400    1.937   .     S
Zn238  O655    1.937   .     S
Zn240  O389    1.937   .     S
Zn243  O666    1.936   .     S
Zn244  O661    1.938   1_545 S
C245   C265    1.420   .     S
C245   C269    1.197   1_554 S
C246   C324    1.420   .     S
C246   O390    1.277   .     A
C246   O444    1.277   .     S
C247   O458    1.221   .     D
C247   H369    1.085   .     S
C247   C305    1.484   .     S
C248   C306    1.491   .     S
C248   O459    1.221   .     D
C248   H370    1.085   .     S
C249   C307    1.492   .     S
C249   H371    1.085   .     S
C249   O460    1.221   .     D
C250   O461    1.221   .     D
C250   C308    1.484   .     S
C250   H372    1.085   .     S
C251   O462    1.221   .     D
C251   C309    1.491   .     S
C251   H373    1.085   .     S
C252   C310    1.494   .     S
C252   H374    1.085   .     S
C252   O463    1.220   .     D
C253   H375    1.083   .     S
C253   C311    1.492   .     S
C253   O464    1.221   .     D
C254   O465    1.221   .     D
C254   C312    1.493   .     S
C254   H376    1.084   .     S
C255   C314    1.492   .     S
C255   H377    1.085   .     S
C255   O467    1.221   .     D
C256   O468    1.221   .     D
C256   H378    1.083   .     S
C256   C315    1.492   .     S
C257   C313    1.420   .     S
C257   O391    1.277   .     S
C257   O455    1.277   .     S
C258   C316    1.495   .     S
C258   O469    1.220   .     D
C258   H380    1.085   .     S
C259   O470    1.221   .     D
C259   C317    1.491   .     S
C259   H381    1.083   .     S
C260   O471    1.221   .     D
C260   C318    1.492   .     S
C260   H382    1.083   .     S
C261   O466    1.277   .     A
C261   C302    1.420   .     S
C261   O392    1.277   .     A
C262   C291    1.420   .     S
C262   O397    1.277   .     A
C262   O881    1.277   .     S
C263   C280    1.420   .     S
C263   O398    1.277   .     A
C263   O882    1.277   1_545 S
C264   C269    1.420   .     S
C264   O395    1.277   .     S
C265   O401    1.277   .     A
C266   C326    1.461   .     S
C266   O402    1.274   .     A
C266   O435    1.273   .     A
C267   O403    1.273   .     A
C267   C327    1.461   .     S
C267   O436    1.275   .     A
C268   O404    1.274   .     A
C268   C319    1.457   .     S
C268   O432    1.274   .     A
C269   C245    1.197   1_556 S
C270   O434    1.275   .     A
C270   C320    1.457   .     S
C270   O405    1.273   .     A
C271   C321    1.461   .     S
C271   O406    1.274   .     A
C271   O430    1.275   .     A
C272   C322    1.460   .     S
C272   O431    1.273   .     A
C272   O407    1.275   .     A
C273   O428    1.273   .     A
C273   C323    1.457   .     S
C273   O408    1.275   .     A
C274   O429    1.273   .     A
C274   O409    1.275   .     A
C274   C325    1.457   .     S
C275   O426    1.275   .     A
C275   C334    1.457   .     S
C275   O410    1.273   .     A
C276   O412    1.273   .     A
C276   C336    1.457   .     S
C276   O427    1.275   .     A
C277   O413    1.273   .     A
C277   C328    1.460   .     S
C277   O424    1.275   .     A
C278   O425    1.274   .     A
C278   O414    1.275   .     A
C278   C329    1.462   .     S
C279   O421    1.273   .     A
C279   O415    1.275   .     A
C279   C330    1.457   .     S
C280   C779    1.197   1_544 S
C281   C331    1.456   .     S
C281   O423    1.274   .     A
C281   O416    1.274   .     A
C282   O419    1.273   .     A
C282   O417    1.275   .     A
C282   C332    1.461   .     S
C283   C333    1.461   .     S
C283   O418    1.274   .     A
C283   O420    1.274   .     A
C284   C337    1.492   .     S
C284   C296    1.411   .     A
C284   C331    1.412   .     A
C285   C330    1.412   .     A
C285   C338    1.491   .     S
C285   C295    1.411   .     A
C286   C339    1.483   .     S
C286   C329    1.413   .     A
C286   C294    1.408   .     A
C287   C328    1.413   .     A
C287   C293    1.411   .     A
C287   C340    1.491   .     S
C288   C341    1.492   .     S
C288   C300    1.411   .     A
C288   C336    1.412   .     A
C289   C334    1.412   .     A
C289   C299    1.411   .     A
C289   C342    1.491   .     S
C290   C343    1.484   .     S
C290   C333    1.412   .     A
C290   C298    1.412   .     A
C291   C768    1.197   1_556 S
C292   C332    1.412   .     A
C292   C297    1.410   .     A
C292   C344    1.484   .     S
C293   C345    1.492   .     S
C293   C322    1.413   .     A
C294   C321    1.413   .     A
C294   C347    1.495   .     S
C295   C320    1.412   .     A
C295   C348    1.492   .     S
C296   C319    1.412   .     A
C296   C349    1.492   .     S
C297   C350    1.495   .     S
C297   C327    1.413   .     A
C298   C351    1.496   .     S
C298   C326    1.415   .     A
C299   C325    1.412   .     A
C299   C352    1.492   .     S
C300   C323    1.412   .     A
C300   C353    1.492   .     S
C301   C320    1.412   .     A
C301   C314    1.411   .     A
C301   C354    1.491   .     S
C302   C313    1.197   .     T
C303   C312    1.411   .     A
C303   C355    1.491   .     S
C303   C319    1.412   .     A
C304   C322    1.413   .     A
C304   C311    1.411   .     A
C304   C356    1.491   .     S
C305   C321    1.413   .     A
C305   C310    1.409   .     A
C306   C325    1.412   .     A
C306   C318    1.411   .     A
C307   C323    1.412   .     A
C307   C317    1.411   .     A
C308   C327    1.412   .     A
C308   C316    1.410   .     A
C309   C326    1.413   .     A
C309   C315    1.410   .     A
C310   C329    1.414   .     A
C311   C328    1.413   .     A
C312   C331    1.412   .     A
C314   C330    1.412   .     A
C315   C333    1.412   .     A
C316   C332    1.413   .     A
C317   C336    1.412   .     A
C318   C334    1.412   .     A
C324   C335    1.197   .     T
C335   C346    1.420   .     S
C337   H357    1.083   .     S
C337   O437    1.221   .     D
C338   O438    1.221   .     D
C338   H368    1.084   .     S
C339   H379    1.085   .     S
C339   O439    1.221   .     D
C340   H383    1.085   .     S
C340   O440    1.221   .     D
C341   H384    1.085   .     S
C341   O441    1.221   .     D
C342   O442    1.221   .     D
C342   H385    1.085   .     S
C343   H386    1.085   .     S
C343   O443    1.221   .     D
C344   O445    1.221   .     D
C344   H387    1.085   .     S
C345   O446    1.221   .     D
C345   H388    1.083   .     S
C346   O433    1.277   .     A
C346   O472    1.277   .     A
C347   H358    1.085   .     S
C347   O447    1.220   .     D
C348   H359    1.085   .     S
C348   O448    1.221   .     D
C349   H360    1.085   .     S
C349   O449    1.221   .     D
C350   H361    1.085   .     S
C350   O450    1.220   .     D
C351   O451    1.220   .     D
C351   H362    1.085   .     S
C352   O452    1.221   .     D
C352   H363    1.083   .     S
C353   H364    1.084   .     S
C353   O453    1.221   .     D
C354   H365    1.084   .     S
C354   O454    1.221   .     D
C355   O456    1.221   .     D
C355   H366    1.085   .     S
C356   O457    1.221   .     D
C356   H367    1.085   .     S
O389   Zn473   1.937   .     S
O389   Zn476   1.937   .     S
O389   Zn480   1.936   .     S
O390   Zn479   1.920   .     S
O391   Zn474   1.920   .     S
O392   Zn488   1.920   .     S
O393   Zn483   1.919   .     S
O393   C750    1.277   1_545 S
O394   Zn482   1.919   .     S
O394   C751    1.277   .     S
O395   Zn485   1.920   .     S
O396   Zn484   1.920   .     S
O396   C21     1.277   1_655 S
O397   Zn487   1.920   .     S
O398   Zn486   1.920   .     S
O399   C20     1.277   1_655 A
O399   Zn481   1.920   .     S
O400   Zn479   1.936   .     S
O400   Zn475   1.937   .     S
O400   Zn485   1.937   .     S
O401   Zn473   1.920   .     S
O402   Zn480   1.938   .     S
O403   Zn235   1.938   1_655 S
O404   Zn962   1.934   .     S
O405   Zn488   1.934   .     S
O406   Zn232   1.938   1_655 S
O407   Zn475   1.938   .     S
O408   Zn478   1.933   .     S
O409   Zn965   1.933   .     S
O410   Zn479   1.934   .     S
O411   Zn486   1.936   .     S
O411   Zn474   1.937   .     S
O411   Zn478   1.937   .     S
O411   Zn970   1.937   1_545 S
O412   Zn236   1.934   1_655 S
O413   Zn477   1.938   .     S
O414   Zn966   1.938   .     S
O415   Zn231   1.933   1_655 S
O416   Zn476   1.933   .     S
O417   Zn976   1.938   .     S
O418   Zn474   1.938   .     S
O419   Zn487   1.938   .     S
O420   Zn486   1.938   .     S
O421   Zn481   1.934   .     S
O422   Zn483   1.937   .     S
O422   Zn488   1.937   .     S
O422   Zn477   1.937   .     S
O422   Zn975   1.936   1_545 S
O423   Zn473   1.934   .     S
O424   Zn483   1.938   .     S
O425   Zn482   1.938   .     S
O426   Zn485   1.933   .     S
O427   Zn484   1.933   .     S
O428   Zn486   1.934   .     S
O429   Zn487   1.934   .     S
O430   Zn484   1.938   .     S
O431   Zn485   1.938   .     S
O432   Zn482   1.933   .     S
O433   Zn476   1.919   .     S
O434   Zn483   1.933   .     S
O435   Zn473   1.938   .     S
O436   Zn481   1.938   .     S
O444   Zn475   1.919   .     S
O455   Zn478   1.920   .     S
O466   Zn477   1.920   .     S
O472   Zn480   1.920   .     S
Zn474  O892    1.934   1_545 S
Zn477  O897    1.933   1_545 S
Zn478  O902    1.938   1_545 S
Zn481  O156    1.937   1_655 S
Zn482  O899    1.937   .     S
Zn484  O145    1.937   1_655 S
Zn487  O910    1.936   .     S
Zn488  O905    1.938   1_545 S
C489   C509    1.420   .     S
C489   C513    1.197   1_554 S
C490   C568    1.420   .     S
C490   O634    1.277   .     A
C490   O688    1.277   .     S
C491   O702    1.221   .     D
C491   H613    1.085   .     S
C491   C549    1.484   .     S
C492   C550    1.491   .     S
C492   O703    1.221   .     D
C492   H614    1.085   .     S
C493   C551    1.492   .     S
C493   H615    1.085   .     S
C493   O704    1.221   .     D
C494   O705    1.221   .     D
C494   C552    1.484   .     S
C494   H616    1.085   .     S
C495   O706    1.221   .     D
C495   C553    1.491   .     S
C495   H617    1.085   .     S
C496   C554    1.494   .     S
C496   H618    1.085   .     S
C496   O707    1.220   .     D
C497   H619    1.083   .     S
C497   C555    1.492   .     S
C497   O708    1.221   .     D
C498   O709    1.221   .     D
C498   C556    1.493   .     S
C498   H620    1.084   .     S
C499   C558    1.492   .     S
C499   H621    1.085   .     S
C499   O711    1.221   .     D
C500   O712    1.221   .     D
C500   H622    1.083   .     S
C500   C559    1.492   .     S
C501   C557    1.420   .     S
C501   O635    1.277   .     S
C501   O699    1.277   .     S
C502   C560    1.495   .     S
C502   O713    1.220   .     D
C502   H624    1.085   .     S
C503   O714    1.221   .     D
C503   C561    1.491   .     S
C503   H625    1.083   .     S
C504   O715    1.221   .     D
C504   C562    1.492   .     S
C504   H626    1.083   .     S
C505   O710    1.277   .     A
C505   C546    1.420   .     S
C505   O636    1.277   .     A
C506   C535    1.420   .     S
C506   O641    1.277   .     A
C506   O149    1.277   1_565 S
C507   C524    1.420   .     S
C507   O642    1.277   .     A
C508   O887    1.277   1_455 A
C508   C513    1.420   .     S
C508   O639    1.277   .     S
C509   O645    1.277   .     A
C509   O884    1.277   1_455 S
C510   C570    1.461   .     S
C510   O646    1.274   .     A
C510   O679    1.273   .     A
C511   O647    1.273   .     A
C511   C571    1.461   .     S
C511   O680    1.275   .     A
C512   O648    1.274   .     A
C512   C563    1.457   .     S
C512   O676    1.274   .     A
C513   C489    1.197   1_556 S
C514   O678    1.275   .     A
C514   C564    1.457   .     S
C514   O649    1.273   .     A
C515   C565    1.461   .     S
C515   O650    1.274   .     A
C515   O674    1.275   .     A
C516   C566    1.460   .     S
C516   O675    1.273   .     A
C516   O651    1.275   .     A
C517   O672    1.273   .     A
C517   C567    1.457   .     S
C517   O652    1.275   .     A
C518   O673    1.273   .     A
C518   O653    1.275   .     A
C518   C569    1.457   .     S
C519   O670    1.275   .     A
C519   C578    1.457   .     S
C519   O654    1.273   .     A
C520   O656    1.273   .     A
C520   C580    1.457   .     S
C520   O671    1.275   .     A
C521   O657    1.273   .     A
C521   C572    1.460   .     S
C521   O668    1.275   .     A
C522   O669    1.274   .     A
C522   O658    1.275   .     A
C522   C573    1.462   .     S
C523   O665    1.273   .     A
C523   O659    1.275   .     A
C523   C574    1.457   .     S
C524   C47     1.197   1_554 S
C525   C575    1.456   .     S
C525   O667    1.274   .     A
C525   O660    1.274   .     A
C526   O663    1.273   .     A
C526   O661    1.275   .     A
C526   C576    1.461   .     S
C527   C577    1.461   .     S
C527   O662    1.274   .     A
C527   O664    1.274   .     A
C528   C581    1.492   .     S
C528   C540    1.411   .     A
C528   C575    1.412   .     A
C529   C574    1.412   .     A
C529   C582    1.491   .     S
C529   C539    1.411   .     A
C530   C583    1.483   .     S
C530   C573    1.413   .     A
C530   C538    1.408   .     A
C531   C572    1.413   .     A
C531   C537    1.411   .     A
C531   C584    1.491   .     S
C532   C585    1.492   .     S
C532   C544    1.411   .     A
C532   C580    1.412   .     A
C533   C578    1.412   .     A
C533   C543    1.411   .     A
C533   C586    1.491   .     S
C534   C587    1.484   .     S
C534   C577    1.412   .     A
C534   C542    1.412   .     A
C535   C36     1.197   1_566 S
C536   C576    1.412   .     A
C536   C541    1.410   .     A
C536   C588    1.484   .     S
C537   C589    1.492   .     S
C537   C566    1.413   .     A
C538   C565    1.413   .     A
C538   C591    1.495   .     S
C539   C564    1.412   .     A
C539   C592    1.492   .     S
C540   C563    1.412   .     A
C540   C593    1.492   .     S
C541   C594    1.495   .     S
C541   C571    1.413   .     A
C542   C595    1.496   .     S
C542   C570    1.415   .     A
C543   C569    1.412   .     A
C543   C596    1.492   .     S
C544   C567    1.412   .     A
C544   C597    1.492   .     S
C545   C564    1.412   .     A
C545   C558    1.411   .     A
C545   C598    1.491   .     S
C546   C557    1.197   .     T
C547   C556    1.411   .     A
C547   C599    1.491   .     S
C547   C563    1.412   .     A
C548   C566    1.413   .     A
C548   C555    1.411   .     A
C548   C600    1.491   .     S
C549   C565    1.413   .     A
C549   C554    1.409   .     A
C550   C569    1.412   .     A
C550   C562    1.411   .     A
C551   C567    1.412   .     A
C551   C561    1.411   .     A
C552   C571    1.412   .     A
C552   C560    1.410   .     A
C553   C570    1.413   .     A
C553   C559    1.410   .     A
C554   C573    1.414   .     A
C555   C572    1.413   .     A
C556   C575    1.412   .     A
C558   C574    1.412   .     A
C559   C577    1.412   .     A
C560   C576    1.413   .     A
C561   C580    1.412   .     A
C562   C578    1.412   .     A
C568   C579    1.197   .     T
C579   C590    1.420   .     S
C581   H601    1.083   .     S
C581   O681    1.221   .     D
C582   O682    1.221   .     D
C582   H612    1.084   .     S
C583   H623    1.085   .     S
C583   O683    1.221   .     D
C584   H627    1.085   .     S
C584   O684    1.221   .     D
C585   H628    1.085   .     S
C585   O685    1.221   .     D
C586   O686    1.221   .     D
C586   H629    1.085   .     S
C587   H630    1.085   .     S
C587   O687    1.221   .     D
C588   O689    1.221   .     D
C588   H631    1.085   .     S
C589   O690    1.221   .     D
C589   H632    1.083   .     S
C590   O677    1.277   .     A
C590   O716    1.277   .     A
C591   H602    1.085   .     S
C591   O691    1.220   .     D
C592   H603    1.085   .     S
C592   O692    1.221   .     D
C593   H604    1.085   .     S
C593   O693    1.221   .     D
C594   H605    1.085   .     S
C594   O694    1.220   .     D
C595   O695    1.220   .     D
C595   H606    1.085   .     S
C596   O696    1.221   .     D
C596   H607    1.083   .     S
C597   H608    1.084   .     S
C597   O697    1.221   .     D
C598   H609    1.084   .     S
C598   O698    1.221   .     D
C599   O700    1.221   .     D
C599   H610    1.085   .     S
C600   O701    1.221   .     D
C600   H611    1.085   .     S
O633   Zn717   1.937   .     S
O633   Zn720   1.937   .     S
O633   Zn724   1.936   .     S
O633   Zn972   1.937   1_455 S
O634   Zn723   1.920   .     S
O635   Zn718   1.920   .     S
O636   Zn732   1.920   .     S
O637   Zn727   1.919   .     S
O638   Zn726   1.919   .     S
O638   C19     1.277   1_565 S
O639   Zn729   1.920   .     S
O640   Zn728   1.920   .     S
O640   C753    1.277   .     S
O641   Zn731   1.920   .     S
O642   Zn730   1.920   .     S
O643   C752    1.277   .     A
O643   Zn725   1.920   .     S
O644   Zn723   1.936   .     S
O644   Zn719   1.937   .     S
O644   Zn729   1.937   .     S
O644   Zn969   1.937   1_455 S
O645   Zn717   1.920   .     S
O646   Zn724   1.938   .     S
O647   Zn967   1.938   .     S
O648   Zn230   1.934   1_565 S
O649   Zn732   1.934   .     S
O650   Zn964   1.938   .     S
O651   Zn719   1.938   .     S
O652   Zn722   1.933   .     S
O653   Zn233   1.933   1_565 S
O654   Zn723   1.934   .     S
O655   Zn730   1.936   .     S
O655   Zn718   1.937   .     S
O655   Zn722   1.937   .     S
O656   Zn968   1.934   .     S
O657   Zn721   1.938   .     S
O658   Zn234   1.938   1_565 S
O659   Zn963   1.933   .     S
O660   Zn720   1.933   .     S
O661   Zn244   1.938   1_565 S
O662   Zn718   1.938   .     S
O663   Zn731   1.938   .     S
O664   Zn730   1.938   .     S
O665   Zn725   1.934   .     S
O666   Zn727   1.937   .     S
O666   Zn732   1.937   .     S
O666   Zn721   1.937   .     S
O667   Zn717   1.934   .     S
O668   Zn727   1.938   .     S
O669   Zn726   1.938   .     S
O670   Zn729   1.933   .     S
O671   Zn728   1.933   .     S
O672   Zn730   1.934   .     S
O673   Zn731   1.934   .     S
O674   Zn728   1.938   .     S
O675   Zn729   1.938   .     S
O676   Zn726   1.933   .     S
O677   Zn720   1.919   .     S
O678   Zn727   1.933   .     S
O679   Zn717   1.938   .     S
O680   Zn725   1.938   .     S
O688   Zn719   1.919   .     S
O699   Zn722   1.920   .     S
O710   Zn721   1.920   .     S
O716   Zn724   1.920   .     S
Zn719  O903    1.933   1_455 S
Zn720  O894    1.938   1_455 S
Zn723  O891    1.938   1_455 S
Zn724  O900    1.934   1_455 S
Zn725  O888    1.937   .     S
Zn726  O167    1.937   1_565 S
Zn728  O877    1.937   .     S
Zn731  O178    1.936   1_565 S
C733   C753    1.420   .     S
C733   C757    1.197   1_554 S
C734   C812    1.420   .     S
C734   O878    1.277   .     A
C734   O932    1.277   .     S
C735   O946    1.221   .     D
C735   H857    1.085   .     S
C735   C793    1.484   .     S
C736   C794    1.491   .     S
C736   O947    1.221   .     D
C736   H858    1.085   .     S
C737   C795    1.492   .     S
C737   H859    1.085   .     S
C737   O948    1.221   .     D
C738   O949    1.221   .     D
C738   C796    1.484   .     S
C738   H860    1.085   .     S
C739   O950    1.221   .     D
C739   C797    1.491   .     S
C739   H861    1.085   .     S
C740   C798    1.494   .     S
C740   H862    1.085   .     S
C740   O951    1.220   .     D
C741   H863    1.083   .     S
C741   C799    1.492   .     S
C741   O952    1.221   .     D
C742   O953    1.221   .     D
C742   C800    1.493   .     S
C742   H864    1.084   .     S
C743   C802    1.492   .     S
C743   H865    1.085   .     S
C743   O955    1.221   .     D
C744   O956    1.221   .     D
C744   H866    1.083   .     S
C744   C803    1.492   .     S
C745   C801    1.420   .     S
C745   O879    1.277   .     S
C745   O943    1.277   .     S
C746   C804    1.495   .     S
C746   O957    1.220   .     D
C746   H868    1.085   .     S
C747   O958    1.221   .     D
C747   C805    1.491   .     S
C747   H869    1.083   .     S
C748   O959    1.221   .     D
C748   C806    1.492   .     S
C748   H870    1.083   .     S
C749   O954    1.277   .     A
C749   C790    1.420   .     S
C749   O880    1.277   .     A
C750   C779    1.420   .     S
C750   O885    1.277   .     A
C750   O393    1.277   1_565 S
C751   C768    1.420   .     S
C751   O886    1.277   .     A
C752   C757    1.420   .     S
C752   O883    1.277   .     S
C753   O889    1.277   .     A
C754   C814    1.461   .     S
C754   O890    1.274   .     A
C754   O923    1.273   .     A
C755   O891    1.273   .     A
C755   C815    1.461   .     S
C755   O924    1.275   .     A
C756   O892    1.274   .     A
C756   C807    1.457   .     S
C756   O920    1.274   .     A
C757   C733    1.197   1_556 S
C758   O922    1.275   .     A
C758   C808    1.457   .     S
C758   O893    1.273   .     A
C759   C809    1.461   .     S
C759   O894    1.274   .     A
C759   O918    1.275   .     A
C760   C810    1.460   .     S
C760   O919    1.273   .     A
C760   O895    1.275   .     A
C761   O916    1.273   .     A
C761   C811    1.457   .     S
C761   O896    1.275   .     A
C762   O917    1.273   .     A
C762   O897    1.275   .     A
C762   C813    1.457   .     S
C763   O914    1.275   .     A
C763   C822    1.457   .     S
C763   O898    1.273   .     A
C764   O900    1.273   .     A
C764   C824    1.457   .     S
C764   O915    1.275   .     A
C765   O901    1.273   .     A
C765   C816    1.460   .     S
C765   O912    1.275   .     A
C766   O913    1.274   .     A
C766   O902    1.275   .     A
C766   C817    1.462   .     S
C767   O909    1.273   .     A
C767   O903    1.275   .     A
C767   C818    1.457   .     S
C768   C291    1.197   1_554 S
C769   C819    1.456   .     S
C769   O911    1.274   .     A
C769   O904    1.274   .     A
C770   O907    1.273   .     A
C770   O905    1.275   .     A
C770   C820    1.461   .     S
C771   C821    1.461   .     S
C771   O906    1.274   .     A
C771   O908    1.274   .     A
C772   C825    1.492   .     S
C772   C784    1.411   .     A
C772   C819    1.412   .     A
C773   C818    1.412   .     A
C773   C826    1.491   .     S
C773   C783    1.411   .     A
C774   C827    1.483   .     S
C774   C817    1.413   .     A
C774   C782    1.408   .     A
C775   C816    1.413   .     A
C775   C781    1.411   .     A
C775   C828    1.491   .     S
C776   C829    1.492   .     S
C776   C788    1.411   .     A
C776   C824    1.412   .     A
C777   C822    1.412   .     A
C777   C787    1.411   .     A
C777   C830    1.491   .     S
C778   C831    1.484   .     S
C778   C821    1.412   .     A
C778   C786    1.412   .     A
C779   C280    1.197   1_566 S
C780   C820    1.412   .     A
C780   C785    1.410   .     A
C780   C832    1.484   .     S
C781   C833    1.492   .     S
C781   C810    1.413   .     A
C782   C809    1.413   .     A
C782   C835    1.495   .     S
C783   C808    1.412   .     A
C783   C836    1.492   .     S
C784   C807    1.412   .     A
C784   C837    1.492   .     S
C785   C838    1.495   .     S
C785   C815    1.413   .     A
C786   C839    1.496   .     S
C786   C814    1.415   .     A
C787   C813    1.412   .     A
C787   C840    1.492   .     S
C788   C811    1.412   .     A
C788   C841    1.492   .     S
C789   C808    1.412   .     A
C789   C802    1.411   .     A
C789   C842    1.491   .     S
C790   C801    1.197   .     T
C791   C800    1.411   .     A
C791   C843    1.491   .     S
C791   C807    1.412   .     A
C792   C810    1.413   .     A
C792   C799    1.411   .     A
C792   C844    1.491   .     S
C793   C809    1.413   .     A
C793   C798    1.409   .     A
C794   C813    1.412   .     A
C794   C806    1.411   .     A
C795   C811    1.412   .     A
C795   C805    1.411   .     A
C796   C815    1.412   .     A
C796   C804    1.410   .     A
C797   C814    1.413   .     A
C797   C803    1.410   .     A
C798   C817    1.414   .     A
C799   C816    1.413   .     A
C800   C819    1.412   .     A
C802   C818    1.412   .     A
C803   C821    1.412   .     A
C804   C820    1.413   .     A
C805   C824    1.412   .     A
C806   C822    1.412   .     A
C812   C823    1.197   .     T
C823   C834    1.420   .     S
C825   H845    1.083   .     S
C825   O925    1.221   .     D
C826   O926    1.221   .     D
C826   H856    1.084   .     S
C827   H867    1.085   .     S
C827   O927    1.221   .     D
C828   H871    1.085   .     S
C828   O928    1.221   .     D
C829   H872    1.085   .     S
C829   O929    1.221   .     D
C830   O930    1.221   .     D
C830   H873    1.085   .     S
C831   H874    1.085   .     S
C831   O931    1.221   .     D
C832   O933    1.221   .     D
C832   H875    1.085   .     S
C833   O934    1.221   .     D
C833   H876    1.083   .     S
C834   O921    1.277   .     A
C834   O960    1.277   .     A
C835   H846    1.085   .     S
C835   O935    1.220   .     D
C836   H847    1.085   .     S
C836   O936    1.221   .     D
C837   H848    1.085   .     S
C837   O937    1.221   .     D
C838   H849    1.085   .     S
C838   O938    1.220   .     D
C839   O939    1.220   .     D
C839   H850    1.085   .     S
C840   O940    1.221   .     D
C840   H851    1.083   .     S
C841   H852    1.084   .     S
C841   O941    1.221   .     D
C842   H853    1.084   .     S
C842   O942    1.221   .     D
C843   O944    1.221   .     D
C843   H854    1.085   .     S
C844   O945    1.221   .     D
C844   H855    1.085   .     S
O877   Zn961   1.937   .     S
O877   Zn964   1.937   .     S
O877   Zn968   1.936   .     S
O878   Zn967   1.920   .     S
O879   Zn962   1.920   .     S
O880   Zn976   1.920   .     S
O881   Zn971   1.919   .     S
O882   Zn970   1.919   .     S
O882   C263    1.277   1_565 S
O883   Zn973   1.920   .     S
O884   Zn972   1.920   .     S
O884   C509    1.277   1_655 S
O885   Zn975   1.920   .     S
O886   Zn974   1.920   .     S
O887   C508    1.277   1_655 A
O887   Zn969   1.920   .     S
O888   Zn967   1.936   .     S
O888   Zn963   1.937   .     S
O888   Zn973   1.937   .     S
O889   Zn961   1.920   .     S
O890   Zn968   1.938   .     S
O891   Zn723   1.938   1_655 S
O892   Zn474   1.934   1_565 S
O893   Zn976   1.934   .     S
O894   Zn720   1.938   1_655 S
O895   Zn963   1.938   .     S
O896   Zn966   1.933   .     S
O897   Zn477   1.933   1_565 S
O898   Zn967   1.934   .     S
O899   Zn974   1.936   .     S
O899   Zn962   1.937   .     S
O899   Zn966   1.937   .     S
O900   Zn724   1.934   1_655 S
O901   Zn965   1.938   .     S
O902   Zn478   1.938   1_565 S
O903   Zn719   1.933   1_655 S
O904   Zn964   1.933   .     S
O905   Zn488   1.938   1_565 S
O906   Zn962   1.938   .     S
O907   Zn975   1.938   .     S
O908   Zn974   1.938   .     S
O909   Zn969   1.934   .     S
O910   Zn971   1.937   .     S
O910   Zn976   1.937   .     S
O910   Zn965   1.937   .     S
O911   Zn961   1.934   .     S
O912   Zn971   1.938   .     S
O913   Zn970   1.938   .     S
O914   Zn973   1.933   .     S
O915   Zn972   1.933   .     S
O916   Zn974   1.934   .     S
O917   Zn975   1.934   .     S
O918   Zn972   1.938   .     S
O919   Zn973   1.938   .     S
O920   Zn970   1.933   .     S
O921   Zn964   1.919   .     S
O922   Zn971   1.933   .     S
O923   Zn961   1.938   .     S
O924   Zn969   1.938   .     S
O932   Zn963   1.919   .     S
O943   Zn966   1.920   .     S
O954   Zn965   1.920   .     S
O960   Zn968   1.920   .     S
Zn969  O644    1.937   1_655 S
Zn970  O411    1.937   1_565 S
Zn972  O633    1.937   1_655 S
Zn975  O422    1.936   1_565 S
