data_str_m1_o1_o17_pcu_sym.107
_audit_creation_date              2020-01-03
_audit_creation_method            'Materials Studio'
_symmetry_space_group_name_H-M    'P1'
_symmetry_Int_Tables_number       1
_symmetry_cell_setting            triclinic
loop_
_symmetry_equiv_pos_as_xyz
  x,y,z
_cell_length_a                    36.5804
_cell_length_b                    36.5818
_cell_length_c                    34.3981
_cell_angle_alpha                 89.9998
_cell_angle_beta                  90.0011
_cell_angle_gamma                 90.0328
loop_
_atom_site_label
_atom_site_type_symbol
_atom_site_fract_x
_atom_site_fract_y
_atom_site_fract_z
_atom_site_U_iso_or_equiv
_atom_site_adp_type
_atom_site_occupancy
C1     C     0.00128   0.28328   0.41766   0.00000  Uiso   1.00
C2     C     0.25098   0.46664   0.08240   0.00000  Uiso   1.00
C3     C     0.21645   0.00439   0.54112   0.00000  Uiso   1.00
C4     C     0.00448   0.28336   0.45856   0.00000  Uiso   1.00
C5     C     0.49551   0.21637   0.54109   0.00000  Uiso   1.00
C6     C     0.21651   0.00365   0.45860   0.00000  Uiso   1.00
C7     C     0.28355   0.49561   0.54112   0.00000  Uiso   1.00
C8     C     0.25254   0.46633   0.95884   0.00000  Uiso   1.00
C9     C     0.24703   0.03365   0.04136   0.00000  Uiso   1.00
C10    C     0.03293   0.24283   0.95855   0.00000  Uiso   1.00
C11    C     0.46666   0.25628   0.04113   0.00000  Uiso   1.00
C12    C     0.24746   0.03367   0.95884   0.00000  Uiso   1.00
C13    C     0.46700   0.25470   0.91757   0.00000  Uiso   1.00
C14    C     0.25296   0.46635   0.04136   0.00000  Uiso   1.00
C15    C     0.46707   0.25717   0.95855   0.00000  Uiso   1.00
C16    C     0.03334   0.24373   0.04113   0.00000  Uiso   1.00
C17    C     0.09809   0.34804   0.25001   0.00000  Uiso   1.00
C18    C     0.40189   0.15192   0.75002   0.00000  Uiso   1.00
C19    C     0.15193   0.09804   0.25004   0.00000  Uiso   1.00
C20    C     0.34814   0.40189   0.75003   0.00000  Uiso   1.00
C21    C     0.40191   0.15196   0.25001   0.00000  Uiso   1.00
C22    C     0.09811   0.34808   0.75002   0.00000  Uiso   1.00
C23    C     0.34807   0.40196   0.25004   0.00000  Uiso   1.00
C24    C     0.03287   0.24399   0.08229   0.00000  Uiso   1.00
C25    C     0.15186   0.09811   0.75003   0.00000  Uiso   1.00
C26    C     0.09800   0.15194   0.75004   0.00000  Uiso   1.00
C27    C     0.40191   0.34812   0.25001   0.00000  Uiso   1.00
C28    C     0.15197   0.40193   0.75007   0.00000  Uiso   1.00
C29    C     0.34807   0.09810   0.25001   0.00000  Uiso   1.00
C30    C     0.40200   0.34806   0.75004   0.00000  Uiso   1.00
C31    C     0.09809   0.15188   0.25001   0.00000  Uiso   1.00
C32    C     0.34803   0.09807   0.75007   0.00000  Uiso   1.00
C33    C     0.15193   0.40190   0.25001   0.00000  Uiso   1.00
C34    C     0.00000   0.25000   0.47925   0.00000  Uiso   1.00
C35    C     0.25494   0.46701   0.91783   0.00000  Uiso   1.00
C36    C     0.00000   0.25000   0.52052   0.00000  Uiso   1.00
C37    C     0.25000   0.00000   0.47926   0.00000  Uiso   1.00
C38    C     0.25000   0.00000   0.52053   0.00000  Uiso   1.00
C39    C     0.25000  -0.00000   0.97946   0.00000  Uiso   1.00
C40    C     0.25000  -0.00000   0.02074   0.00000  Uiso   1.00
C41    C    -0.00000   0.25000   0.97924   0.00000  Uiso   1.00
C42    C    -0.00000   0.25000   0.02054   0.00000  Uiso   1.00
C43    C     0.43960   0.15329   0.45241   0.00000  Uiso   1.00
C44    C     0.41908   0.12765   0.47993   0.00000  Uiso   1.00
C45    C     0.37899   0.12378   0.46836   0.00000  Uiso   1.00
C46    C     0.24902   0.03336   0.08239   0.00000  Uiso   1.00
C47    C     0.48048   0.36980   0.53630   0.00000  Uiso   1.00
C48    C     0.48520   0.40559   0.55868   0.00000  Uiso   1.00
C49    C     0.45016   0.42814   0.55879   0.00000  Uiso   1.00
C50    C     0.34890   0.44221   0.45418   0.00000  Uiso   1.00
C51    C     0.38133   0.42518   0.47553   0.00000  Uiso   1.00
C52    C     0.38515   0.38460   0.46607   0.00000  Uiso   1.00
C53    C     0.13489   0.47395   0.54090   0.00000  Uiso   1.00
C54    C     0.09925   0.47568   0.56406   0.00000  Uiso   1.00
C55    C     0.08454   0.43758   0.57306   0.00000  Uiso   1.00
C56    C     0.06041   0.34670   0.45241   0.00000  Uiso   1.00
C57    C     0.03300   0.24530   0.91758   0.00000  Uiso   1.00
C58    C     0.08093   0.37235   0.47993   0.00000  Uiso   1.00
C59    C     0.12102   0.37621   0.46836   0.00000  Uiso   1.00
C60    C     0.01954   0.13021   0.53631   0.00000  Uiso   1.00
C61    C     0.01482   0.09442   0.55869   0.00000  Uiso   1.00
C62    C     0.04987   0.07187   0.55881   0.00000  Uiso   1.00
C63    C     0.15109   0.05778   0.45416   0.00000  Uiso   1.00
C64    C     0.11869   0.07482   0.47555   0.00000  Uiso   1.00
C65    C     0.11487   0.11540   0.46608   0.00000  Uiso   1.00
C66    C     0.36511   0.02605   0.54090   0.00000  Uiso   1.00
C67    C     0.40076   0.02431   0.56406   0.00000  Uiso   1.00
C68    C     0.46713   0.25601   0.08229   0.00000  Uiso   1.00
C69    C     0.41547   0.06241   0.57305   0.00000  Uiso   1.00
C70    C     0.21390   0.39065   0.95434   0.00000  Uiso   1.00
C71    C     0.19613   0.37161   0.98928   0.00000  Uiso   1.00
C72    C     0.15851   0.35642   0.97887   0.00000  Uiso   1.00
C73    C     0.19789   0.10548   0.03925   0.00000  Uiso   1.00
C74    C     0.18994   0.14049   0.06196   0.00000  Uiso   1.00
C75    C     0.14892   0.14750   0.06517   0.00000  Uiso   1.00
C76    C     0.09486   0.18262   0.95883   0.00000  Uiso   1.00
C77    C     0.13176   0.16880   0.94405   0.00000  Uiso   1.00
C78    C     0.13214   0.12725   0.94010   0.00000  Uiso   1.00
C79    C     0.00000   0.25000   0.39783   0.00000  Uiso   1.00
C80    C     0.37791   0.23999   0.03511   0.00000  Uiso   1.00
C81    C     0.34123   0.24937   0.05389   0.00000  Uiso   1.00
C82    C     0.31404   0.21793   0.05031   0.00000  Uiso   1.00
C83    C     0.28608   0.10935   0.95434   0.00000  Uiso   1.00
C84    C     0.30385   0.12840   0.98928   0.00000  Uiso   1.00
C85    C     0.34148   0.14359   0.97888   0.00000  Uiso   1.00
C86    C     0.30208   0.39447   0.03920   0.00000  Uiso   1.00
C87    C     0.31004   0.35952   0.06202   0.00000  Uiso   1.00
C88    C     0.35105   0.35245   0.06513   0.00000  Uiso   1.00
C89    C     0.40513   0.31738   0.95882   0.00000  Uiso   1.00
C90    C    -0.00000   0.25000   0.60197   0.00000  Uiso   1.00
C91    C     0.36824   0.33120   0.94402   0.00000  Uiso   1.00
C92    C     0.36785   0.37275   0.94009   0.00000  Uiso   1.00
C93    C     0.12208   0.26002   0.03511   0.00000  Uiso   1.00
C94    C     0.15877   0.25065   0.05390   0.00000  Uiso   1.00
C95    C     0.18596   0.28209   0.05032   0.00000  Uiso   1.00
C96    C     0.25000   0.00000   0.39786   0.00000  Uiso   1.00
C97    C     0.49502   0.21696   0.58224   0.00000  Uiso   1.00
C98    C     0.25000   0.00000   0.60198   0.00000  Uiso   1.00
C99    C     0.25000  -0.00000   0.89800   0.00000  Uiso   1.00
C100   C     0.25000   0.00000   0.10214   0.00000  Uiso   1.00
C101   C     0.00000   0.25000   0.89780   0.00000  Uiso   1.00
C102   C    -0.00000   0.25000   0.10200   0.00000  Uiso   1.00
C103   C     0.48811   0.18422   0.47933   0.00000  Uiso   1.00
C104   C     0.00890   0.31658   0.51979   0.00000  Uiso   1.00
C105   C     0.31612   0.49008   0.47947   0.00000  Uiso   1.00
C106   C     0.18336   0.00740   0.51991   0.00000  Uiso   1.00
C107   C     0.01190   0.31578   0.47933   0.00000  Uiso   1.00
C108   C     0.21668   0.00057   0.41769   0.00000  Uiso   1.00
C109   C     0.49111   0.18342   0.51979   0.00000  Uiso   1.00
C110   C     0.18388   0.00992   0.47947   0.00000  Uiso   1.00
C111   C     0.31664   0.49260   0.51991   0.00000  Uiso   1.00
C112   C     0.25322   0.43312   0.97996   0.00000  Uiso   1.00
C113   C     0.24277   0.06654   0.02025   0.00000  Uiso   1.00
C114   C     0.06476   0.23348   0.97943   0.00000  Uiso   1.00
C115   C     0.43412   0.26307   0.01987   0.00000  Uiso   1.00
C116   C     0.24677   0.06687   0.97996   0.00000  Uiso   1.00
C117   C     0.25722   0.43345   0.02026   0.00000  Uiso   1.00
C118   C     0.43523   0.26652   0.97943   0.00000  Uiso   1.00
C119   C     0.28279   0.49380   0.58219   0.00000  Uiso   1.00
C120   C     0.06587   0.23693   0.01988   0.00000  Uiso   1.00
C121   C     0.25000   0.00000   0.35570   0.00000  Uiso   1.00
C122   C     0.25000   0.00000   0.64426   0.00000  Uiso   1.00
C123   C     0.00000   0.25000   0.35569   0.00000  Uiso   1.00
C124   C    -0.00000   0.25000   0.64427   0.00000  Uiso   1.00
C125   C     0.00000   0.25000   0.85567   0.00000  Uiso   1.00
C126   C    -0.00000   0.25000   0.14428   0.00000  Uiso   1.00
C127   C     0.25000  -0.00000   0.85574   0.00000  Uiso   1.00
C128   C     0.25000   0.00000   0.14431   0.00000  Uiso   1.00
C129   C     0.17998   0.06999   0.25002   0.00000  Uiso   1.00
C130   C     0.49872   0.21672   0.41766   0.00000  Uiso   1.00
C131   C     0.32003   0.42997   0.75001   0.00000  Uiso   1.00
C132   C     0.42999   0.18000   0.25000   0.00000  Uiso   1.00
C133   C     0.07001   0.32002   0.74999   0.00000  Uiso   1.00
C134   C     0.32002   0.43001   0.25002   0.00000  Uiso   1.00
C135   C     0.17997   0.07003   0.75001   0.00000  Uiso   1.00
C136   C     0.07001   0.32000   0.25000   0.00000  Uiso   1.00
C137   C     0.42999   0.17998   0.74999   0.00000  Uiso   1.00
C138   C     0.18002   0.42997   0.75005   0.00000  Uiso   1.00
C139   C     0.32001   0.07001   0.25001   0.00000  Uiso   1.00
C140   C     0.43000   0.31999   0.75002   0.00000  Uiso   1.00
C141   C     0.00498   0.28304   0.58224   0.00000  Uiso   1.00
C142   C     0.07002   0.17998   0.24999   0.00000  Uiso   1.00
C143   C     0.31998   0.07003   0.75005   0.00000  Uiso   1.00
C144   C     0.17999   0.42999   0.25001   0.00000  Uiso   1.00
C145   C     0.07000   0.18001   0.75002   0.00000  Uiso   1.00
C146   C     0.42998   0.32002   0.24999   0.00000  Uiso   1.00
C147   C     0.14241   0.38455   0.21492   0.00000  Uiso   1.00
C148   C     0.35729   0.11568   0.78508   0.00000  Uiso   1.00
C149   C     0.11503   0.14191   0.21484   0.00000  Uiso   1.00
C150   C     0.38552   0.35843   0.78532   0.00000  Uiso   1.00
C151   C     0.35758   0.11545   0.21492   0.00000  Uiso   1.00
C152   C     0.28332   0.49943   0.41769   0.00000  Uiso   1.00
C153   C     0.14271   0.38432   0.78509   0.00000  Uiso   1.00
C154   C     0.38497   0.35810   0.21484   0.00000  Uiso   1.00
C155   C     0.11448   0.14157   0.78532   0.00000  Uiso   1.00
C156   C     0.14138   0.11454   0.78532   0.00000  Uiso   1.00
C157   C     0.35795   0.38502   0.21485   0.00000  Uiso   1.00
C158   C     0.11568   0.35734   0.78506   0.00000  Uiso   1.00
C159   C     0.38455   0.14248   0.21492   0.00000  Uiso   1.00
C160   C     0.35862   0.38546   0.78532   0.00000  Uiso   1.00
C161   C     0.14205   0.11498   0.21485   0.00000  Uiso   1.00
C162   C     0.38432   0.14266   0.78506   0.00000  Uiso   1.00
C163   C     0.21721   0.00620   0.58219   0.00000  Uiso   1.00
C164   C     0.11545   0.35752   0.21492   0.00000  Uiso   1.00
C165   C     0.39257   0.13431   0.71502   0.00000  Uiso   1.00
C166   C     0.10763   0.36534   0.28511   0.00000  Uiso   1.00
C167   C     0.36467   0.39149   0.71477   0.00000  Uiso   1.00
C168   C     0.13497   0.10794   0.28522   0.00000  Uiso   1.00
C169   C     0.10743   0.36569   0.71502   0.00000  Uiso   1.00
C170   C     0.39237   0.13466   0.28511   0.00000  Uiso   1.00
C171   C     0.13532   0.10851   0.71477   0.00000  Uiso   1.00
C172   C     0.36503   0.39206   0.28522   0.00000  Uiso   1.00
C173   C     0.39199   0.36504   0.28521   0.00000  Uiso   1.00
C174   C     0.24506   0.03298   0.91783   0.00000  Uiso   1.00
C175   C     0.10824   0.13537   0.71479   0.00000  Uiso   1.00
C176   C     0.36536   0.10769   0.28511   0.00000  Uiso   1.00
C177   C     0.13437   0.39273   0.71505   0.00000  Uiso   1.00
C178   C     0.10801   0.13495   0.28521   0.00000  Uiso   1.00
C179   C     0.39176   0.36463   0.71479   0.00000  Uiso   1.00
C180   C     0.13465   0.39231   0.28511   0.00000  Uiso   1.00
C181   C     0.36563   0.10727   0.71505   0.00000  Uiso   1.00
C182   C     0.49553   0.21664   0.45856   0.00000  Uiso   1.00
C183   C     0.00450   0.28363   0.54109   0.00000  Uiso   1.00
C184   C     0.28349   0.49635   0.45860   0.00000  Uiso   1.00
Cl185  Cl    0.16538   0.39532   0.17106   0.00000  Uiso   1.00
Cl186  Cl    0.33537   0.39617   0.17084   0.00000  Uiso   1.00
Cl187  Cl    0.10516   0.33404   0.82880   0.00000  Uiso   1.00
Cl188  Cl    0.39521   0.16561   0.17110   0.00000  Uiso   1.00
Cl189  Cl    0.33706   0.39737   0.82958   0.00000  Uiso   1.00
Cl190  Cl    0.16463   0.10384   0.17084   0.00000  Uiso   1.00
Cl191  Cl    0.39485   0.16596   0.82880   0.00000  Uiso   1.00
Cl192  Cl    0.10479   0.33439   0.17110   0.00000  Uiso   1.00
Cl193  Cl    0.41568   0.14478   0.67122   0.00000  Uiso   1.00
Cl194  Cl    0.08469   0.35451   0.32900   0.00000  Uiso   1.00
Cl195  Cl    0.35290   0.41316   0.67056   0.00000  Uiso   1.00
Cl196  Cl    0.33396   0.10524   0.82884   0.00000  Uiso   1.00
Cl197  Cl    0.14613   0.08540   0.32924   0.00000  Uiso   1.00
Cl198  Cl    0.08432   0.35522   0.67122   0.00000  Uiso   1.00
Cl199  Cl    0.41531   0.14549   0.32900   0.00000  Uiso   1.00
Cl200  Cl    0.14709   0.08684   0.67056   0.00000  Uiso   1.00
Cl201  Cl    0.35387   0.41459   0.32924   0.00000  Uiso   1.00
Cl202  Cl    0.41442   0.35379   0.32924   0.00000  Uiso   1.00
Cl203  Cl    0.08594   0.14678   0.67068   0.00000  Uiso   1.00
Cl204  Cl    0.35448   0.08486   0.32902   0.00000  Uiso   1.00
Cl205  Cl    0.14476   0.41621   0.67136   0.00000  Uiso   1.00
Cl206  Cl    0.08558   0.14620   0.32924   0.00000  Uiso   1.00
Cl207  Cl    0.10377   0.16418   0.17076   0.00000  Uiso   1.00
Cl208  Cl    0.41406   0.35322   0.67068   0.00000  Uiso   1.00
Cl209  Cl    0.14552   0.41514   0.32902   0.00000  Uiso   1.00
Cl210  Cl    0.35524   0.08378   0.67136   0.00000  Uiso   1.00
Cl211  Cl    0.49588   0.32402   0.39005   0.00000  Uiso   1.00
Cl212  Cl    0.48785   0.17733   0.61123   0.00000  Uiso   1.00
Cl213  Cl    0.17606   0.49450   0.39004   0.00000  Uiso   1.00
Cl214  Cl    0.32174   0.48272   0.61071   0.00000  Uiso   1.00
Cl215  Cl    0.00413   0.17598   0.39005   0.00000  Uiso   1.00
Cl216  Cl    0.01214   0.32267   0.61123   0.00000  Uiso   1.00
Cl217  Cl    0.32395   0.00550   0.39004   0.00000  Uiso   1.00
Cl218  Cl    0.39725   0.33651   0.82953   0.00000  Uiso   1.00
Cl219  Cl    0.17826   0.01729   0.61071   0.00000  Uiso   1.00
Cl220  Cl    0.23399   0.07227   0.88981   0.00000  Uiso   1.00
Cl221  Cl    0.24731   0.42612   0.11075   0.00000  Uiso   1.00
Cl222  Cl    0.42609   0.25452   0.88957   0.00000  Uiso   1.00
Cl223  Cl    0.07254   0.23710   0.11131   0.00000  Uiso   1.00
Cl224  Cl    0.26601   0.42773   0.88982   0.00000  Uiso   1.00
Cl225  Cl    0.25270   0.07388   0.11074   0.00000  Uiso   1.00
Cl226  Cl    0.07391   0.24548   0.88958   0.00000  Uiso   1.00
Cl227  Cl    0.42746   0.26291   0.11131   0.00000  Uiso   1.00
Cl228  Cl    0.33461   0.10468   0.17106   0.00000  Uiso   1.00
Cl229  Cl    0.16604   0.39476   0.82884   0.00000  Uiso   1.00
Cl230  Cl    0.39624   0.33583   0.17076   0.00000  Uiso   1.00
Cl231  Cl    0.10276   0.16349   0.82953   0.00000  Uiso   1.00
Cl232  Cl    0.16295   0.10263   0.82958   0.00000  Uiso   1.00
H233   H     0.43579   0.14331   0.42218   0.00000  Uiso   1.00
H234   H     0.49313   0.39957   0.58920   0.00000  Uiso   1.00
H235   H     0.41038   0.32979   0.98791   0.00000  Uiso   1.00
H236   H     0.36234   0.31878   0.91520   0.00000  Uiso   1.00
H237   H     0.34638   0.32273   0.96461   0.00000  Uiso   1.00
H238   H     0.37361   0.38581   0.96859   0.00000  Uiso   1.00
H239   H     0.34050   0.38183   0.92995   0.00000  Uiso   1.00
H240   H     0.38866   0.38172   0.91858   0.00000  Uiso   1.00
H241   H     0.10999   0.28396   0.05046   0.00000  Uiso   1.00
H242   H     0.12711   0.26754   0.00420   0.00000  Uiso   1.00
H243   H     0.15453   0.24426   0.08516   0.00000  Uiso   1.00
H244   H     0.17043   0.22612   0.03944   0.00000  Uiso   1.00
H245   H     0.00736   0.42192   0.54500   0.00000  Uiso   1.00
H246   H     0.19186   0.28762   0.01921   0.00000  Uiso   1.00
H247   H     0.21193   0.27460   0.06501   0.00000  Uiso   1.00
H248   H     0.17488   0.30716   0.06420   0.00000  Uiso   1.00
H249   H     0.44338   0.43689   0.52877   0.00000  Uiso   1.00
H250   H     0.45414   0.45291   0.57695   0.00000  Uiso   1.00
H251   H     0.42710   0.41204   0.57100   0.00000  Uiso   1.00
H252   H     0.35254   0.43773   0.42247   0.00000  Uiso   1.00
H253   H     0.32333   0.42747   0.46276   0.00000  Uiso   1.00
H254   H     0.40687   0.43956   0.46697   0.00000  Uiso   1.00
H255   H     0.37742   0.42838   0.50737   0.00000  Uiso   1.00
H256   H     0.35997   0.36962   0.47456   0.00000  Uiso   1.00
H257   H     0.42720   0.18120   0.45357   0.00000  Uiso   1.00
H258   H     0.40857   0.37299   0.48243   0.00000  Uiso   1.00
H259   H     0.39016   0.38073   0.43448   0.00000  Uiso   1.00
H260   H     0.15422   0.45523   0.55618   0.00000  Uiso   1.00
H261   H     0.12885   0.46279   0.51145   0.00000  Uiso   1.00
H262   H     0.10398   0.49030   0.59192   0.00000  Uiso   1.00
H263   H     0.07849   0.49111   0.54712   0.00000  Uiso   1.00
H264   H     0.07806   0.42293   0.54572   0.00000  Uiso   1.00
H265   H     0.05923   0.43992   0.59068   0.00000  Uiso   1.00
H266   H     0.10493   0.42157   0.58985   0.00000  Uiso   1.00
H267   H     0.06422   0.35668   0.42218   0.00000  Uiso   1.00
H268   H     0.43215   0.10023   0.47933   0.00000  Uiso   1.00
H269   H     0.07281   0.31879   0.45358   0.00000  Uiso   1.00
H270   H     0.06786   0.39977   0.47933   0.00000  Uiso   1.00
H271   H     0.07948   0.36145   0.51002   0.00000  Uiso   1.00
H272   H     0.13471   0.34912   0.46887   0.00000  Uiso   1.00
H273   H     0.13514   0.39457   0.48923   0.00000  Uiso   1.00
H274   H     0.12332   0.38815   0.43877   0.00000  Uiso   1.00
H275   H     0.04229   0.14612   0.54975   0.00000  Uiso   1.00
H276   H     0.02671   0.12354   0.50567   0.00000  Uiso   1.00
H277   H     0.00689   0.10044   0.58921   0.00000  Uiso   1.00
H278   H     0.49267   0.07808   0.54501   0.00000  Uiso   1.00
H279   H     0.42053   0.13855   0.51002   0.00000  Uiso   1.00
H280   H     0.05666   0.06312   0.52879   0.00000  Uiso   1.00
H281   H     0.04590   0.04710   0.57698   0.00000  Uiso   1.00
H282   H     0.07293   0.08798   0.57101   0.00000  Uiso   1.00
H283   H     0.14741   0.06225   0.42246   0.00000  Uiso   1.00
H284   H     0.17668   0.07252   0.46270   0.00000  Uiso   1.00
H285   H     0.09314   0.06044   0.46703   0.00000  Uiso   1.00
H286   H     0.12264   0.07163   0.50739   0.00000  Uiso   1.00
H287   H     0.14006   0.13038   0.47453   0.00000  Uiso   1.00
H288   H     0.09147   0.12702   0.48248   0.00000  Uiso   1.00
H289   H     0.10982   0.11926   0.43450   0.00000  Uiso   1.00
H290   H     0.36530   0.15087   0.46887   0.00000  Uiso   1.00
H291   H     0.34579   0.04477   0.55618   0.00000  Uiso   1.00
H292   H     0.37115   0.03720   0.51145   0.00000  Uiso   1.00
H293   H     0.39603   0.00968   0.59192   0.00000  Uiso   1.00
H294   H     0.42151   0.00888   0.54712   0.00000  Uiso   1.00
H295   H     0.42195   0.07706   0.54571   0.00000  Uiso   1.00
H296   H     0.44079   0.06007   0.59067   0.00000  Uiso   1.00
H297   H     0.39509   0.07842   0.58985   0.00000  Uiso   1.00
H298   H     0.21351   0.37150   0.92927   0.00000  Uiso   1.00
H299   H     0.19737   0.41488   0.94538   0.00000  Uiso   1.00
H300   H     0.21397   0.34889   0.99924   0.00000  Uiso   1.00
H301   H     0.36487   0.10542   0.48923   0.00000  Uiso   1.00
H302   H     0.19294   0.39139   0.01353   0.00000  Uiso   1.00
H303   H     0.14042   0.37867   0.96829   0.00000  Uiso   1.00
H304   H     0.14582   0.34393   0.00502   0.00000  Uiso   1.00
H305   H     0.16098   0.33511   0.95601   0.00000  Uiso   1.00
H306   H     0.18356   0.08229   0.05382   0.00000  Uiso   1.00
H307   H     0.18711   0.10866   0.00914   0.00000  Uiso   1.00
H308   H     0.20160   0.13819   0.09169   0.00000  Uiso   1.00
H309   H     0.20316   0.16404   0.04713   0.00000  Uiso   1.00
H310   H     0.13690   0.15142   0.03585   0.00000  Uiso   1.00
H311   H     0.14404   0.17254   0.08262   0.00000  Uiso   1.00
H312   H     0.37669   0.11184   0.43877   0.00000  Uiso   1.00
H313   H     0.13516   0.12418   0.07979   0.00000  Uiso   1.00
H314   H     0.07302   0.17378   0.93830   0.00000  Uiso   1.00
H315   H     0.08960   0.17020   0.98791   0.00000  Uiso   1.00
H316   H     0.13768   0.18123   0.91524   0.00000  Uiso   1.00
H317   H     0.15361   0.17725   0.96466   0.00000  Uiso   1.00
H318   H     0.12635   0.11417   0.96858   0.00000  Uiso   1.00
H319   H     0.15950   0.11817   0.92998   0.00000  Uiso   1.00
H320   H     0.11135   0.11830   0.91856   0.00000  Uiso   1.00
H321   H     0.39000   0.21604   0.05046   0.00000  Uiso   1.00
H322   H     0.37289   0.23247   0.00419   0.00000  Uiso   1.00
H323   H     0.45772   0.35390   0.54974   0.00000  Uiso   1.00
H324   H     0.34547   0.25576   0.08515   0.00000  Uiso   1.00
H325   H     0.32957   0.27389   0.03942   0.00000  Uiso   1.00
H326   H     0.30813   0.21239   0.01920   0.00000  Uiso   1.00
H327   H     0.28807   0.22541   0.06500   0.00000  Uiso   1.00
H328   H     0.32512   0.19285   0.06419   0.00000  Uiso   1.00
H329   H     0.28647   0.12851   0.92928   0.00000  Uiso   1.00
H330   H     0.30262   0.08513   0.94538   0.00000  Uiso   1.00
H331   H     0.28601   0.15111   0.99925   0.00000  Uiso   1.00
H332   H     0.30704   0.10861   0.01353   0.00000  Uiso   1.00
H333   H     0.35956   0.12133   0.96829   0.00000  Uiso   1.00
H334   H     0.47331   0.37646   0.50566   0.00000  Uiso   1.00
H335   H     0.35416   0.15608   0.00502   0.00000  Uiso   1.00
H336   H     0.33900   0.16490   0.95602   0.00000  Uiso   1.00
H337   H     0.31648   0.41768   0.05365   0.00000  Uiso   1.00
H338   H     0.31279   0.39117   0.00908   0.00000  Uiso   1.00
H339   H     0.29847   0.36195   0.09177   0.00000  Uiso   1.00
H340   H     0.29674   0.33595   0.04733   0.00000  Uiso   1.00
H341   H     0.36298   0.34840   0.03580   0.00000  Uiso   1.00
H342   H     0.35593   0.32747   0.08268   0.00000  Uiso   1.00
H343   H     0.36489   0.37579   0.07961   0.00000  Uiso   1.00
H344   H     0.42699   0.32622   0.93831   0.00000  Uiso   1.00
O345   O     0.25000   0.00000   0.25000   0.00000  Uiso   1.00
O346   O     0.25000   0.46964   0.66245   0.00000  Uiso   1.00
O347   O     0.46964   0.25000   0.33755   0.00000  Uiso   1.00
O348   O     0.03037   0.25000   0.66245   0.00000  Uiso   1.00
O349   O     0.00000   0.21964   0.83755   0.00000  Uiso   1.00
O350   O     0.00000   0.28037   0.16245   0.00000  Uiso   1.00
O351   O     0.28037   0.00000   0.83755   0.00000  Uiso   1.00
O352   O     0.21964   0.00000   0.16245   0.00000  Uiso   1.00
O353   O     0.00000   0.28037   0.83755   0.00000  Uiso   1.00
O354   O     0.00000   0.21964   0.16245   0.00000  Uiso   1.00
O355   O     0.21964   0.00000   0.83755   0.00000  Uiso   1.00
O356   O     0.25000   0.00000   0.75000   0.00000  Uiso   1.00
O357   O     0.28037   0.00000   0.16245   0.00000  Uiso   1.00
O358   O     0.20725   0.07308   0.27302   0.00000  Uiso   1.00
O359   O     0.29276   0.42693   0.72698   0.00000  Uiso   1.00
O360   O     0.42693   0.20725   0.27302   0.00000  Uiso   1.00
O361   O     0.07308   0.29276   0.72698   0.00000  Uiso   1.00
O362   O     0.29276   0.42693   0.27302   0.00000  Uiso   1.00
O363   O     0.20725   0.07308   0.72698   0.00000  Uiso   1.00
O364   O     0.07308   0.29276   0.27302   0.00000  Uiso   1.00
O365   O     0.42693   0.20725   0.72698   0.00000  Uiso   1.00
O366   O     0.20725   0.42693   0.72698   0.00000  Uiso   1.00
O367   O     0.00000   0.25000   0.25000   0.00000  Uiso   1.00
O368   O     0.29276   0.07308   0.27302   0.00000  Uiso   1.00
O369   O     0.42693   0.29276   0.72698   0.00000  Uiso   1.00
O370   O     0.07308   0.20725   0.27302   0.00000  Uiso   1.00
O371   O     0.29276   0.07308   0.72698   0.00000  Uiso   1.00
O372   O     0.20725   0.42693   0.27302   0.00000  Uiso   1.00
O373   O     0.07308   0.20725   0.72698   0.00000  Uiso   1.00
O374   O     0.42693   0.29276   0.27302   0.00000  Uiso   1.00
O375   O     0.45725   0.32308   0.77302   0.00000  Uiso   1.00
O376   O     0.04276   0.17693   0.22698   0.00000  Uiso   1.00
O377   O     0.17693   0.45725   0.77302   0.00000  Uiso   1.00
O378   O     0.00000   0.25000   0.75000   0.00000  Uiso   1.00
O379   O     0.32308   0.04276   0.22698   0.00000  Uiso   1.00
O380   O     0.04276   0.17693   0.77302   0.00000  Uiso   1.00
O381   O     0.45725   0.32308   0.22698   0.00000  Uiso   1.00
O382   O     0.32308   0.04276   0.77302   0.00000  Uiso   1.00
O383   O     0.17693   0.45725   0.22698   0.00000  Uiso   1.00
O384   O     0.45725   0.17693   0.22698   0.00000  Uiso   1.00
O385   O     0.04276   0.32308   0.77302   0.00000  Uiso   1.00
O386   O     0.17693   0.04276   0.22698   0.00000  Uiso   1.00
O387   O     0.32308   0.45725   0.77302   0.00000  Uiso   1.00
O388   O     0.04276   0.32308   0.22698   0.00000  Uiso   1.00
O389   O     0.25000   0.46964   0.33755   0.00000  Uiso   1.00
O390   O     0.45725   0.17693   0.77302   0.00000  Uiso   1.00
O391   O     0.32308   0.45725   0.22698   0.00000  Uiso   1.00
O392   O     0.17693   0.04276   0.77302   0.00000  Uiso   1.00
O393   O     0.47759   0.15234   0.46070   0.00000  Uiso   1.00
O394   O     0.01358   0.34991   0.53812   0.00000  Uiso   1.00
O395   O     0.34834   0.48048   0.46104   0.00000  Uiso   1.00
O396   O     0.14974   0.00955   0.53811   0.00000  Uiso   1.00
O397   O     0.02242   0.34766   0.46070   0.00000  Uiso   1.00
O398   O     0.48644   0.15009   0.53812   0.00000  Uiso   1.00
O399   O     0.15166   0.01951   0.46104   0.00000  Uiso   1.00
O400   O     0.25000   0.03037   0.66245   0.00000  Uiso   1.00
O401   O     0.35026   0.49045   0.53812   0.00000  Uiso   1.00
O402   O     0.25102   0.39932   0.96199   0.00000  Uiso   1.00
O403   O     0.23606   0.09952   0.03856   0.00000  Uiso   1.00
O404   O     0.09598   0.22118   0.96089   0.00000  Uiso   1.00
O405   O     0.40133   0.27066   0.03822   0.00000  Uiso   1.00
O406   O     0.24896   0.10068   0.96199   0.00000  Uiso   1.00
O407   O     0.26392   0.40048   0.03857   0.00000  Uiso   1.00
O408   O     0.40402   0.27882   0.96088   0.00000  Uiso   1.00
O409   O     0.09867   0.22934   0.03822   0.00000  Uiso   1.00
O410   O     0.03037   0.25000   0.33755   0.00000  Uiso   1.00
O411   O     0.46964   0.25000   0.66245   0.00000  Uiso   1.00
O412   O     0.25000   0.03037   0.33755   0.00000  Uiso   1.00
Zn413  Zn    0.20660   0.00000   0.21735   0.00000  Uiso   1.00
Zn414  Zn    0.04341   0.25000   0.28265   0.00000  Uiso   1.00
Zn415  Zn    0.25000   0.45660   0.71735   0.00000  Uiso   1.00
Zn416  Zn    0.25000   0.04341   0.28265   0.00000  Uiso   1.00
Zn417  Zn    0.04341   0.25000   0.71735   0.00000  Uiso   1.00
Zn418  Zn    0.45660   0.25000   0.28265   0.00000  Uiso   1.00
Zn419  Zn    0.25000   0.04341   0.71735   0.00000  Uiso   1.00
Zn420  Zn    0.25000   0.45660   0.28265   0.00000  Uiso   1.00
Zn421  Zn    0.29341   0.00000   0.78265   0.00000  Uiso   1.00
Zn422  Zn    0.00000   0.20660   0.21735   0.00000  Uiso   1.00
Zn423  Zn    0.00000   0.29341   0.78265   0.00000  Uiso   1.00
Zn424  Zn    0.29341   0.00000   0.21735   0.00000  Uiso   1.00
Zn425  Zn    0.20660   0.00000   0.78265   0.00000  Uiso   1.00
Zn426  Zn    0.00000   0.29341   0.21735   0.00000  Uiso   1.00
Zn427  Zn    0.00000   0.20660   0.78265   0.00000  Uiso   1.00
Zn428  Zn    0.45660   0.25000   0.71735   0.00000  Uiso   1.00
C429   C     0.50128   0.28328   0.41766   0.00000  Uiso   1.00
C430   C     0.75098   0.46664   0.08240   0.00000  Uiso   1.00
C431   C     0.71645   0.00439   0.54112   0.00000  Uiso   1.00
C432   C     0.50448   0.28336   0.45856   0.00000  Uiso   1.00
C433   C     0.99551   0.21637   0.54109   0.00000  Uiso   1.00
C434   C     0.71651   0.00365   0.45860   0.00000  Uiso   1.00
C435   C     0.78355   0.49561   0.54112   0.00000  Uiso   1.00
C436   C     0.75254   0.46633   0.95884   0.00000  Uiso   1.00
C437   C     0.74703   0.03365   0.04136   0.00000  Uiso   1.00
C438   C     0.53293   0.24283   0.95855   0.00000  Uiso   1.00
C439   C     0.96666   0.25628   0.04113   0.00000  Uiso   1.00
C440   C     0.74746   0.03367   0.95884   0.00000  Uiso   1.00
C441   C     0.96700   0.25470   0.91757   0.00000  Uiso   1.00
C442   C     0.75296   0.46635   0.04136   0.00000  Uiso   1.00
C443   C     0.96707   0.25717   0.95855   0.00000  Uiso   1.00
C444   C     0.53334   0.24373   0.04113   0.00000  Uiso   1.00
C445   C     0.59809   0.34804   0.25001   0.00000  Uiso   1.00
C446   C     0.90189   0.15192   0.75002   0.00000  Uiso   1.00
C447   C     0.65193   0.09804   0.25004   0.00000  Uiso   1.00
C448   C     0.84814   0.40189   0.75003   0.00000  Uiso   1.00
C449   C     0.90191   0.15196   0.25001   0.00000  Uiso   1.00
C450   C     0.59811   0.34808   0.75002   0.00000  Uiso   1.00
C451   C     0.84807   0.40196   0.25004   0.00000  Uiso   1.00
C452   C     0.53287   0.24399   0.08229   0.00000  Uiso   1.00
C453   C     0.65186   0.09811   0.75003   0.00000  Uiso   1.00
C454   C     0.59800   0.15194   0.75004   0.00000  Uiso   1.00
C455   C     0.90191   0.34812   0.25001   0.00000  Uiso   1.00
C456   C     0.65197   0.40193   0.75007   0.00000  Uiso   1.00
C457   C     0.84807   0.09810   0.25001   0.00000  Uiso   1.00
C458   C     0.90200   0.34806   0.75004   0.00000  Uiso   1.00
C459   C     0.59809   0.15188   0.25001   0.00000  Uiso   1.00
C460   C     0.84803   0.09807   0.75007   0.00000  Uiso   1.00
C461   C     0.65193   0.40190   0.25001   0.00000  Uiso   1.00
C462   C     0.50000   0.25000   0.47925   0.00000  Uiso   1.00
C463   C     0.75494   0.46701   0.91783   0.00000  Uiso   1.00
C464   C     0.50000   0.25000   0.52052   0.00000  Uiso   1.00
C465   C     0.75000   0.00000   0.47926   0.00000  Uiso   1.00
C466   C     0.75000   0.00000   0.52053   0.00000  Uiso   1.00
C467   C     0.75000  -0.00000   0.97946   0.00000  Uiso   1.00
C468   C     0.75000  -0.00000   0.02074   0.00000  Uiso   1.00
C469   C     0.50000   0.25000   0.97924   0.00000  Uiso   1.00
C470   C     0.50000   0.25000   0.02054   0.00000  Uiso   1.00
C471   C     0.93960   0.15329   0.45241   0.00000  Uiso   1.00
C472   C     0.91908   0.12765   0.47993   0.00000  Uiso   1.00
C473   C     0.87899   0.12378   0.46836   0.00000  Uiso   1.00
C474   C     0.74902   0.03336   0.08239   0.00000  Uiso   1.00
C475   C     0.98048   0.36980   0.53630   0.00000  Uiso   1.00
C476   C     0.98520   0.40559   0.55868   0.00000  Uiso   1.00
C477   C     0.95016   0.42814   0.55879   0.00000  Uiso   1.00
C478   C     0.84890   0.44221   0.45418   0.00000  Uiso   1.00
C479   C     0.88133   0.42518   0.47553   0.00000  Uiso   1.00
C480   C     0.88515   0.38460   0.46607   0.00000  Uiso   1.00
C481   C     0.63489   0.47395   0.54090   0.00000  Uiso   1.00
C482   C     0.59925   0.47568   0.56406   0.00000  Uiso   1.00
C483   C     0.58454   0.43758   0.57306   0.00000  Uiso   1.00
C484   C     0.56041   0.34670   0.45241   0.00000  Uiso   1.00
C485   C     0.53300   0.24530   0.91758   0.00000  Uiso   1.00
C486   C     0.58093   0.37235   0.47993   0.00000  Uiso   1.00
C487   C     0.62102   0.37621   0.46836   0.00000  Uiso   1.00
C488   C     0.51954   0.13021   0.53631   0.00000  Uiso   1.00
C489   C     0.51482   0.09442   0.55869   0.00000  Uiso   1.00
C490   C     0.54987   0.07187   0.55881   0.00000  Uiso   1.00
C491   C     0.65109   0.05778   0.45416   0.00000  Uiso   1.00
C492   C     0.61869   0.07482   0.47555   0.00000  Uiso   1.00
C493   C     0.61487   0.11540   0.46608   0.00000  Uiso   1.00
C494   C     0.86511   0.02605   0.54090   0.00000  Uiso   1.00
C495   C     0.90076   0.02431   0.56406   0.00000  Uiso   1.00
C496   C     0.96713   0.25601   0.08229   0.00000  Uiso   1.00
C497   C     0.91547   0.06241   0.57305   0.00000  Uiso   1.00
C498   C     0.71390   0.39065   0.95434   0.00000  Uiso   1.00
C499   C     0.69613   0.37161   0.98928   0.00000  Uiso   1.00
C500   C     0.65851   0.35642   0.97887   0.00000  Uiso   1.00
C501   C     0.69789   0.10548   0.03925   0.00000  Uiso   1.00
C502   C     0.68994   0.14049   0.06196   0.00000  Uiso   1.00
C503   C     0.64892   0.14750   0.06517   0.00000  Uiso   1.00
C504   C     0.59486   0.18262   0.95883   0.00000  Uiso   1.00
C505   C     0.63176   0.16880   0.94405   0.00000  Uiso   1.00
C506   C     0.63214   0.12725   0.94010   0.00000  Uiso   1.00
C507   C     0.50000   0.25000   0.39783   0.00000  Uiso   1.00
C508   C     0.87791   0.23999   0.03511   0.00000  Uiso   1.00
C509   C     0.84123   0.24937   0.05389   0.00000  Uiso   1.00
C510   C     0.81404   0.21793   0.05031   0.00000  Uiso   1.00
C511   C     0.78608   0.10935   0.95434   0.00000  Uiso   1.00
C512   C     0.80385   0.12840   0.98928   0.00000  Uiso   1.00
C513   C     0.84148   0.14359   0.97888   0.00000  Uiso   1.00
C514   C     0.80208   0.39447   0.03920   0.00000  Uiso   1.00
C515   C     0.81004   0.35952   0.06202   0.00000  Uiso   1.00
C516   C     0.85105   0.35245   0.06513   0.00000  Uiso   1.00
C517   C     0.90513   0.31738   0.95882   0.00000  Uiso   1.00
C518   C     0.50000   0.25000   0.60197   0.00000  Uiso   1.00
C519   C     0.86824   0.33120   0.94402   0.00000  Uiso   1.00
C520   C     0.86785   0.37275   0.94009   0.00000  Uiso   1.00
C521   C     0.62208   0.26002   0.03511   0.00000  Uiso   1.00
C522   C     0.65877   0.25065   0.05390   0.00000  Uiso   1.00
C523   C     0.68596   0.28209   0.05032   0.00000  Uiso   1.00
C524   C     0.75000   0.00000   0.39786   0.00000  Uiso   1.00
C525   C     0.99502   0.21696   0.58224   0.00000  Uiso   1.00
C526   C     0.75000   0.00000   0.60198   0.00000  Uiso   1.00
C527   C     0.75000  -0.00000   0.89800   0.00000  Uiso   1.00
C528   C     0.75000   0.00000   0.10214   0.00000  Uiso   1.00
C529   C     0.50000   0.25000   0.89780   0.00000  Uiso   1.00
C530   C     0.50000   0.25000   0.10200   0.00000  Uiso   1.00
C531   C     0.98811   0.18422   0.47933   0.00000  Uiso   1.00
C532   C     0.50890   0.31658   0.51979   0.00000  Uiso   1.00
C533   C     0.81612   0.49008   0.47947   0.00000  Uiso   1.00
C534   C     0.68336   0.00740   0.51991   0.00000  Uiso   1.00
C535   C     0.51190   0.31578   0.47933   0.00000  Uiso   1.00
C536   C     0.71668   0.00057   0.41769   0.00000  Uiso   1.00
C537   C     0.99111   0.18342   0.51979   0.00000  Uiso   1.00
C538   C     0.68388   0.00992   0.47947   0.00000  Uiso   1.00
C539   C     0.81664   0.49260   0.51991   0.00000  Uiso   1.00
C540   C     0.75322   0.43312   0.97996   0.00000  Uiso   1.00
C541   C     0.74277   0.06654   0.02025   0.00000  Uiso   1.00
C542   C     0.56476   0.23348   0.97943   0.00000  Uiso   1.00
C543   C     0.93412   0.26307   0.01987   0.00000  Uiso   1.00
C544   C     0.74677   0.06687   0.97996   0.00000  Uiso   1.00
C545   C     0.75722   0.43345   0.02026   0.00000  Uiso   1.00
C546   C     0.93523   0.26652   0.97943   0.00000  Uiso   1.00
C547   C     0.78279   0.49380   0.58219   0.00000  Uiso   1.00
C548   C     0.56587   0.23693   0.01988   0.00000  Uiso   1.00
C549   C     0.75000   0.00000   0.35570   0.00000  Uiso   1.00
C550   C     0.75000   0.00000   0.64426   0.00000  Uiso   1.00
C551   C     0.50000   0.25000   0.35569   0.00000  Uiso   1.00
C552   C     0.50000   0.25000   0.64427   0.00000  Uiso   1.00
C553   C     0.50000   0.25000   0.85567   0.00000  Uiso   1.00
C554   C     0.50000   0.25000   0.14428   0.00000  Uiso   1.00
C555   C     0.75000  -0.00000   0.85574   0.00000  Uiso   1.00
C556   C     0.75000   0.00000   0.14431   0.00000  Uiso   1.00
C557   C     0.67998   0.06999   0.25002   0.00000  Uiso   1.00
C558   C     0.99872   0.21672   0.41766   0.00000  Uiso   1.00
C559   C     0.82003   0.42997   0.75001   0.00000  Uiso   1.00
C560   C     0.92999   0.18000   0.25000   0.00000  Uiso   1.00
C561   C     0.57001   0.32002   0.74999   0.00000  Uiso   1.00
C562   C     0.82002   0.43001   0.25002   0.00000  Uiso   1.00
C563   C     0.67997   0.07003   0.75001   0.00000  Uiso   1.00
C564   C     0.57001   0.32000   0.25000   0.00000  Uiso   1.00
C565   C     0.92999   0.17998   0.74999   0.00000  Uiso   1.00
C566   C     0.68002   0.42997   0.75005   0.00000  Uiso   1.00
C567   C     0.82001   0.07001   0.25001   0.00000  Uiso   1.00
C568   C     0.93000   0.31999   0.75002   0.00000  Uiso   1.00
C569   C     0.50498   0.28304   0.58224   0.00000  Uiso   1.00
C570   C     0.57002   0.17998   0.24999   0.00000  Uiso   1.00
C571   C     0.81998   0.07003   0.75005   0.00000  Uiso   1.00
C572   C     0.67999   0.42999   0.25001   0.00000  Uiso   1.00
C573   C     0.57000   0.18001   0.75002   0.00000  Uiso   1.00
C574   C     0.92998   0.32002   0.24999   0.00000  Uiso   1.00
C575   C     0.64241   0.38455   0.21492   0.00000  Uiso   1.00
C576   C     0.85729   0.11568   0.78508   0.00000  Uiso   1.00
C577   C     0.61503   0.14191   0.21484   0.00000  Uiso   1.00
C578   C     0.88552   0.35843   0.78532   0.00000  Uiso   1.00
C579   C     0.85758   0.11545   0.21492   0.00000  Uiso   1.00
C580   C     0.78332   0.49943   0.41769   0.00000  Uiso   1.00
C581   C     0.64271   0.38432   0.78509   0.00000  Uiso   1.00
C582   C     0.88497   0.35810   0.21484   0.00000  Uiso   1.00
C583   C     0.61448   0.14157   0.78532   0.00000  Uiso   1.00
C584   C     0.64138   0.11454   0.78532   0.00000  Uiso   1.00
C585   C     0.85795   0.38502   0.21485   0.00000  Uiso   1.00
C586   C     0.61568   0.35734   0.78506   0.00000  Uiso   1.00
C587   C     0.88455   0.14248   0.21492   0.00000  Uiso   1.00
C588   C     0.85862   0.38546   0.78532   0.00000  Uiso   1.00
C589   C     0.64205   0.11498   0.21485   0.00000  Uiso   1.00
C590   C     0.88432   0.14266   0.78506   0.00000  Uiso   1.00
C591   C     0.71721   0.00620   0.58219   0.00000  Uiso   1.00
C592   C     0.61545   0.35752   0.21492   0.00000  Uiso   1.00
C593   C     0.89257   0.13431   0.71502   0.00000  Uiso   1.00
C594   C     0.60763   0.36534   0.28511   0.00000  Uiso   1.00
C595   C     0.86467   0.39149   0.71477   0.00000  Uiso   1.00
C596   C     0.63497   0.10794   0.28522   0.00000  Uiso   1.00
C597   C     0.60743   0.36569   0.71502   0.00000  Uiso   1.00
C598   C     0.89237   0.13466   0.28511   0.00000  Uiso   1.00
C599   C     0.63532   0.10851   0.71477   0.00000  Uiso   1.00
C600   C     0.86503   0.39206   0.28522   0.00000  Uiso   1.00
C601   C     0.89199   0.36504   0.28521   0.00000  Uiso   1.00
C602   C     0.74506   0.03298   0.91783   0.00000  Uiso   1.00
C603   C     0.60824   0.13537   0.71479   0.00000  Uiso   1.00
C604   C     0.86536   0.10769   0.28511   0.00000  Uiso   1.00
C605   C     0.63437   0.39273   0.71505   0.00000  Uiso   1.00
C606   C     0.60801   0.13495   0.28521   0.00000  Uiso   1.00
C607   C     0.89176   0.36463   0.71479   0.00000  Uiso   1.00
C608   C     0.63465   0.39231   0.28511   0.00000  Uiso   1.00
C609   C     0.86563   0.10727   0.71505   0.00000  Uiso   1.00
C610   C     0.99553   0.21664   0.45856   0.00000  Uiso   1.00
C611   C     0.50450   0.28363   0.54109   0.00000  Uiso   1.00
C612   C     0.78349   0.49635   0.45860   0.00000  Uiso   1.00
Cl613  Cl    0.66538   0.39532   0.17106   0.00000  Uiso   1.00
Cl614  Cl    0.83537   0.39617   0.17084   0.00000  Uiso   1.00
Cl615  Cl    0.60516   0.33404   0.82880   0.00000  Uiso   1.00
Cl616  Cl    0.89521   0.16561   0.17110   0.00000  Uiso   1.00
Cl617  Cl    0.83706   0.39737   0.82958   0.00000  Uiso   1.00
Cl618  Cl    0.66463   0.10384   0.17084   0.00000  Uiso   1.00
Cl619  Cl    0.89485   0.16596   0.82880   0.00000  Uiso   1.00
Cl620  Cl    0.60479   0.33439   0.17110   0.00000  Uiso   1.00
Cl621  Cl    0.91568   0.14478   0.67122   0.00000  Uiso   1.00
Cl622  Cl    0.58469   0.35451   0.32900   0.00000  Uiso   1.00
Cl623  Cl    0.85290   0.41316   0.67056   0.00000  Uiso   1.00
Cl624  Cl    0.83396   0.10524   0.82884   0.00000  Uiso   1.00
Cl625  Cl    0.64613   0.08540   0.32924   0.00000  Uiso   1.00
Cl626  Cl    0.58432   0.35522   0.67122   0.00000  Uiso   1.00
Cl627  Cl    0.91531   0.14549   0.32900   0.00000  Uiso   1.00
Cl628  Cl    0.64709   0.08684   0.67056   0.00000  Uiso   1.00
Cl629  Cl    0.85387   0.41459   0.32924   0.00000  Uiso   1.00
Cl630  Cl    0.91442   0.35379   0.32924   0.00000  Uiso   1.00
Cl631  Cl    0.58594   0.14678   0.67068   0.00000  Uiso   1.00
Cl632  Cl    0.85448   0.08486   0.32902   0.00000  Uiso   1.00
Cl633  Cl    0.64476   0.41621   0.67136   0.00000  Uiso   1.00
Cl634  Cl    0.58558   0.14620   0.32924   0.00000  Uiso   1.00
Cl635  Cl    0.60377   0.16418   0.17076   0.00000  Uiso   1.00
Cl636  Cl    0.91406   0.35322   0.67068   0.00000  Uiso   1.00
Cl637  Cl    0.64552   0.41514   0.32902   0.00000  Uiso   1.00
Cl638  Cl    0.85524   0.08378   0.67136   0.00000  Uiso   1.00
Cl639  Cl    0.99588   0.32402   0.39005   0.00000  Uiso   1.00
Cl640  Cl    0.98785   0.17733   0.61123   0.00000  Uiso   1.00
Cl641  Cl    0.67606   0.49450   0.39004   0.00000  Uiso   1.00
Cl642  Cl    0.82174   0.48272   0.61071   0.00000  Uiso   1.00
Cl643  Cl    0.50413   0.17598   0.39005   0.00000  Uiso   1.00
Cl644  Cl    0.51214   0.32267   0.61123   0.00000  Uiso   1.00
Cl645  Cl    0.82395   0.00550   0.39004   0.00000  Uiso   1.00
Cl646  Cl    0.89725   0.33651   0.82953   0.00000  Uiso   1.00
Cl647  Cl    0.67826   0.01729   0.61071   0.00000  Uiso   1.00
Cl648  Cl    0.73399   0.07227   0.88981   0.00000  Uiso   1.00
Cl649  Cl    0.74731   0.42612   0.11075   0.00000  Uiso   1.00
Cl650  Cl    0.92609   0.25452   0.88957   0.00000  Uiso   1.00
Cl651  Cl    0.57254   0.23710   0.11131   0.00000  Uiso   1.00
Cl652  Cl    0.76601   0.42773   0.88982   0.00000  Uiso   1.00
Cl653  Cl    0.75270   0.07388   0.11074   0.00000  Uiso   1.00
Cl654  Cl    0.57391   0.24548   0.88958   0.00000  Uiso   1.00
Cl655  Cl    0.92746   0.26291   0.11131   0.00000  Uiso   1.00
Cl656  Cl    0.83461   0.10468   0.17106   0.00000  Uiso   1.00
Cl657  Cl    0.66604   0.39476   0.82884   0.00000  Uiso   1.00
Cl658  Cl    0.89624   0.33583   0.17076   0.00000  Uiso   1.00
Cl659  Cl    0.60276   0.16349   0.82953   0.00000  Uiso   1.00
Cl660  Cl    0.66295   0.10263   0.82958   0.00000  Uiso   1.00
H661   H     0.93579   0.14331   0.42218   0.00000  Uiso   1.00
H662   H     0.99313   0.39957   0.58920   0.00000  Uiso   1.00
H663   H     0.91038   0.32979   0.98791   0.00000  Uiso   1.00
H664   H     0.86234   0.31878   0.91520   0.00000  Uiso   1.00
H665   H     0.84638   0.32273   0.96461   0.00000  Uiso   1.00
H666   H     0.87361   0.38581   0.96859   0.00000  Uiso   1.00
H667   H     0.84050   0.38183   0.92995   0.00000  Uiso   1.00
H668   H     0.88866   0.38172   0.91858   0.00000  Uiso   1.00
H669   H     0.60999   0.28396   0.05046   0.00000  Uiso   1.00
H670   H     0.62711   0.26754   0.00420   0.00000  Uiso   1.00
H671   H     0.65453   0.24426   0.08516   0.00000  Uiso   1.00
H672   H     0.67043   0.22612   0.03944   0.00000  Uiso   1.00
H673   H     0.50736   0.42192   0.54500   0.00000  Uiso   1.00
H674   H     0.69186   0.28762   0.01921   0.00000  Uiso   1.00
H675   H     0.71193   0.27460   0.06501   0.00000  Uiso   1.00
H676   H     0.67488   0.30716   0.06420   0.00000  Uiso   1.00
H677   H     0.94338   0.43689   0.52877   0.00000  Uiso   1.00
H678   H     0.95414   0.45291   0.57695   0.00000  Uiso   1.00
H679   H     0.92710   0.41204   0.57100   0.00000  Uiso   1.00
H680   H     0.85254   0.43773   0.42247   0.00000  Uiso   1.00
H681   H     0.82333   0.42747   0.46276   0.00000  Uiso   1.00
H682   H     0.90687   0.43956   0.46697   0.00000  Uiso   1.00
H683   H     0.87742   0.42838   0.50737   0.00000  Uiso   1.00
H684   H     0.85997   0.36962   0.47456   0.00000  Uiso   1.00
H685   H     0.92720   0.18120   0.45357   0.00000  Uiso   1.00
H686   H     0.90857   0.37299   0.48243   0.00000  Uiso   1.00
H687   H     0.89016   0.38073   0.43448   0.00000  Uiso   1.00
H688   H     0.65422   0.45523   0.55618   0.00000  Uiso   1.00
H689   H     0.62885   0.46279   0.51145   0.00000  Uiso   1.00
H690   H     0.60398   0.49030   0.59192   0.00000  Uiso   1.00
H691   H     0.57849   0.49111   0.54712   0.00000  Uiso   1.00
H692   H     0.57806   0.42293   0.54572   0.00000  Uiso   1.00
H693   H     0.55923   0.43992   0.59068   0.00000  Uiso   1.00
H694   H     0.60493   0.42157   0.58985   0.00000  Uiso   1.00
H695   H     0.56422   0.35668   0.42218   0.00000  Uiso   1.00
H696   H     0.93215   0.10023   0.47933   0.00000  Uiso   1.00
H697   H     0.57281   0.31879   0.45358   0.00000  Uiso   1.00
H698   H     0.56786   0.39977   0.47933   0.00000  Uiso   1.00
H699   H     0.57948   0.36145   0.51002   0.00000  Uiso   1.00
H700   H     0.63471   0.34912   0.46887   0.00000  Uiso   1.00
H701   H     0.63514   0.39457   0.48923   0.00000  Uiso   1.00
H702   H     0.62332   0.38815   0.43877   0.00000  Uiso   1.00
H703   H     0.54229   0.14612   0.54975   0.00000  Uiso   1.00
H704   H     0.52671   0.12354   0.50567   0.00000  Uiso   1.00
H705   H     0.50689   0.10044   0.58921   0.00000  Uiso   1.00
H706   H     0.99267   0.07808   0.54501   0.00000  Uiso   1.00
H707   H     0.92053   0.13855   0.51002   0.00000  Uiso   1.00
H708   H     0.55666   0.06312   0.52879   0.00000  Uiso   1.00
H709   H     0.54590   0.04710   0.57698   0.00000  Uiso   1.00
H710   H     0.57293   0.08798   0.57101   0.00000  Uiso   1.00
H711   H     0.64741   0.06225   0.42246   0.00000  Uiso   1.00
H712   H     0.67668   0.07252   0.46270   0.00000  Uiso   1.00
H713   H     0.59314   0.06044   0.46703   0.00000  Uiso   1.00
H714   H     0.62264   0.07163   0.50739   0.00000  Uiso   1.00
H715   H     0.64006   0.13038   0.47453   0.00000  Uiso   1.00
H716   H     0.59147   0.12702   0.48248   0.00000  Uiso   1.00
H717   H     0.60982   0.11926   0.43450   0.00000  Uiso   1.00
H718   H     0.86530   0.15087   0.46887   0.00000  Uiso   1.00
H719   H     0.84579   0.04477   0.55618   0.00000  Uiso   1.00
H720   H     0.87115   0.03720   0.51145   0.00000  Uiso   1.00
H721   H     0.89603   0.00968   0.59192   0.00000  Uiso   1.00
H722   H     0.92151   0.00888   0.54712   0.00000  Uiso   1.00
H723   H     0.92195   0.07706   0.54571   0.00000  Uiso   1.00
H724   H     0.94079   0.06007   0.59067   0.00000  Uiso   1.00
H725   H     0.89509   0.07842   0.58985   0.00000  Uiso   1.00
H726   H     0.71351   0.37150   0.92927   0.00000  Uiso   1.00
H727   H     0.69737   0.41488   0.94538   0.00000  Uiso   1.00
H728   H     0.71397   0.34889   0.99924   0.00000  Uiso   1.00
H729   H     0.86487   0.10542   0.48923   0.00000  Uiso   1.00
H730   H     0.69294   0.39139   0.01353   0.00000  Uiso   1.00
H731   H     0.64042   0.37867   0.96829   0.00000  Uiso   1.00
H732   H     0.64582   0.34393   0.00502   0.00000  Uiso   1.00
H733   H     0.66098   0.33511   0.95601   0.00000  Uiso   1.00
H734   H     0.68356   0.08229   0.05382   0.00000  Uiso   1.00
H735   H     0.68711   0.10866   0.00914   0.00000  Uiso   1.00
H736   H     0.70160   0.13819   0.09169   0.00000  Uiso   1.00
H737   H     0.70316   0.16404   0.04713   0.00000  Uiso   1.00
H738   H     0.63690   0.15142   0.03585   0.00000  Uiso   1.00
H739   H     0.64404   0.17254   0.08262   0.00000  Uiso   1.00
H740   H     0.87669   0.11184   0.43877   0.00000  Uiso   1.00
H741   H     0.63516   0.12418   0.07979   0.00000  Uiso   1.00
H742   H     0.57302   0.17378   0.93830   0.00000  Uiso   1.00
H743   H     0.58960   0.17020   0.98791   0.00000  Uiso   1.00
H744   H     0.63768   0.18123   0.91524   0.00000  Uiso   1.00
H745   H     0.65361   0.17725   0.96466   0.00000  Uiso   1.00
H746   H     0.62635   0.11417   0.96858   0.00000  Uiso   1.00
H747   H     0.65950   0.11817   0.92998   0.00000  Uiso   1.00
H748   H     0.61135   0.11830   0.91856   0.00000  Uiso   1.00
H749   H     0.89000   0.21604   0.05046   0.00000  Uiso   1.00
H750   H     0.87289   0.23247   0.00419   0.00000  Uiso   1.00
H751   H     0.95772   0.35390   0.54974   0.00000  Uiso   1.00
H752   H     0.84547   0.25576   0.08515   0.00000  Uiso   1.00
H753   H     0.82957   0.27389   0.03942   0.00000  Uiso   1.00
H754   H     0.80813   0.21239   0.01920   0.00000  Uiso   1.00
H755   H     0.78807   0.22541   0.06500   0.00000  Uiso   1.00
H756   H     0.82512   0.19285   0.06419   0.00000  Uiso   1.00
H757   H     0.78647   0.12851   0.92928   0.00000  Uiso   1.00
H758   H     0.80262   0.08513   0.94538   0.00000  Uiso   1.00
H759   H     0.78601   0.15111   0.99925   0.00000  Uiso   1.00
H760   H     0.80704   0.10861   0.01353   0.00000  Uiso   1.00
H761   H     0.85956   0.12133   0.96829   0.00000  Uiso   1.00
H762   H     0.97331   0.37646   0.50566   0.00000  Uiso   1.00
H763   H     0.85416   0.15608   0.00502   0.00000  Uiso   1.00
H764   H     0.83900   0.16490   0.95602   0.00000  Uiso   1.00
H765   H     0.81648   0.41768   0.05365   0.00000  Uiso   1.00
H766   H     0.81279   0.39117   0.00908   0.00000  Uiso   1.00
H767   H     0.79847   0.36195   0.09177   0.00000  Uiso   1.00
H768   H     0.79674   0.33595   0.04733   0.00000  Uiso   1.00
H769   H     0.86298   0.34840   0.03580   0.00000  Uiso   1.00
H770   H     0.85593   0.32747   0.08268   0.00000  Uiso   1.00
H771   H     0.86489   0.37579   0.07961   0.00000  Uiso   1.00
H772   H     0.92699   0.32622   0.93831   0.00000  Uiso   1.00
O773   O     0.75000   0.00000   0.25000   0.00000  Uiso   1.00
O774   O     0.75000   0.46964   0.66245   0.00000  Uiso   1.00
O775   O     0.96964   0.25000   0.33755   0.00000  Uiso   1.00
O776   O     0.53037   0.25000   0.66245   0.00000  Uiso   1.00
O777   O     0.50000   0.21964   0.83755   0.00000  Uiso   1.00
O778   O     0.50000   0.28037   0.16245   0.00000  Uiso   1.00
O779   O     0.78037   0.00000   0.83755   0.00000  Uiso   1.00
O780   O     0.71964   0.00000   0.16245   0.00000  Uiso   1.00
O781   O     0.50000   0.28037   0.83755   0.00000  Uiso   1.00
O782   O     0.50000   0.21964   0.16245   0.00000  Uiso   1.00
O783   O     0.71964   0.00000   0.83755   0.00000  Uiso   1.00
O784   O     0.75000   0.00000   0.75000   0.00000  Uiso   1.00
O785   O     0.78037   0.00000   0.16245   0.00000  Uiso   1.00
O786   O     0.70725   0.07308   0.27302   0.00000  Uiso   1.00
O787   O     0.79276   0.42693   0.72698   0.00000  Uiso   1.00
O788   O     0.92693   0.20725   0.27302   0.00000  Uiso   1.00
O789   O     0.57308   0.29276   0.72698   0.00000  Uiso   1.00
O790   O     0.79276   0.42693   0.27302   0.00000  Uiso   1.00
O791   O     0.70725   0.07308   0.72698   0.00000  Uiso   1.00
O792   O     0.57308   0.29276   0.27302   0.00000  Uiso   1.00
O793   O     0.92693   0.20725   0.72698   0.00000  Uiso   1.00
O794   O     0.70725   0.42693   0.72698   0.00000  Uiso   1.00
O795   O     0.50000   0.25000   0.25000   0.00000  Uiso   1.00
O796   O     0.79276   0.07308   0.27302   0.00000  Uiso   1.00
O797   O     0.92693   0.29276   0.72698   0.00000  Uiso   1.00
O798   O     0.57308   0.20725   0.27302   0.00000  Uiso   1.00
O799   O     0.79276   0.07308   0.72698   0.00000  Uiso   1.00
O800   O     0.70725   0.42693   0.27302   0.00000  Uiso   1.00
O801   O     0.57308   0.20725   0.72698   0.00000  Uiso   1.00
O802   O     0.92693   0.29276   0.27302   0.00000  Uiso   1.00
O803   O     0.95725   0.32308   0.77302   0.00000  Uiso   1.00
O804   O     0.54276   0.17693   0.22698   0.00000  Uiso   1.00
O805   O     0.67693   0.45725   0.77302   0.00000  Uiso   1.00
O806   O     0.50000   0.25000   0.75000   0.00000  Uiso   1.00
O807   O     0.82308   0.04276   0.22698   0.00000  Uiso   1.00
O808   O     0.54276   0.17693   0.77302   0.00000  Uiso   1.00
O809   O     0.95725   0.32308   0.22698   0.00000  Uiso   1.00
O810   O     0.82308   0.04276   0.77302   0.00000  Uiso   1.00
O811   O     0.67693   0.45725   0.22698   0.00000  Uiso   1.00
O812   O     0.95725   0.17693   0.22698   0.00000  Uiso   1.00
O813   O     0.54276   0.32308   0.77302   0.00000  Uiso   1.00
O814   O     0.67693   0.04276   0.22698   0.00000  Uiso   1.00
O815   O     0.82308   0.45725   0.77302   0.00000  Uiso   1.00
O816   O     0.54276   0.32308   0.22698   0.00000  Uiso   1.00
O817   O     0.75000   0.46964   0.33755   0.00000  Uiso   1.00
O818   O     0.95725   0.17693   0.77302   0.00000  Uiso   1.00
O819   O     0.82308   0.45725   0.22698   0.00000  Uiso   1.00
O820   O     0.67693   0.04276   0.77302   0.00000  Uiso   1.00
O821   O     0.97759   0.15234   0.46070   0.00000  Uiso   1.00
O822   O     0.51358   0.34991   0.53812   0.00000  Uiso   1.00
O823   O     0.84834   0.48048   0.46104   0.00000  Uiso   1.00
O824   O     0.64974   0.00955   0.53811   0.00000  Uiso   1.00
O825   O     0.52242   0.34766   0.46070   0.00000  Uiso   1.00
O826   O     0.98644   0.15009   0.53812   0.00000  Uiso   1.00
O827   O     0.65166   0.01951   0.46104   0.00000  Uiso   1.00
O828   O     0.75000   0.03037   0.66245   0.00000  Uiso   1.00
O829   O     0.85026   0.49045   0.53812   0.00000  Uiso   1.00
O830   O     0.75102   0.39932   0.96199   0.00000  Uiso   1.00
O831   O     0.73606   0.09952   0.03856   0.00000  Uiso   1.00
O832   O     0.59598   0.22118   0.96089   0.00000  Uiso   1.00
O833   O     0.90133   0.27066   0.03822   0.00000  Uiso   1.00
O834   O     0.74896   0.10068   0.96199   0.00000  Uiso   1.00
O835   O     0.76392   0.40048   0.03857   0.00000  Uiso   1.00
O836   O     0.90402   0.27882   0.96088   0.00000  Uiso   1.00
O837   O     0.59867   0.22934   0.03822   0.00000  Uiso   1.00
O838   O     0.53037   0.25000   0.33755   0.00000  Uiso   1.00
O839   O     0.96964   0.25000   0.66245   0.00000  Uiso   1.00
O840   O     0.75000   0.03037   0.33755   0.00000  Uiso   1.00
Zn841  Zn    0.70660   0.00000   0.21735   0.00000  Uiso   1.00
Zn842  Zn    0.54341   0.25000   0.28265   0.00000  Uiso   1.00
Zn843  Zn    0.75000   0.45660   0.71735   0.00000  Uiso   1.00
Zn844  Zn    0.75000   0.04341   0.28265   0.00000  Uiso   1.00
Zn845  Zn    0.54341   0.25000   0.71735   0.00000  Uiso   1.00
Zn846  Zn    0.95660   0.25000   0.28265   0.00000  Uiso   1.00
Zn847  Zn    0.75000   0.04341   0.71735   0.00000  Uiso   1.00
Zn848  Zn    0.75000   0.45660   0.28265   0.00000  Uiso   1.00
Zn849  Zn    0.79341   0.00000   0.78265   0.00000  Uiso   1.00
Zn850  Zn    0.50000   0.20660   0.21735   0.00000  Uiso   1.00
Zn851  Zn    0.50000   0.29341   0.78265   0.00000  Uiso   1.00
Zn852  Zn    0.79341   0.00000   0.21735   0.00000  Uiso   1.00
Zn853  Zn    0.70660   0.00000   0.78265   0.00000  Uiso   1.00
Zn854  Zn    0.50000   0.29341   0.21735   0.00000  Uiso   1.00
Zn855  Zn    0.50000   0.20660   0.78265   0.00000  Uiso   1.00
Zn856  Zn    0.95660   0.25000   0.71735   0.00000  Uiso   1.00
C857   C     0.00128   0.78328   0.41766   0.00000  Uiso   1.00
C858   C     0.25098   0.96664   0.08240   0.00000  Uiso   1.00
C859   C     0.21645   0.50439   0.54112   0.00000  Uiso   1.00
C860   C     0.00448   0.78336   0.45856   0.00000  Uiso   1.00
C861   C     0.49551   0.71637   0.54109   0.00000  Uiso   1.00
C862   C     0.21651   0.50365   0.45860   0.00000  Uiso   1.00
C863   C     0.28355   0.99561   0.54112   0.00000  Uiso   1.00
C864   C     0.25254   0.96633   0.95884   0.00000  Uiso   1.00
C865   C     0.24703   0.53365   0.04136   0.00000  Uiso   1.00
C866   C     0.03293   0.74283   0.95855   0.00000  Uiso   1.00
C867   C     0.46666   0.75628   0.04113   0.00000  Uiso   1.00
C868   C     0.24746   0.53367   0.95884   0.00000  Uiso   1.00
C869   C     0.46700   0.75470   0.91757   0.00000  Uiso   1.00
C870   C     0.25296   0.96635   0.04136   0.00000  Uiso   1.00
C871   C     0.46707   0.75717   0.95855   0.00000  Uiso   1.00
C872   C     0.03334   0.74373   0.04113   0.00000  Uiso   1.00
C873   C     0.09809   0.84804   0.25001   0.00000  Uiso   1.00
C874   C     0.40189   0.65192   0.75002   0.00000  Uiso   1.00
C875   C     0.15193   0.59804   0.25004   0.00000  Uiso   1.00
C876   C     0.34814   0.90189   0.75003   0.00000  Uiso   1.00
C877   C     0.40191   0.65196   0.25001   0.00000  Uiso   1.00
C878   C     0.09811   0.84808   0.75002   0.00000  Uiso   1.00
C879   C     0.34807   0.90196   0.25004   0.00000  Uiso   1.00
C880   C     0.03287   0.74399   0.08229   0.00000  Uiso   1.00
C881   C     0.15186   0.59811   0.75003   0.00000  Uiso   1.00
C882   C     0.09800   0.65194   0.75004   0.00000  Uiso   1.00
C883   C     0.40191   0.84812   0.25001   0.00000  Uiso   1.00
C884   C     0.15197   0.90193   0.75007   0.00000  Uiso   1.00
C885   C     0.34807   0.59810   0.25001   0.00000  Uiso   1.00
C886   C     0.40200   0.84806   0.75004   0.00000  Uiso   1.00
C887   C     0.09809   0.65188   0.25001   0.00000  Uiso   1.00
C888   C     0.34803   0.59807   0.75007   0.00000  Uiso   1.00
C889   C     0.15193   0.90190   0.25001   0.00000  Uiso   1.00
C890   C     0.00000   0.75000   0.47925   0.00000  Uiso   1.00
C891   C     0.25494   0.96701   0.91783   0.00000  Uiso   1.00
C892   C     0.00000   0.75000   0.52052   0.00000  Uiso   1.00
C893   C     0.25000   0.50000   0.47926   0.00000  Uiso   1.00
C894   C     0.25000   0.50000   0.52053   0.00000  Uiso   1.00
C895   C     0.25000   0.50000   0.97946   0.00000  Uiso   1.00
C896   C     0.25000   0.50000   0.02074   0.00000  Uiso   1.00
C897   C    -0.00000   0.75000   0.97924   0.00000  Uiso   1.00
C898   C    -0.00000   0.75000   0.02054   0.00000  Uiso   1.00
C899   C     0.43960   0.65329   0.45241   0.00000  Uiso   1.00
C900   C     0.41908   0.62765   0.47993   0.00000  Uiso   1.00
C901   C     0.37899   0.62378   0.46836   0.00000  Uiso   1.00
C902   C     0.24902   0.53336   0.08239   0.00000  Uiso   1.00
C903   C     0.48048   0.86980   0.53630   0.00000  Uiso   1.00
C904   C     0.48520   0.90559   0.55868   0.00000  Uiso   1.00
C905   C     0.45016   0.92814   0.55879   0.00000  Uiso   1.00
C906   C     0.34890   0.94221   0.45418   0.00000  Uiso   1.00
C907   C     0.38133   0.92518   0.47553   0.00000  Uiso   1.00
C908   C     0.38515   0.88460   0.46607   0.00000  Uiso   1.00
C909   C     0.13489   0.97395   0.54090   0.00000  Uiso   1.00
C910   C     0.09925   0.97568   0.56406   0.00000  Uiso   1.00
C911   C     0.08454   0.93758   0.57306   0.00000  Uiso   1.00
C912   C     0.06041   0.84670   0.45241   0.00000  Uiso   1.00
C913   C     0.03300   0.74530   0.91758   0.00000  Uiso   1.00
C914   C     0.08093   0.87235   0.47993   0.00000  Uiso   1.00
C915   C     0.12102   0.87621   0.46836   0.00000  Uiso   1.00
C916   C     0.01954   0.63021   0.53631   0.00000  Uiso   1.00
C917   C     0.01482   0.59442   0.55869   0.00000  Uiso   1.00
C918   C     0.04987   0.57187   0.55881   0.00000  Uiso   1.00
C919   C     0.15109   0.55778   0.45416   0.00000  Uiso   1.00
C920   C     0.11869   0.57482   0.47555   0.00000  Uiso   1.00
C921   C     0.11487   0.61540   0.46608   0.00000  Uiso   1.00
C922   C     0.36511   0.52605   0.54090   0.00000  Uiso   1.00
C923   C     0.40076   0.52431   0.56406   0.00000  Uiso   1.00
C924   C     0.46713   0.75601   0.08229   0.00000  Uiso   1.00
C925   C     0.41547   0.56241   0.57305   0.00000  Uiso   1.00
C926   C     0.21390   0.89065   0.95434   0.00000  Uiso   1.00
C927   C     0.19613   0.87161   0.98928   0.00000  Uiso   1.00
C928   C     0.15851   0.85642   0.97887   0.00000  Uiso   1.00
C929   C     0.19789   0.60548   0.03925   0.00000  Uiso   1.00
C930   C     0.18994   0.64049   0.06196   0.00000  Uiso   1.00
C931   C     0.14892   0.64750   0.06517   0.00000  Uiso   1.00
C932   C     0.09486   0.68262   0.95883   0.00000  Uiso   1.00
C933   C     0.13176   0.66880   0.94405   0.00000  Uiso   1.00
C934   C     0.13214   0.62725   0.94010   0.00000  Uiso   1.00
C935   C     0.00000   0.75000   0.39783   0.00000  Uiso   1.00
C936   C     0.37791   0.73999   0.03511   0.00000  Uiso   1.00
C937   C     0.34123   0.74937   0.05389   0.00000  Uiso   1.00
C938   C     0.31404   0.71793   0.05031   0.00000  Uiso   1.00
C939   C     0.28608   0.60935   0.95434   0.00000  Uiso   1.00
C940   C     0.30385   0.62840   0.98928   0.00000  Uiso   1.00
C941   C     0.34148   0.64359   0.97888   0.00000  Uiso   1.00
C942   C     0.30208   0.89447   0.03920   0.00000  Uiso   1.00
C943   C     0.31004   0.85952   0.06202   0.00000  Uiso   1.00
C944   C     0.35105   0.85245   0.06513   0.00000  Uiso   1.00
C945   C     0.40513   0.81738   0.95882   0.00000  Uiso   1.00
C946   C    -0.00000   0.75000   0.60197   0.00000  Uiso   1.00
C947   C     0.36824   0.83120   0.94402   0.00000  Uiso   1.00
C948   C     0.36785   0.87275   0.94009   0.00000  Uiso   1.00
C949   C     0.12208   0.76002   0.03511   0.00000  Uiso   1.00
C950   C     0.15877   0.75065   0.05390   0.00000  Uiso   1.00
C951   C     0.18596   0.78209   0.05032   0.00000  Uiso   1.00
C952   C     0.25000   0.50000   0.39786   0.00000  Uiso   1.00
C953   C     0.49502   0.71696   0.58224   0.00000  Uiso   1.00
C954   C     0.25000   0.50000   0.60198   0.00000  Uiso   1.00
C955   C     0.25000   0.50000   0.89800   0.00000  Uiso   1.00
C956   C     0.25000   0.50000   0.10214   0.00000  Uiso   1.00
C957   C     0.00000   0.75000   0.89780   0.00000  Uiso   1.00
C958   C    -0.00000   0.75000   0.10200   0.00000  Uiso   1.00
C959   C     0.48811   0.68422   0.47933   0.00000  Uiso   1.00
C960   C     0.00890   0.81658   0.51979   0.00000  Uiso   1.00
C961   C     0.31612   0.99008   0.47947   0.00000  Uiso   1.00
C962   C     0.18336   0.50740   0.51991   0.00000  Uiso   1.00
C963   C     0.01190   0.81578   0.47933   0.00000  Uiso   1.00
C964   C     0.21668   0.50057   0.41769   0.00000  Uiso   1.00
C965   C     0.49111   0.68342   0.51979   0.00000  Uiso   1.00
C966   C     0.18388   0.50992   0.47947   0.00000  Uiso   1.00
C967   C     0.31664   0.99260   0.51991   0.00000  Uiso   1.00
C968   C     0.25322   0.93312   0.97996   0.00000  Uiso   1.00
C969   C     0.24277   0.56654   0.02025   0.00000  Uiso   1.00
C970   C     0.06476   0.73348   0.97943   0.00000  Uiso   1.00
C971   C     0.43412   0.76307   0.01987   0.00000  Uiso   1.00
C972   C     0.24677   0.56687   0.97996   0.00000  Uiso   1.00
C973   C     0.25722   0.93345   0.02026   0.00000  Uiso   1.00
C974   C     0.43523   0.76652   0.97943   0.00000  Uiso   1.00
C975   C     0.28279   0.99380   0.58219   0.00000  Uiso   1.00
C976   C     0.06587   0.73693   0.01988   0.00000  Uiso   1.00
C977   C     0.25000   0.50000   0.35570   0.00000  Uiso   1.00
C978   C     0.25000   0.50000   0.64426   0.00000  Uiso   1.00
C979   C     0.00000   0.75000   0.35569   0.00000  Uiso   1.00
C980   C    -0.00000   0.75000   0.64427   0.00000  Uiso   1.00
C981   C     0.00000   0.75000   0.85567   0.00000  Uiso   1.00
C982   C    -0.00000   0.75000   0.14428   0.00000  Uiso   1.00
C983   C     0.25000   0.50000   0.85574   0.00000  Uiso   1.00
C984   C     0.25000   0.50000   0.14431   0.00000  Uiso   1.00
C985   C     0.17998   0.56999   0.25002   0.00000  Uiso   1.00
C986   C     0.49872   0.71672   0.41766   0.00000  Uiso   1.00
C987   C     0.32003   0.92997   0.75001   0.00000  Uiso   1.00
C988   C     0.42999   0.68000   0.25000   0.00000  Uiso   1.00
C989   C     0.07001   0.82002   0.74999   0.00000  Uiso   1.00
C990   C     0.32002   0.93001   0.25002   0.00000  Uiso   1.00
C991   C     0.17997   0.57003   0.75001   0.00000  Uiso   1.00
C992   C     0.07001   0.82000   0.25000   0.00000  Uiso   1.00
C993   C     0.42999   0.67998   0.74999   0.00000  Uiso   1.00
C994   C     0.18002   0.92997   0.75005   0.00000  Uiso   1.00
C995   C     0.32001   0.57001   0.25001   0.00000  Uiso   1.00
C996   C     0.43000   0.81999   0.75002   0.00000  Uiso   1.00
C997   C     0.00498   0.78304   0.58224   0.00000  Uiso   1.00
C998   C     0.07002   0.67998   0.24999   0.00000  Uiso   1.00
C999   C     0.31998   0.57003   0.75005   0.00000  Uiso   1.00
C1000  C     0.17999   0.92999   0.25001   0.00000  Uiso   1.00
C1001  C     0.07000   0.68001   0.75002   0.00000  Uiso   1.00
C1002  C     0.42998   0.82002   0.24999   0.00000  Uiso   1.00
C1003  C     0.14241   0.88455   0.21492   0.00000  Uiso   1.00
C1004  C     0.35729   0.61568   0.78508   0.00000  Uiso   1.00
C1005  C     0.11503   0.64191   0.21484   0.00000  Uiso   1.00
C1006  C     0.38552   0.85843   0.78532   0.00000  Uiso   1.00
C1007  C     0.35758   0.61545   0.21492   0.00000  Uiso   1.00
C1008  C     0.28332   0.99943   0.41769   0.00000  Uiso   1.00
C1009  C     0.14271   0.88432   0.78509   0.00000  Uiso   1.00
C1010  C     0.38497   0.85810   0.21484   0.00000  Uiso   1.00
C1011  C     0.11448   0.64157   0.78532   0.00000  Uiso   1.00
C1012  C     0.14138   0.61454   0.78532   0.00000  Uiso   1.00
C1013  C     0.35795   0.88502   0.21485   0.00000  Uiso   1.00
C1014  C     0.11568   0.85734   0.78506   0.00000  Uiso   1.00
C1015  C     0.38455   0.64248   0.21492   0.00000  Uiso   1.00
C1016  C     0.35862   0.88546   0.78532   0.00000  Uiso   1.00
C1017  C     0.14205   0.61498   0.21485   0.00000  Uiso   1.00
C1018  C     0.38432   0.64266   0.78506   0.00000  Uiso   1.00
C1019  C     0.21721   0.50620   0.58219   0.00000  Uiso   1.00
C1020  C     0.11545   0.85752   0.21492   0.00000  Uiso   1.00
C1021  C     0.39257   0.63431   0.71502   0.00000  Uiso   1.00
C1022  C     0.10763   0.86534   0.28511   0.00000  Uiso   1.00
C1023  C     0.36467   0.89149   0.71477   0.00000  Uiso   1.00
C1024  C     0.13497   0.60794   0.28522   0.00000  Uiso   1.00
C1025  C     0.10743   0.86569   0.71502   0.00000  Uiso   1.00
C1026  C     0.39237   0.63466   0.28511   0.00000  Uiso   1.00
C1027  C     0.13532   0.60851   0.71477   0.00000  Uiso   1.00
C1028  C     0.36503   0.89206   0.28522   0.00000  Uiso   1.00
C1029  C     0.39199   0.86504   0.28521   0.00000  Uiso   1.00
C1030  C     0.24506   0.53298   0.91783   0.00000  Uiso   1.00
C1031  C     0.10824   0.63537   0.71479   0.00000  Uiso   1.00
C1032  C     0.36536   0.60769   0.28511   0.00000  Uiso   1.00
C1033  C     0.13437   0.89273   0.71505   0.00000  Uiso   1.00
C1034  C     0.10801   0.63495   0.28521   0.00000  Uiso   1.00
C1035  C     0.39176   0.86463   0.71479   0.00000  Uiso   1.00
C1036  C     0.13465   0.89231   0.28511   0.00000  Uiso   1.00
C1037  C     0.36563   0.60727   0.71505   0.00000  Uiso   1.00
C1038  C     0.49553   0.71664   0.45856   0.00000  Uiso   1.00
C1039  C     0.00450   0.78363   0.54109   0.00000  Uiso   1.00
C1040  C     0.28349   0.99635   0.45860   0.00000  Uiso   1.00
Cl1041 Cl    0.16538   0.89532   0.17106   0.00000  Uiso   1.00
Cl1042 Cl    0.33537   0.89617   0.17084   0.00000  Uiso   1.00
Cl1043 Cl    0.10516   0.83404   0.82880   0.00000  Uiso   1.00
Cl1044 Cl    0.39521   0.66561   0.17110   0.00000  Uiso   1.00
Cl1045 Cl    0.33706   0.89737   0.82958   0.00000  Uiso   1.00
Cl1046 Cl    0.16463   0.60384   0.17084   0.00000  Uiso   1.00
Cl1047 Cl    0.39485   0.66596   0.82880   0.00000  Uiso   1.00
Cl1048 Cl    0.10479   0.83439   0.17110   0.00000  Uiso   1.00
Cl1049 Cl    0.41568   0.64478   0.67122   0.00000  Uiso   1.00
Cl1050 Cl    0.08469   0.85451   0.32900   0.00000  Uiso   1.00
Cl1051 Cl    0.35290   0.91316   0.67056   0.00000  Uiso   1.00
Cl1052 Cl    0.33396   0.60524   0.82884   0.00000  Uiso   1.00
Cl1053 Cl    0.14613   0.58540   0.32924   0.00000  Uiso   1.00
Cl1054 Cl    0.08432   0.85522   0.67122   0.00000  Uiso   1.00
Cl1055 Cl    0.41531   0.64549   0.32900   0.00000  Uiso   1.00
Cl1056 Cl    0.14709   0.58684   0.67056   0.00000  Uiso   1.00
Cl1057 Cl    0.35387   0.91459   0.32924   0.00000  Uiso   1.00
Cl1058 Cl    0.41442   0.85379   0.32924   0.00000  Uiso   1.00
Cl1059 Cl    0.08594   0.64678   0.67068   0.00000  Uiso   1.00
Cl1060 Cl    0.35448   0.58486   0.32902   0.00000  Uiso   1.00
Cl1061 Cl    0.14476   0.91621   0.67136   0.00000  Uiso   1.00
Cl1062 Cl    0.08558   0.64620   0.32924   0.00000  Uiso   1.00
Cl1063 Cl    0.10377   0.66418   0.17076   0.00000  Uiso   1.00
Cl1064 Cl    0.41406   0.85322   0.67068   0.00000  Uiso   1.00
Cl1065 Cl    0.14552   0.91514   0.32902   0.00000  Uiso   1.00
Cl1066 Cl    0.35524   0.58378   0.67136   0.00000  Uiso   1.00
Cl1067 Cl    0.49588   0.82402   0.39005   0.00000  Uiso   1.00
Cl1068 Cl    0.48785   0.67733   0.61123   0.00000  Uiso   1.00
Cl1069 Cl    0.17606   0.99450   0.39004   0.00000  Uiso   1.00
Cl1070 Cl    0.32174   0.98272   0.61071   0.00000  Uiso   1.00
Cl1071 Cl    0.00413   0.67598   0.39005   0.00000  Uiso   1.00
Cl1072 Cl    0.01214   0.82267   0.61123   0.00000  Uiso   1.00
Cl1073 Cl    0.32395   0.50550   0.39004   0.00000  Uiso   1.00
Cl1074 Cl    0.39725   0.83651   0.82953   0.00000  Uiso   1.00
Cl1075 Cl    0.17826   0.51729   0.61071   0.00000  Uiso   1.00
Cl1076 Cl    0.23399   0.57227   0.88981   0.00000  Uiso   1.00
Cl1077 Cl    0.24731   0.92612   0.11075   0.00000  Uiso   1.00
Cl1078 Cl    0.42609   0.75452   0.88957   0.00000  Uiso   1.00
Cl1079 Cl    0.07254   0.73710   0.11131   0.00000  Uiso   1.00
Cl1080 Cl    0.26601   0.92773   0.88982   0.00000  Uiso   1.00
Cl1081 Cl    0.25270   0.57388   0.11074   0.00000  Uiso   1.00
Cl1082 Cl    0.07391   0.74548   0.88958   0.00000  Uiso   1.00
Cl1083 Cl    0.42746   0.76291   0.11131   0.00000  Uiso   1.00
Cl1084 Cl    0.33461   0.60468   0.17106   0.00000  Uiso   1.00
Cl1085 Cl    0.16604   0.89476   0.82884   0.00000  Uiso   1.00
Cl1086 Cl    0.39624   0.83583   0.17076   0.00000  Uiso   1.00
Cl1087 Cl    0.10276   0.66349   0.82953   0.00000  Uiso   1.00
Cl1088 Cl    0.16295   0.60263   0.82958   0.00000  Uiso   1.00
H1089  H     0.43579   0.64331   0.42218   0.00000  Uiso   1.00
H1090  H     0.49313   0.89957   0.58920   0.00000  Uiso   1.00
H1091  H     0.41038   0.82979   0.98791   0.00000  Uiso   1.00
H1092  H     0.36234   0.81878   0.91520   0.00000  Uiso   1.00
H1093  H     0.34638   0.82273   0.96461   0.00000  Uiso   1.00
H1094  H     0.37361   0.88581   0.96859   0.00000  Uiso   1.00
H1095  H     0.34050   0.88183   0.92995   0.00000  Uiso   1.00
H1096  H     0.38866   0.88172   0.91858   0.00000  Uiso   1.00
H1097  H     0.10999   0.78396   0.05046   0.00000  Uiso   1.00
H1098  H     0.12711   0.76754   0.00420   0.00000  Uiso   1.00
H1099  H     0.15453   0.74426   0.08516   0.00000  Uiso   1.00
H1100  H     0.17043   0.72612   0.03944   0.00000  Uiso   1.00
H1101  H     0.00736   0.92192   0.54500   0.00000  Uiso   1.00
H1102  H     0.19186   0.78762   0.01921   0.00000  Uiso   1.00
H1103  H     0.21193   0.77460   0.06501   0.00000  Uiso   1.00
H1104  H     0.17488   0.80716   0.06420   0.00000  Uiso   1.00
H1105  H     0.44338   0.93689   0.52877   0.00000  Uiso   1.00
H1106  H     0.45414   0.95291   0.57695   0.00000  Uiso   1.00
H1107  H     0.42710   0.91204   0.57100   0.00000  Uiso   1.00
H1108  H     0.35254   0.93773   0.42247   0.00000  Uiso   1.00
H1109  H     0.32333   0.92747   0.46276   0.00000  Uiso   1.00
H1110  H     0.40687   0.93956   0.46697   0.00000  Uiso   1.00
H1111  H     0.37742   0.92838   0.50737   0.00000  Uiso   1.00
H1112  H     0.35997   0.86962   0.47456   0.00000  Uiso   1.00
H1113  H     0.42720   0.68120   0.45357   0.00000  Uiso   1.00
H1114  H     0.40857   0.87299   0.48243   0.00000  Uiso   1.00
H1115  H     0.39016   0.88073   0.43448   0.00000  Uiso   1.00
H1116  H     0.15422   0.95523   0.55618   0.00000  Uiso   1.00
H1117  H     0.12885   0.96279   0.51145   0.00000  Uiso   1.00
H1118  H     0.10398   0.99030   0.59192   0.00000  Uiso   1.00
H1119  H     0.07849   0.99111   0.54712   0.00000  Uiso   1.00
H1120  H     0.07806   0.92293   0.54572   0.00000  Uiso   1.00
H1121  H     0.05923   0.93992   0.59068   0.00000  Uiso   1.00
H1122  H     0.10493   0.92157   0.58985   0.00000  Uiso   1.00
H1123  H     0.06422   0.85668   0.42218   0.00000  Uiso   1.00
H1124  H     0.43215   0.60023   0.47933   0.00000  Uiso   1.00
H1125  H     0.07281   0.81879   0.45358   0.00000  Uiso   1.00
H1126  H     0.06786   0.89977   0.47933   0.00000  Uiso   1.00
H1127  H     0.07948   0.86145   0.51002   0.00000  Uiso   1.00
H1128  H     0.13471   0.84912   0.46887   0.00000  Uiso   1.00
H1129  H     0.13514   0.89457   0.48923   0.00000  Uiso   1.00
H1130  H     0.12332   0.88815   0.43877   0.00000  Uiso   1.00
H1131  H     0.04229   0.64612   0.54975   0.00000  Uiso   1.00
H1132  H     0.02671   0.62354   0.50567   0.00000  Uiso   1.00
H1133  H     0.00689   0.60044   0.58921   0.00000  Uiso   1.00
H1134  H     0.49267   0.57808   0.54501   0.00000  Uiso   1.00
H1135  H     0.42053   0.63855   0.51002   0.00000  Uiso   1.00
H1136  H     0.05666   0.56312   0.52879   0.00000  Uiso   1.00
H1137  H     0.04590   0.54710   0.57698   0.00000  Uiso   1.00
H1138  H     0.07293   0.58798   0.57101   0.00000  Uiso   1.00
H1139  H     0.14741   0.56225   0.42246   0.00000  Uiso   1.00
H1140  H     0.17668   0.57252   0.46270   0.00000  Uiso   1.00
H1141  H     0.09314   0.56044   0.46703   0.00000  Uiso   1.00
H1142  H     0.12264   0.57163   0.50739   0.00000  Uiso   1.00
H1143  H     0.14006   0.63038   0.47453   0.00000  Uiso   1.00
H1144  H     0.09147   0.62702   0.48248   0.00000  Uiso   1.00
H1145  H     0.10982   0.61926   0.43450   0.00000  Uiso   1.00
H1146  H     0.36530   0.65087   0.46887   0.00000  Uiso   1.00
H1147  H     0.34579   0.54477   0.55618   0.00000  Uiso   1.00
H1148  H     0.37115   0.53720   0.51145   0.00000  Uiso   1.00
H1149  H     0.39603   0.50968   0.59192   0.00000  Uiso   1.00
H1150  H     0.42151   0.50888   0.54712   0.00000  Uiso   1.00
H1151  H     0.42195   0.57706   0.54571   0.00000  Uiso   1.00
H1152  H     0.44079   0.56007   0.59067   0.00000  Uiso   1.00
H1153  H     0.39509   0.57842   0.58985   0.00000  Uiso   1.00
H1154  H     0.21351   0.87150   0.92927   0.00000  Uiso   1.00
H1155  H     0.19737   0.91488   0.94538   0.00000  Uiso   1.00
H1156  H     0.21397   0.84889   0.99924   0.00000  Uiso   1.00
H1157  H     0.36487   0.60542   0.48923   0.00000  Uiso   1.00
H1158  H     0.19294   0.89139   0.01353   0.00000  Uiso   1.00
H1159  H     0.14042   0.87867   0.96829   0.00000  Uiso   1.00
H1160  H     0.14582   0.84393   0.00502   0.00000  Uiso   1.00
H1161  H     0.16098   0.83511   0.95601   0.00000  Uiso   1.00
H1162  H     0.18356   0.58229   0.05382   0.00000  Uiso   1.00
H1163  H     0.18711   0.60866   0.00914   0.00000  Uiso   1.00
H1164  H     0.20160   0.63819   0.09169   0.00000  Uiso   1.00
H1165  H     0.20316   0.66404   0.04713   0.00000  Uiso   1.00
H1166  H     0.13690   0.65142   0.03585   0.00000  Uiso   1.00
H1167  H     0.14404   0.67254   0.08262   0.00000  Uiso   1.00
H1168  H     0.37669   0.61184   0.43877   0.00000  Uiso   1.00
H1169  H     0.13516   0.62418   0.07979   0.00000  Uiso   1.00
H1170  H     0.07302   0.67378   0.93830   0.00000  Uiso   1.00
H1171  H     0.08960   0.67020   0.98791   0.00000  Uiso   1.00
H1172  H     0.13768   0.68123   0.91524   0.00000  Uiso   1.00
H1173  H     0.15361   0.67725   0.96466   0.00000  Uiso   1.00
H1174  H     0.12635   0.61417   0.96858   0.00000  Uiso   1.00
H1175  H     0.15950   0.61817   0.92998   0.00000  Uiso   1.00
H1176  H     0.11135   0.61830   0.91856   0.00000  Uiso   1.00
H1177  H     0.39000   0.71604   0.05046   0.00000  Uiso   1.00
H1178  H     0.37289   0.73247   0.00419   0.00000  Uiso   1.00
H1179  H     0.45772   0.85390   0.54974   0.00000  Uiso   1.00
H1180  H     0.34547   0.75576   0.08515   0.00000  Uiso   1.00
H1181  H     0.32957   0.77389   0.03942   0.00000  Uiso   1.00
H1182  H     0.30813   0.71239   0.01920   0.00000  Uiso   1.00
H1183  H     0.28807   0.72541   0.06500   0.00000  Uiso   1.00
H1184  H     0.32512   0.69285   0.06419   0.00000  Uiso   1.00
H1185  H     0.28647   0.62851   0.92928   0.00000  Uiso   1.00
H1186  H     0.30262   0.58513   0.94538   0.00000  Uiso   1.00
H1187  H     0.28601   0.65111   0.99925   0.00000  Uiso   1.00
H1188  H     0.30704   0.60861   0.01353   0.00000  Uiso   1.00
H1189  H     0.35956   0.62133   0.96829   0.00000  Uiso   1.00
H1190  H     0.47331   0.87646   0.50566   0.00000  Uiso   1.00
H1191  H     0.35416   0.65608   0.00502   0.00000  Uiso   1.00
H1192  H     0.33900   0.66490   0.95602   0.00000  Uiso   1.00
H1193  H     0.31648   0.91768   0.05365   0.00000  Uiso   1.00
H1194  H     0.31279   0.89117   0.00908   0.00000  Uiso   1.00
H1195  H     0.29847   0.86195   0.09177   0.00000  Uiso   1.00
H1196  H     0.29674   0.83595   0.04733   0.00000  Uiso   1.00
H1197  H     0.36298   0.84840   0.03580   0.00000  Uiso   1.00
H1198  H     0.35593   0.82747   0.08268   0.00000  Uiso   1.00
H1199  H     0.36489   0.87579   0.07961   0.00000  Uiso   1.00
H1200  H     0.42699   0.82622   0.93831   0.00000  Uiso   1.00
O1201  O     0.25000   0.50000   0.25000   0.00000  Uiso   1.00
O1202  O     0.25000   0.96964   0.66245   0.00000  Uiso   1.00
O1203  O     0.46964   0.75000   0.33755   0.00000  Uiso   1.00
O1204  O     0.03037   0.75000   0.66245   0.00000  Uiso   1.00
O1205  O     0.00000   0.71964   0.83755   0.00000  Uiso   1.00
O1206  O     0.00000   0.78037   0.16245   0.00000  Uiso   1.00
O1207  O     0.28037   0.50000   0.83755   0.00000  Uiso   1.00
O1208  O     0.21964   0.50000   0.16245   0.00000  Uiso   1.00
O1209  O     0.00000   0.78037   0.83755   0.00000  Uiso   1.00
O1210  O     0.00000   0.71964   0.16245   0.00000  Uiso   1.00
O1211  O     0.21964   0.50000   0.83755   0.00000  Uiso   1.00
O1212  O     0.25000   0.50000   0.75000   0.00000  Uiso   1.00
O1213  O     0.28037   0.50000   0.16245   0.00000  Uiso   1.00
O1214  O     0.20725   0.57308   0.27302   0.00000  Uiso   1.00
O1215  O     0.29276   0.92693   0.72698   0.00000  Uiso   1.00
O1216  O     0.42693   0.70725   0.27302   0.00000  Uiso   1.00
O1217  O     0.07308   0.79276   0.72698   0.00000  Uiso   1.00
O1218  O     0.29276   0.92693   0.27302   0.00000  Uiso   1.00
O1219  O     0.20725   0.57308   0.72698   0.00000  Uiso   1.00
O1220  O     0.07308   0.79276   0.27302   0.00000  Uiso   1.00
O1221  O     0.42693   0.70725   0.72698   0.00000  Uiso   1.00
O1222  O     0.20725   0.92693   0.72698   0.00000  Uiso   1.00
O1223  O     0.00000   0.75000   0.25000   0.00000  Uiso   1.00
O1224  O     0.29276   0.57308   0.27302   0.00000  Uiso   1.00
O1225  O     0.42693   0.79276   0.72698   0.00000  Uiso   1.00
O1226  O     0.07308   0.70725   0.27302   0.00000  Uiso   1.00
O1227  O     0.29276   0.57308   0.72698   0.00000  Uiso   1.00
O1228  O     0.20725   0.92693   0.27302   0.00000  Uiso   1.00
O1229  O     0.07308   0.70725   0.72698   0.00000  Uiso   1.00
O1230  O     0.42693   0.79276   0.27302   0.00000  Uiso   1.00
O1231  O     0.45725   0.82308   0.77302   0.00000  Uiso   1.00
O1232  O     0.04276   0.67693   0.22698   0.00000  Uiso   1.00
O1233  O     0.17693   0.95725   0.77302   0.00000  Uiso   1.00
O1234  O     0.00000   0.75000   0.75000   0.00000  Uiso   1.00
O1235  O     0.32308   0.54276   0.22698   0.00000  Uiso   1.00
O1236  O     0.04276   0.67693   0.77302   0.00000  Uiso   1.00
O1237  O     0.45725   0.82308   0.22698   0.00000  Uiso   1.00
O1238  O     0.32308   0.54276   0.77302   0.00000  Uiso   1.00
O1239  O     0.17693   0.95725   0.22698   0.00000  Uiso   1.00
O1240  O     0.45725   0.67693   0.22698   0.00000  Uiso   1.00
O1241  O     0.04276   0.82308   0.77302   0.00000  Uiso   1.00
O1242  O     0.17693   0.54276   0.22698   0.00000  Uiso   1.00
O1243  O     0.32308   0.95725   0.77302   0.00000  Uiso   1.00
O1244  O     0.04276   0.82308   0.22698   0.00000  Uiso   1.00
O1245  O     0.25000   0.96964   0.33755   0.00000  Uiso   1.00
O1246  O     0.45725   0.67693   0.77302   0.00000  Uiso   1.00
O1247  O     0.32308   0.95725   0.22698   0.00000  Uiso   1.00
O1248  O     0.17693   0.54276   0.77302   0.00000  Uiso   1.00
O1249  O     0.47759   0.65234   0.46070   0.00000  Uiso   1.00
O1250  O     0.01358   0.84991   0.53812   0.00000  Uiso   1.00
O1251  O     0.34834   0.98048   0.46104   0.00000  Uiso   1.00
O1252  O     0.14974   0.50955   0.53811   0.00000  Uiso   1.00
O1253  O     0.02242   0.84766   0.46070   0.00000  Uiso   1.00
O1254  O     0.48644   0.65009   0.53812   0.00000  Uiso   1.00
O1255  O     0.15166   0.51951   0.46104   0.00000  Uiso   1.00
O1256  O     0.25000   0.53037   0.66245   0.00000  Uiso   1.00
O1257  O     0.35026   0.99045   0.53812   0.00000  Uiso   1.00
O1258  O     0.25102   0.89932   0.96199   0.00000  Uiso   1.00
O1259  O     0.23606   0.59952   0.03856   0.00000  Uiso   1.00
O1260  O     0.09598   0.72118   0.96089   0.00000  Uiso   1.00
O1261  O     0.40133   0.77066   0.03822   0.00000  Uiso   1.00
O1262  O     0.24896   0.60068   0.96199   0.00000  Uiso   1.00
O1263  O     0.26392   0.90048   0.03857   0.00000  Uiso   1.00
O1264  O     0.40402   0.77882   0.96088   0.00000  Uiso   1.00
O1265  O     0.09867   0.72934   0.03822   0.00000  Uiso   1.00
O1266  O     0.03037   0.75000   0.33755   0.00000  Uiso   1.00
O1267  O     0.46964   0.75000   0.66245   0.00000  Uiso   1.00
O1268  O     0.25000   0.53037   0.33755   0.00000  Uiso   1.00
Zn1269 Zn    0.20660   0.50000   0.21735   0.00000  Uiso   1.00
Zn1270 Zn    0.04341   0.75000   0.28265   0.00000  Uiso   1.00
Zn1271 Zn    0.25000   0.95660   0.71735   0.00000  Uiso   1.00
Zn1272 Zn    0.25000   0.54341   0.28265   0.00000  Uiso   1.00
Zn1273 Zn    0.04341   0.75000   0.71735   0.00000  Uiso   1.00
Zn1274 Zn    0.45660   0.75000   0.28265   0.00000  Uiso   1.00
Zn1275 Zn    0.25000   0.54341   0.71735   0.00000  Uiso   1.00
Zn1276 Zn    0.25000   0.95660   0.28265   0.00000  Uiso   1.00
Zn1277 Zn    0.29341   0.50000   0.78265   0.00000  Uiso   1.00
Zn1278 Zn    0.00000   0.70660   0.21735   0.00000  Uiso   1.00
Zn1279 Zn    0.00000   0.79341   0.78265   0.00000  Uiso   1.00
Zn1280 Zn    0.29341   0.50000   0.21735   0.00000  Uiso   1.00
Zn1281 Zn    0.20660   0.50000   0.78265   0.00000  Uiso   1.00
Zn1282 Zn    0.00000   0.79341   0.21735   0.00000  Uiso   1.00
Zn1283 Zn    0.00000   0.70660   0.78265   0.00000  Uiso   1.00
Zn1284 Zn    0.45660   0.75000   0.71735   0.00000  Uiso   1.00
C1285  C     0.50128   0.78328   0.41766   0.00000  Uiso   1.00
C1286  C     0.75098   0.96664   0.08240   0.00000  Uiso   1.00
C1287  C     0.71645   0.50439   0.54112   0.00000  Uiso   1.00
C1288  C     0.50448   0.78336   0.45856   0.00000  Uiso   1.00
C1289  C     0.99551   0.71637   0.54109   0.00000  Uiso   1.00
C1290  C     0.71651   0.50365   0.45860   0.00000  Uiso   1.00
C1291  C     0.78355   0.99561   0.54112   0.00000  Uiso   1.00
C1292  C     0.75254   0.96633   0.95884   0.00000  Uiso   1.00
C1293  C     0.74703   0.53365   0.04136   0.00000  Uiso   1.00
C1294  C     0.53293   0.74283   0.95855   0.00000  Uiso   1.00
C1295  C     0.96666   0.75628   0.04113   0.00000  Uiso   1.00
C1296  C     0.74746   0.53367   0.95884   0.00000  Uiso   1.00
C1297  C     0.96700   0.75470   0.91757   0.00000  Uiso   1.00
C1298  C     0.75296   0.96635   0.04136   0.00000  Uiso   1.00
C1299  C     0.96707   0.75717   0.95855   0.00000  Uiso   1.00
C1300  C     0.53334   0.74373   0.04113   0.00000  Uiso   1.00
C1301  C     0.59809   0.84804   0.25001   0.00000  Uiso   1.00
C1302  C     0.90189   0.65192   0.75002   0.00000  Uiso   1.00
C1303  C     0.65193   0.59804   0.25004   0.00000  Uiso   1.00
C1304  C     0.84814   0.90189   0.75003   0.00000  Uiso   1.00
C1305  C     0.90191   0.65196   0.25001   0.00000  Uiso   1.00
C1306  C     0.59811   0.84808   0.75002   0.00000  Uiso   1.00
C1307  C     0.84807   0.90196   0.25004   0.00000  Uiso   1.00
C1308  C     0.53287   0.74399   0.08229   0.00000  Uiso   1.00
C1309  C     0.65186   0.59811   0.75003   0.00000  Uiso   1.00
C1310  C     0.59800   0.65194   0.75004   0.00000  Uiso   1.00
C1311  C     0.90191   0.84812   0.25001   0.00000  Uiso   1.00
C1312  C     0.65197   0.90193   0.75007   0.00000  Uiso   1.00
C1313  C     0.84807   0.59810   0.25001   0.00000  Uiso   1.00
C1314  C     0.90200   0.84806   0.75004   0.00000  Uiso   1.00
C1315  C     0.59809   0.65188   0.25001   0.00000  Uiso   1.00
C1316  C     0.84803   0.59807   0.75007   0.00000  Uiso   1.00
C1317  C     0.65193   0.90190   0.25001   0.00000  Uiso   1.00
C1318  C     0.50000   0.75000   0.47925   0.00000  Uiso   1.00
C1319  C     0.75494   0.96701   0.91783   0.00000  Uiso   1.00
C1320  C     0.50000   0.75000   0.52052   0.00000  Uiso   1.00
C1321  C     0.75000   0.50000   0.47926   0.00000  Uiso   1.00
C1322  C     0.75000   0.50000   0.52053   0.00000  Uiso   1.00
C1323  C     0.75000   0.50000   0.97946   0.00000  Uiso   1.00
C1324  C     0.75000   0.50000   0.02074   0.00000  Uiso   1.00
C1325  C     0.50000   0.75000   0.97924   0.00000  Uiso   1.00
C1326  C     0.50000   0.75000   0.02054   0.00000  Uiso   1.00
C1327  C     0.93960   0.65329   0.45241   0.00000  Uiso   1.00
C1328  C     0.91908   0.62765   0.47993   0.00000  Uiso   1.00
C1329  C     0.87899   0.62378   0.46836   0.00000  Uiso   1.00
C1330  C     0.74902   0.53336   0.08239   0.00000  Uiso   1.00
C1331  C     0.98048   0.86980   0.53630   0.00000  Uiso   1.00
C1332  C     0.98520   0.90559   0.55868   0.00000  Uiso   1.00
C1333  C     0.95016   0.92814   0.55879   0.00000  Uiso   1.00
C1334  C     0.84890   0.94221   0.45418   0.00000  Uiso   1.00
C1335  C     0.88133   0.92518   0.47553   0.00000  Uiso   1.00
C1336  C     0.88515   0.88460   0.46607   0.00000  Uiso   1.00
C1337  C     0.63489   0.97395   0.54090   0.00000  Uiso   1.00
C1338  C     0.59925   0.97568   0.56406   0.00000  Uiso   1.00
C1339  C     0.58454   0.93758   0.57306   0.00000  Uiso   1.00
C1340  C     0.56041   0.84670   0.45241   0.00000  Uiso   1.00
C1341  C     0.53300   0.74530   0.91758   0.00000  Uiso   1.00
C1342  C     0.58093   0.87235   0.47993   0.00000  Uiso   1.00
C1343  C     0.62102   0.87621   0.46836   0.00000  Uiso   1.00
C1344  C     0.51954   0.63021   0.53631   0.00000  Uiso   1.00
C1345  C     0.51482   0.59442   0.55869   0.00000  Uiso   1.00
C1346  C     0.54987   0.57187   0.55881   0.00000  Uiso   1.00
C1347  C     0.65109   0.55778   0.45416   0.00000  Uiso   1.00
C1348  C     0.61869   0.57482   0.47555   0.00000  Uiso   1.00
C1349  C     0.61487   0.61540   0.46608   0.00000  Uiso   1.00
C1350  C     0.86511   0.52605   0.54090   0.00000  Uiso   1.00
C1351  C     0.90076   0.52431   0.56406   0.00000  Uiso   1.00
C1352  C     0.96713   0.75601   0.08229   0.00000  Uiso   1.00
C1353  C     0.91547   0.56241   0.57305   0.00000  Uiso   1.00
C1354  C     0.71390   0.89065   0.95434   0.00000  Uiso   1.00
C1355  C     0.69613   0.87161   0.98928   0.00000  Uiso   1.00
C1356  C     0.65851   0.85642   0.97887   0.00000  Uiso   1.00
C1357  C     0.69789   0.60548   0.03925   0.00000  Uiso   1.00
C1358  C     0.68994   0.64049   0.06196   0.00000  Uiso   1.00
C1359  C     0.64892   0.64750   0.06517   0.00000  Uiso   1.00
C1360  C     0.59486   0.68262   0.95883   0.00000  Uiso   1.00
C1361  C     0.63176   0.66880   0.94405   0.00000  Uiso   1.00
C1362  C     0.63214   0.62725   0.94010   0.00000  Uiso   1.00
C1363  C     0.50000   0.75000   0.39783   0.00000  Uiso   1.00
C1364  C     0.87791   0.73999   0.03511   0.00000  Uiso   1.00
C1365  C     0.84123   0.74937   0.05389   0.00000  Uiso   1.00
C1366  C     0.81404   0.71793   0.05031   0.00000  Uiso   1.00
C1367  C     0.78608   0.60935   0.95434   0.00000  Uiso   1.00
C1368  C     0.80385   0.62840   0.98928   0.00000  Uiso   1.00
C1369  C     0.84148   0.64359   0.97888   0.00000  Uiso   1.00
C1370  C     0.80208   0.89447   0.03920   0.00000  Uiso   1.00
C1371  C     0.81004   0.85952   0.06202   0.00000  Uiso   1.00
C1372  C     0.85105   0.85245   0.06513   0.00000  Uiso   1.00
C1373  C     0.90513   0.81738   0.95882   0.00000  Uiso   1.00
C1374  C     0.50000   0.75000   0.60197   0.00000  Uiso   1.00
C1375  C     0.86824   0.83120   0.94402   0.00000  Uiso   1.00
C1376  C     0.86785   0.87275   0.94009   0.00000  Uiso   1.00
C1377  C     0.62208   0.76002   0.03511   0.00000  Uiso   1.00
C1378  C     0.65877   0.75065   0.05390   0.00000  Uiso   1.00
C1379  C     0.68596   0.78209   0.05032   0.00000  Uiso   1.00
C1380  C     0.75000   0.50000   0.39786   0.00000  Uiso   1.00
C1381  C     0.99502   0.71696   0.58224   0.00000  Uiso   1.00
C1382  C     0.75000   0.50000   0.60198   0.00000  Uiso   1.00
C1383  C     0.75000   0.50000   0.89800   0.00000  Uiso   1.00
C1384  C     0.75000   0.50000   0.10214   0.00000  Uiso   1.00
C1385  C     0.50000   0.75000   0.89780   0.00000  Uiso   1.00
C1386  C     0.50000   0.75000   0.10200   0.00000  Uiso   1.00
C1387  C     0.98811   0.68422   0.47933   0.00000  Uiso   1.00
C1388  C     0.50890   0.81658   0.51979   0.00000  Uiso   1.00
C1389  C     0.81612   0.99008   0.47947   0.00000  Uiso   1.00
C1390  C     0.68336   0.50740   0.51991   0.00000  Uiso   1.00
C1391  C     0.51190   0.81578   0.47933   0.00000  Uiso   1.00
C1392  C     0.71668   0.50057   0.41769   0.00000  Uiso   1.00
C1393  C     0.99111   0.68342   0.51979   0.00000  Uiso   1.00
C1394  C     0.68388   0.50992   0.47947   0.00000  Uiso   1.00
C1395  C     0.81664   0.99260   0.51991   0.00000  Uiso   1.00
C1396  C     0.75322   0.93312   0.97996   0.00000  Uiso   1.00
C1397  C     0.74277   0.56654   0.02025   0.00000  Uiso   1.00
C1398  C     0.56476   0.73348   0.97943   0.00000  Uiso   1.00
C1399  C     0.93412   0.76307   0.01987   0.00000  Uiso   1.00
C1400  C     0.74677   0.56687   0.97996   0.00000  Uiso   1.00
C1401  C     0.75722   0.93345   0.02026   0.00000  Uiso   1.00
C1402  C     0.93523   0.76652   0.97943   0.00000  Uiso   1.00
C1403  C     0.78279   0.99380   0.58219   0.00000  Uiso   1.00
C1404  C     0.56587   0.73693   0.01988   0.00000  Uiso   1.00
C1405  C     0.75000   0.50000   0.35570   0.00000  Uiso   1.00
C1406  C     0.75000   0.50000   0.64426   0.00000  Uiso   1.00
C1407  C     0.50000   0.75000   0.35569   0.00000  Uiso   1.00
C1408  C     0.50000   0.75000   0.64427   0.00000  Uiso   1.00
C1409  C     0.50000   0.75000   0.85567   0.00000  Uiso   1.00
C1410  C     0.50000   0.75000   0.14428   0.00000  Uiso   1.00
C1411  C     0.75000   0.50000   0.85574   0.00000  Uiso   1.00
C1412  C     0.75000   0.50000   0.14431   0.00000  Uiso   1.00
C1413  C     0.67998   0.56999   0.25002   0.00000  Uiso   1.00
C1414  C     0.99872   0.71672   0.41766   0.00000  Uiso   1.00
C1415  C     0.82003   0.92997   0.75001   0.00000  Uiso   1.00
C1416  C     0.92999   0.68000   0.25000   0.00000  Uiso   1.00
C1417  C     0.57001   0.82002   0.74999   0.00000  Uiso   1.00
C1418  C     0.82002   0.93001   0.25002   0.00000  Uiso   1.00
C1419  C     0.67997   0.57003   0.75001   0.00000  Uiso   1.00
C1420  C     0.57001   0.82000   0.25000   0.00000  Uiso   1.00
C1421  C     0.92999   0.67998   0.74999   0.00000  Uiso   1.00
C1422  C     0.68002   0.92997   0.75005   0.00000  Uiso   1.00
C1423  C     0.82001   0.57001   0.25001   0.00000  Uiso   1.00
C1424  C     0.93000   0.81999   0.75002   0.00000  Uiso   1.00
C1425  C     0.50498   0.78304   0.58224   0.00000  Uiso   1.00
C1426  C     0.57002   0.67998   0.24999   0.00000  Uiso   1.00
C1427  C     0.81998   0.57003   0.75005   0.00000  Uiso   1.00
C1428  C     0.67999   0.92999   0.25001   0.00000  Uiso   1.00
C1429  C     0.57000   0.68001   0.75002   0.00000  Uiso   1.00
C1430  C     0.92998   0.82002   0.24999   0.00000  Uiso   1.00
C1431  C     0.64241   0.88455   0.21492   0.00000  Uiso   1.00
C1432  C     0.85729   0.61568   0.78508   0.00000  Uiso   1.00
C1433  C     0.61503   0.64191   0.21484   0.00000  Uiso   1.00
C1434  C     0.88552   0.85843   0.78532   0.00000  Uiso   1.00
C1435  C     0.85758   0.61545   0.21492   0.00000  Uiso   1.00
C1436  C     0.78332   0.99943   0.41769   0.00000  Uiso   1.00
C1437  C     0.64271   0.88432   0.78509   0.00000  Uiso   1.00
C1438  C     0.88497   0.85810   0.21484   0.00000  Uiso   1.00
C1439  C     0.61448   0.64157   0.78532   0.00000  Uiso   1.00
C1440  C     0.64138   0.61454   0.78532   0.00000  Uiso   1.00
C1441  C     0.85795   0.88502   0.21485   0.00000  Uiso   1.00
C1442  C     0.61568   0.85734   0.78506   0.00000  Uiso   1.00
C1443  C     0.88455   0.64248   0.21492   0.00000  Uiso   1.00
C1444  C     0.85862   0.88546   0.78532   0.00000  Uiso   1.00
C1445  C     0.64205   0.61498   0.21485   0.00000  Uiso   1.00
C1446  C     0.88432   0.64266   0.78506   0.00000  Uiso   1.00
C1447  C     0.71721   0.50620   0.58219   0.00000  Uiso   1.00
C1448  C     0.61545   0.85752   0.21492   0.00000  Uiso   1.00
C1449  C     0.89257   0.63431   0.71502   0.00000  Uiso   1.00
C1450  C     0.60763   0.86534   0.28511   0.00000  Uiso   1.00
C1451  C     0.86467   0.89149   0.71477   0.00000  Uiso   1.00
C1452  C     0.63497   0.60794   0.28522   0.00000  Uiso   1.00
C1453  C     0.60743   0.86569   0.71502   0.00000  Uiso   1.00
C1454  C     0.89237   0.63466   0.28511   0.00000  Uiso   1.00
C1455  C     0.63532   0.60851   0.71477   0.00000  Uiso   1.00
C1456  C     0.86503   0.89206   0.28522   0.00000  Uiso   1.00
C1457  C     0.89199   0.86504   0.28521   0.00000  Uiso   1.00
C1458  C     0.74506   0.53298   0.91783   0.00000  Uiso   1.00
C1459  C     0.60824   0.63537   0.71479   0.00000  Uiso   1.00
C1460  C     0.86536   0.60769   0.28511   0.00000  Uiso   1.00
C1461  C     0.63437   0.89273   0.71505   0.00000  Uiso   1.00
C1462  C     0.60801   0.63495   0.28521   0.00000  Uiso   1.00
C1463  C     0.89176   0.86463   0.71479   0.00000  Uiso   1.00
C1464  C     0.63465   0.89231   0.28511   0.00000  Uiso   1.00
C1465  C     0.86563   0.60727   0.71505   0.00000  Uiso   1.00
C1466  C     0.99553   0.71664   0.45856   0.00000  Uiso   1.00
C1467  C     0.50450   0.78363   0.54109   0.00000  Uiso   1.00
C1468  C     0.78349   0.99635   0.45860   0.00000  Uiso   1.00
Cl1469 Cl    0.66538   0.89532   0.17106   0.00000  Uiso   1.00
Cl1470 Cl    0.83537   0.89617   0.17084   0.00000  Uiso   1.00
Cl1471 Cl    0.60516   0.83404   0.82880   0.00000  Uiso   1.00
Cl1472 Cl    0.89521   0.66561   0.17110   0.00000  Uiso   1.00
Cl1473 Cl    0.83706   0.89737   0.82958   0.00000  Uiso   1.00
Cl1474 Cl    0.66463   0.60384   0.17084   0.00000  Uiso   1.00
Cl1475 Cl    0.89485   0.66596   0.82880   0.00000  Uiso   1.00
Cl1476 Cl    0.60479   0.83439   0.17110   0.00000  Uiso   1.00
Cl1477 Cl    0.91568   0.64478   0.67122   0.00000  Uiso   1.00
Cl1478 Cl    0.58469   0.85451   0.32900   0.00000  Uiso   1.00
Cl1479 Cl    0.85290   0.91316   0.67056   0.00000  Uiso   1.00
Cl1480 Cl    0.83396   0.60524   0.82884   0.00000  Uiso   1.00
Cl1481 Cl    0.64613   0.58540   0.32924   0.00000  Uiso   1.00
Cl1482 Cl    0.58432   0.85522   0.67122   0.00000  Uiso   1.00
Cl1483 Cl    0.91531   0.64549   0.32900   0.00000  Uiso   1.00
Cl1484 Cl    0.64709   0.58684   0.67056   0.00000  Uiso   1.00
Cl1485 Cl    0.85387   0.91459   0.32924   0.00000  Uiso   1.00
Cl1486 Cl    0.91442   0.85379   0.32924   0.00000  Uiso   1.00
Cl1487 Cl    0.58594   0.64678   0.67068   0.00000  Uiso   1.00
Cl1488 Cl    0.85448   0.58486   0.32902   0.00000  Uiso   1.00
Cl1489 Cl    0.64476   0.91621   0.67136   0.00000  Uiso   1.00
Cl1490 Cl    0.58558   0.64620   0.32924   0.00000  Uiso   1.00
Cl1491 Cl    0.60377   0.66418   0.17076   0.00000  Uiso   1.00
Cl1492 Cl    0.91406   0.85322   0.67068   0.00000  Uiso   1.00
Cl1493 Cl    0.64552   0.91514   0.32902   0.00000  Uiso   1.00
Cl1494 Cl    0.85524   0.58378   0.67136   0.00000  Uiso   1.00
Cl1495 Cl    0.99588   0.82402   0.39005   0.00000  Uiso   1.00
Cl1496 Cl    0.98785   0.67733   0.61123   0.00000  Uiso   1.00
Cl1497 Cl    0.67606   0.99450   0.39004   0.00000  Uiso   1.00
Cl1498 Cl    0.82174   0.98272   0.61071   0.00000  Uiso   1.00
Cl1499 Cl    0.50413   0.67598   0.39005   0.00000  Uiso   1.00
Cl1500 Cl    0.51214   0.82267   0.61123   0.00000  Uiso   1.00
Cl1501 Cl    0.82395   0.50550   0.39004   0.00000  Uiso   1.00
Cl1502 Cl    0.89725   0.83651   0.82953   0.00000  Uiso   1.00
Cl1503 Cl    0.67826   0.51729   0.61071   0.00000  Uiso   1.00
Cl1504 Cl    0.73399   0.57227   0.88981   0.00000  Uiso   1.00
Cl1505 Cl    0.74731   0.92612   0.11075   0.00000  Uiso   1.00
Cl1506 Cl    0.92609   0.75452   0.88957   0.00000  Uiso   1.00
Cl1507 Cl    0.57254   0.73710   0.11131   0.00000  Uiso   1.00
Cl1508 Cl    0.76601   0.92773   0.88982   0.00000  Uiso   1.00
Cl1509 Cl    0.75270   0.57388   0.11074   0.00000  Uiso   1.00
Cl1510 Cl    0.57391   0.74548   0.88958   0.00000  Uiso   1.00
Cl1511 Cl    0.92746   0.76291   0.11131   0.00000  Uiso   1.00
Cl1512 Cl    0.83461   0.60468   0.17106   0.00000  Uiso   1.00
Cl1513 Cl    0.66604   0.89476   0.82884   0.00000  Uiso   1.00
Cl1514 Cl    0.89624   0.83583   0.17076   0.00000  Uiso   1.00
Cl1515 Cl    0.60276   0.66349   0.82953   0.00000  Uiso   1.00
Cl1516 Cl    0.66295   0.60263   0.82958   0.00000  Uiso   1.00
H1517  H     0.93579   0.64331   0.42218   0.00000  Uiso   1.00
H1518  H     0.99313   0.89957   0.58920   0.00000  Uiso   1.00
H1519  H     0.91038   0.82979   0.98791   0.00000  Uiso   1.00
H1520  H     0.86234   0.81878   0.91520   0.00000  Uiso   1.00
H1521  H     0.84638   0.82273   0.96461   0.00000  Uiso   1.00
H1522  H     0.87361   0.88581   0.96859   0.00000  Uiso   1.00
H1523  H     0.84050   0.88183   0.92995   0.00000  Uiso   1.00
H1524  H     0.88866   0.88172   0.91858   0.00000  Uiso   1.00
H1525  H     0.60999   0.78396   0.05046   0.00000  Uiso   1.00
H1526  H     0.62711   0.76754   0.00420   0.00000  Uiso   1.00
H1527  H     0.65453   0.74426   0.08516   0.00000  Uiso   1.00
H1528  H     0.67043   0.72612   0.03944   0.00000  Uiso   1.00
H1529  H     0.50736   0.92192   0.54500   0.00000  Uiso   1.00
H1530  H     0.69186   0.78762   0.01921   0.00000  Uiso   1.00
H1531  H     0.71193   0.77460   0.06501   0.00000  Uiso   1.00
H1532  H     0.67488   0.80716   0.06420   0.00000  Uiso   1.00
H1533  H     0.94338   0.93689   0.52877   0.00000  Uiso   1.00
H1534  H     0.95414   0.95291   0.57695   0.00000  Uiso   1.00
H1535  H     0.92710   0.91204   0.57100   0.00000  Uiso   1.00
H1536  H     0.85254   0.93773   0.42247   0.00000  Uiso   1.00
H1537  H     0.82333   0.92747   0.46276   0.00000  Uiso   1.00
H1538  H     0.90687   0.93956   0.46697   0.00000  Uiso   1.00
H1539  H     0.87742   0.92838   0.50737   0.00000  Uiso   1.00
H1540  H     0.85997   0.86962   0.47456   0.00000  Uiso   1.00
H1541  H     0.92720   0.68120   0.45357   0.00000  Uiso   1.00
H1542  H     0.90857   0.87299   0.48243   0.00000  Uiso   1.00
H1543  H     0.89016   0.88073   0.43448   0.00000  Uiso   1.00
H1544  H     0.65422   0.95523   0.55618   0.00000  Uiso   1.00
H1545  H     0.62885   0.96279   0.51145   0.00000  Uiso   1.00
H1546  H     0.60398   0.99030   0.59192   0.00000  Uiso   1.00
H1547  H     0.57849   0.99111   0.54712   0.00000  Uiso   1.00
H1548  H     0.57806   0.92293   0.54572   0.00000  Uiso   1.00
H1549  H     0.55923   0.93992   0.59068   0.00000  Uiso   1.00
H1550  H     0.60493   0.92157   0.58985   0.00000  Uiso   1.00
H1551  H     0.56422   0.85668   0.42218   0.00000  Uiso   1.00
H1552  H     0.93215   0.60023   0.47933   0.00000  Uiso   1.00
H1553  H     0.57281   0.81879   0.45358   0.00000  Uiso   1.00
H1554  H     0.56786   0.89977   0.47933   0.00000  Uiso   1.00
H1555  H     0.57948   0.86145   0.51002   0.00000  Uiso   1.00
H1556  H     0.63471   0.84912   0.46887   0.00000  Uiso   1.00
H1557  H     0.63514   0.89457   0.48923   0.00000  Uiso   1.00
H1558  H     0.62332   0.88815   0.43877   0.00000  Uiso   1.00
H1559  H     0.54229   0.64612   0.54975   0.00000  Uiso   1.00
H1560  H     0.52671   0.62354   0.50567   0.00000  Uiso   1.00
H1561  H     0.50689   0.60044   0.58921   0.00000  Uiso   1.00
H1562  H     0.99267   0.57808   0.54501   0.00000  Uiso   1.00
H1563  H     0.92053   0.63855   0.51002   0.00000  Uiso   1.00
H1564  H     0.55666   0.56312   0.52879   0.00000  Uiso   1.00
H1565  H     0.54590   0.54710   0.57698   0.00000  Uiso   1.00
H1566  H     0.57293   0.58798   0.57101   0.00000  Uiso   1.00
H1567  H     0.64741   0.56225   0.42246   0.00000  Uiso   1.00
H1568  H     0.67668   0.57252   0.46270   0.00000  Uiso   1.00
H1569  H     0.59314   0.56044   0.46703   0.00000  Uiso   1.00
H1570  H     0.62264   0.57163   0.50739   0.00000  Uiso   1.00
H1571  H     0.64006   0.63038   0.47453   0.00000  Uiso   1.00
H1572  H     0.59147   0.62702   0.48248   0.00000  Uiso   1.00
H1573  H     0.60982   0.61926   0.43450   0.00000  Uiso   1.00
H1574  H     0.86530   0.65087   0.46887   0.00000  Uiso   1.00
H1575  H     0.84579   0.54477   0.55618   0.00000  Uiso   1.00
H1576  H     0.87115   0.53720   0.51145   0.00000  Uiso   1.00
H1577  H     0.89603   0.50968   0.59192   0.00000  Uiso   1.00
H1578  H     0.92151   0.50888   0.54712   0.00000  Uiso   1.00
H1579  H     0.92195   0.57706   0.54571   0.00000  Uiso   1.00
H1580  H     0.94079   0.56007   0.59067   0.00000  Uiso   1.00
H1581  H     0.89509   0.57842   0.58985   0.00000  Uiso   1.00
H1582  H     0.71351   0.87150   0.92927   0.00000  Uiso   1.00
H1583  H     0.69737   0.91488   0.94538   0.00000  Uiso   1.00
H1584  H     0.71397   0.84889   0.99924   0.00000  Uiso   1.00
H1585  H     0.86487   0.60542   0.48923   0.00000  Uiso   1.00
H1586  H     0.69294   0.89139   0.01353   0.00000  Uiso   1.00
H1587  H     0.64042   0.87867   0.96829   0.00000  Uiso   1.00
H1588  H     0.64582   0.84393   0.00502   0.00000  Uiso   1.00
H1589  H     0.66098   0.83511   0.95601   0.00000  Uiso   1.00
H1590  H     0.68356   0.58229   0.05382   0.00000  Uiso   1.00
H1591  H     0.68711   0.60866   0.00914   0.00000  Uiso   1.00
H1592  H     0.70160   0.63819   0.09169   0.00000  Uiso   1.00
H1593  H     0.70316   0.66404   0.04713   0.00000  Uiso   1.00
H1594  H     0.63690   0.65142   0.03585   0.00000  Uiso   1.00
H1595  H     0.64404   0.67254   0.08262   0.00000  Uiso   1.00
H1596  H     0.87669   0.61184   0.43877   0.00000  Uiso   1.00
H1597  H     0.63516   0.62418   0.07979   0.00000  Uiso   1.00
H1598  H     0.57302   0.67378   0.93830   0.00000  Uiso   1.00
H1599  H     0.58960   0.67020   0.98791   0.00000  Uiso   1.00
H1600  H     0.63768   0.68123   0.91524   0.00000  Uiso   1.00
H1601  H     0.65361   0.67725   0.96466   0.00000  Uiso   1.00
H1602  H     0.62635   0.61417   0.96858   0.00000  Uiso   1.00
H1603  H     0.65950   0.61817   0.92998   0.00000  Uiso   1.00
H1604  H     0.61135   0.61830   0.91856   0.00000  Uiso   1.00
H1605  H     0.89000   0.71604   0.05046   0.00000  Uiso   1.00
H1606  H     0.87289   0.73247   0.00419   0.00000  Uiso   1.00
H1607  H     0.95772   0.85390   0.54974   0.00000  Uiso   1.00
H1608  H     0.84547   0.75576   0.08515   0.00000  Uiso   1.00
H1609  H     0.82957   0.77389   0.03942   0.00000  Uiso   1.00
H1610  H     0.80813   0.71239   0.01920   0.00000  Uiso   1.00
H1611  H     0.78807   0.72541   0.06500   0.00000  Uiso   1.00
H1612  H     0.82512   0.69285   0.06419   0.00000  Uiso   1.00
H1613  H     0.78647   0.62851   0.92928   0.00000  Uiso   1.00
H1614  H     0.80262   0.58513   0.94538   0.00000  Uiso   1.00
H1615  H     0.78601   0.65111   0.99925   0.00000  Uiso   1.00
H1616  H     0.80704   0.60861   0.01353   0.00000  Uiso   1.00
H1617  H     0.85956   0.62133   0.96829   0.00000  Uiso   1.00
H1618  H     0.97331   0.87646   0.50566   0.00000  Uiso   1.00
H1619  H     0.85416   0.65608   0.00502   0.00000  Uiso   1.00
H1620  H     0.83900   0.66490   0.95602   0.00000  Uiso   1.00
H1621  H     0.81648   0.91768   0.05365   0.00000  Uiso   1.00
H1622  H     0.81279   0.89117   0.00908   0.00000  Uiso   1.00
H1623  H     0.79847   0.86195   0.09177   0.00000  Uiso   1.00
H1624  H     0.79674   0.83595   0.04733   0.00000  Uiso   1.00
H1625  H     0.86298   0.84840   0.03580   0.00000  Uiso   1.00
H1626  H     0.85593   0.82747   0.08268   0.00000  Uiso   1.00
H1627  H     0.86489   0.87579   0.07961   0.00000  Uiso   1.00
H1628  H     0.92699   0.82622   0.93831   0.00000  Uiso   1.00
O1629  O     0.75000   0.50000   0.25000   0.00000  Uiso   1.00
O1630  O     0.75000   0.96964   0.66245   0.00000  Uiso   1.00
O1631  O     0.96964   0.75000   0.33755   0.00000  Uiso   1.00
O1632  O     0.53037   0.75000   0.66245   0.00000  Uiso   1.00
O1633  O     0.50000   0.71964   0.83755   0.00000  Uiso   1.00
O1634  O     0.50000   0.78037   0.16245   0.00000  Uiso   1.00
O1635  O     0.78037   0.50000   0.83755   0.00000  Uiso   1.00
O1636  O     0.71964   0.50000   0.16245   0.00000  Uiso   1.00
O1637  O     0.50000   0.78037   0.83755   0.00000  Uiso   1.00
O1638  O     0.50000   0.71964   0.16245   0.00000  Uiso   1.00
O1639  O     0.71964   0.50000   0.83755   0.00000  Uiso   1.00
O1640  O     0.75000   0.50000   0.75000   0.00000  Uiso   1.00
O1641  O     0.78037   0.50000   0.16245   0.00000  Uiso   1.00
O1642  O     0.70725   0.57308   0.27302   0.00000  Uiso   1.00
O1643  O     0.79276   0.92693   0.72698   0.00000  Uiso   1.00
O1644  O     0.92693   0.70725   0.27302   0.00000  Uiso   1.00
O1645  O     0.57308   0.79276   0.72698   0.00000  Uiso   1.00
O1646  O     0.79276   0.92693   0.27302   0.00000  Uiso   1.00
O1647  O     0.70725   0.57308   0.72698   0.00000  Uiso   1.00
O1648  O     0.57308   0.79276   0.27302   0.00000  Uiso   1.00
O1649  O     0.92693   0.70725   0.72698   0.00000  Uiso   1.00
O1650  O     0.70725   0.92693   0.72698   0.00000  Uiso   1.00
O1651  O     0.50000   0.75000   0.25000   0.00000  Uiso   1.00
O1652  O     0.79276   0.57308   0.27302   0.00000  Uiso   1.00
O1653  O     0.92693   0.79276   0.72698   0.00000  Uiso   1.00
O1654  O     0.57308   0.70725   0.27302   0.00000  Uiso   1.00
O1655  O     0.79276   0.57308   0.72698   0.00000  Uiso   1.00
O1656  O     0.70725   0.92693   0.27302   0.00000  Uiso   1.00
O1657  O     0.57308   0.70725   0.72698   0.00000  Uiso   1.00
O1658  O     0.92693   0.79276   0.27302   0.00000  Uiso   1.00
O1659  O     0.95725   0.82308   0.77302   0.00000  Uiso   1.00
O1660  O     0.54276   0.67693   0.22698   0.00000  Uiso   1.00
O1661  O     0.67693   0.95725   0.77302   0.00000  Uiso   1.00
O1662  O     0.50000   0.75000   0.75000   0.00000  Uiso   1.00
O1663  O     0.82308   0.54276   0.22698   0.00000  Uiso   1.00
O1664  O     0.54276   0.67693   0.77302   0.00000  Uiso   1.00
O1665  O     0.95725   0.82308   0.22698   0.00000  Uiso   1.00
O1666  O     0.82308   0.54276   0.77302   0.00000  Uiso   1.00
O1667  O     0.67693   0.95725   0.22698   0.00000  Uiso   1.00
O1668  O     0.95725   0.67693   0.22698   0.00000  Uiso   1.00
O1669  O     0.54276   0.82308   0.77302   0.00000  Uiso   1.00
O1670  O     0.67693   0.54276   0.22698   0.00000  Uiso   1.00
O1671  O     0.82308   0.95725   0.77302   0.00000  Uiso   1.00
O1672  O     0.54276   0.82308   0.22698   0.00000  Uiso   1.00
O1673  O     0.75000   0.96964   0.33755   0.00000  Uiso   1.00
O1674  O     0.95725   0.67693   0.77302   0.00000  Uiso   1.00
O1675  O     0.82308   0.95725   0.22698   0.00000  Uiso   1.00
O1676  O     0.67693   0.54276   0.77302   0.00000  Uiso   1.00
O1677  O     0.97759   0.65234   0.46070   0.00000  Uiso   1.00
O1678  O     0.51358   0.84991   0.53812   0.00000  Uiso   1.00
O1679  O     0.84834   0.98048   0.46104   0.00000  Uiso   1.00
O1680  O     0.64974   0.50955   0.53811   0.00000  Uiso   1.00
O1681  O     0.52242   0.84766   0.46070   0.00000  Uiso   1.00
O1682  O     0.98644   0.65009   0.53812   0.00000  Uiso   1.00
O1683  O     0.65166   0.51951   0.46104   0.00000  Uiso   1.00
O1684  O     0.75000   0.53037   0.66245   0.00000  Uiso   1.00
O1685  O     0.85026   0.99045   0.53812   0.00000  Uiso   1.00
O1686  O     0.75102   0.89932   0.96199   0.00000  Uiso   1.00
O1687  O     0.73606   0.59952   0.03856   0.00000  Uiso   1.00
O1688  O     0.59598   0.72118   0.96089   0.00000  Uiso   1.00
O1689  O     0.90133   0.77066   0.03822   0.00000  Uiso   1.00
O1690  O     0.74896   0.60068   0.96199   0.00000  Uiso   1.00
O1691  O     0.76392   0.90048   0.03857   0.00000  Uiso   1.00
O1692  O     0.90402   0.77882   0.96088   0.00000  Uiso   1.00
O1693  O     0.59867   0.72934   0.03822   0.00000  Uiso   1.00
O1694  O     0.53037   0.75000   0.33755   0.00000  Uiso   1.00
O1695  O     0.96964   0.75000   0.66245   0.00000  Uiso   1.00
O1696  O     0.75000   0.53037   0.33755   0.00000  Uiso   1.00
Zn1697 Zn    0.70660   0.50000   0.21735   0.00000  Uiso   1.00
Zn1698 Zn    0.54341   0.75000   0.28265   0.00000  Uiso   1.00
Zn1699 Zn    0.75000   0.95660   0.71735   0.00000  Uiso   1.00
Zn1700 Zn    0.75000   0.54341   0.28265   0.00000  Uiso   1.00
Zn1701 Zn    0.54341   0.75000   0.71735   0.00000  Uiso   1.00
Zn1702 Zn    0.95660   0.75000   0.28265   0.00000  Uiso   1.00
Zn1703 Zn    0.75000   0.54341   0.71735   0.00000  Uiso   1.00
Zn1704 Zn    0.75000   0.95660   0.28265   0.00000  Uiso   1.00
Zn1705 Zn    0.79341   0.50000   0.78265   0.00000  Uiso   1.00
Zn1706 Zn    0.50000   0.70660   0.21735   0.00000  Uiso   1.00
Zn1707 Zn    0.50000   0.79341   0.78265   0.00000  Uiso   1.00
Zn1708 Zn    0.79341   0.50000   0.21735   0.00000  Uiso   1.00
Zn1709 Zn    0.70660   0.50000   0.78265   0.00000  Uiso   1.00
Zn1710 Zn    0.50000   0.79341   0.21735   0.00000  Uiso   1.00
Zn1711 Zn    0.50000   0.70660   0.78265   0.00000  Uiso   1.00
Zn1712 Zn    0.95660   0.75000   0.71735   0.00000  Uiso   1.00
loop_
_geom_bond_atom_site_label_1
_geom_bond_atom_site_label_2
_geom_bond_distance
_geom_bond_site_symmetry_2
_ccdc_geom_bond_type
C1     C79     1.396   .     A
C1     C4      1.412   .     A
C1     Cl639   1.778   1_455 S
C2     Cl221   1.779   .     S
C2     C14     1.413   .     A
C2     C956    1.397   .     A
C3     C163    1.415   .     A
C3     C106    1.418   .     A
C3     C38     1.426   .     A
C4     C107    1.411   .     A
C4     C34     1.422   .     A
C5     C97     1.416   .     A
C5     C109    1.420   .     A
C5     C464    1.429   .     S
C6     C110    1.412   .     A
C6     C37     1.423   .     A
C6     C108    1.412   .     A
C7     C119    1.415   .     A
C7     C111    1.417   .     A
C7     C894    1.426   .     S
C8     C35     1.413   .     A
C8     C112    1.416   .     A
C8     C895    1.424   .     A
C9     C46     1.413   .     A
C9     C113    1.414   .     A
C9     C40     1.425   .     S
C10    C114    1.411   .     A
C10    C57     1.412   .     A
C10    C41     1.423   .     S
C11    C115    1.419   .     A
C11    C68     1.416   .     A
C11    C470    1.429   .     A
C12    C174    1.413   .     A
C12    C116    1.416   .     A
C12    C39     1.424   .     S
C13    Cl222   1.780   .     S
C13    C15     1.412   .     A
C13    C529    1.396   .     A
C14    C896    1.425   .     A
C14    C117    1.414   .     A
C15    C118    1.411   .     A
C15    C469    1.423   .     A
C16    C120    1.419   .     A
C16    C24     1.416   .     A
C16    C42     1.429   .     S
C17    C164    1.407   .     A
C17    C166    1.407   .     A
C17    C136    1.451   .     S
C18    C137    1.452   .     S
C18    C165    1.407   .     A
C18    C162    1.407   .     A
C19    C129    1.452   .     S
C19    C161    1.407   .     A
C19    C168    1.407   .     A
C20    C160    1.408   .     A
C20    C167    1.408   .     A
C20    C131    1.454   .     S
C21    C170    1.407   .     A
C21    C159    1.407   .     A
C21    C132    1.451   .     S
C22    C133    1.452   .     S
C22    C158    1.407   .     A
C22    C169    1.407   .     A
C23    C134    1.452   .     S
C23    C157    1.407   .     A
C23    C172    1.407   .     A
C24    Cl223   1.779   .     S
C24    C102    1.398   .     S
C25    C171    1.408   .     A
C25    C135    1.454   .     S
C25    C156    1.408   .     A
C26    C155    1.407   .     A
C26    C145    1.451   .     S
C26    C175    1.407   .     A
C27    C154    1.408   .     A
C27    C173    1.408   .     A
C27    C146    1.453   .     S
C28    C153    1.407   .     A
C28    C177    1.406   .     A
C28    C138    1.451   .     S
C29    C151    1.407   .     A
C29    C139    1.452   .     S
C29    C176    1.407   .     A
C30    C150    1.407   .     A
C30    C140    1.451   .     S
C30    C179    1.407   .     A
C31    C178    1.408   .     A
C31    C149    1.408   .     A
C31    C142    1.453   .     S
C32    C181    1.406   .     A
C32    C143    1.451   .     S
C32    C148    1.407   .     A
C33    C147    1.407   .     A
C33    C180    1.407   .     A
C33    C144    1.452   .     S
C34    C36     1.420   .     A
C34    C610    1.422   1_455 S
C35    Cl224   1.777   .     S
C35    C955    1.398   .     A
C36    C183    1.429   .     A
C36    C433    1.429   1_455 S
C37    C38     1.419   .     A
C37    C1040   1.423   1_545 S
C38    C863    1.426   1_545 S
C39    C864    1.424   1_545 A
C39    C40     1.420   1_556 S
C40    C870    1.425   1_545 A
C40    C39     1.420   1_554 S
C41    C443    1.423   1_455 A
C41    C42     1.421   1_556 S
C42    C439    1.429   1_455 A
C42    C41     1.421   1_554 S
C43    C44     1.529   .     S
C43    O393    1.419   .     S
C43    H233    1.111   .     S
C43    H257    1.118   .     S
C44    H279    1.110   .     S
C44    H268    1.112   .     S
C44    C45     1.526   .     S
C45    H301    1.110   .     S
C45    H312    1.111   .     S
C45    H290    1.111   .     S
C46    Cl225   1.779   .     S
C46    C100    1.397   .     S
C47    H334    1.113   .     S
C47    H323    1.116   .     S
C47    C48     1.529   .     S
C47    O822    1.414   .     S
C48    C49     1.525   .     S
C48    H234    1.111   .     S
C48    H673    1.111   .     S
C49    H250    1.110   .     S
C49    H249    1.109   .     S
C49    H251    1.111   .     S
C50    H252    1.111   .     S
C50    H253    1.119   .     S
C50    C51     1.528   .     S
C50    O395    1.420   .     S
C51    C52     1.526   .     S
C51    H254    1.112   .     S
C51    H255    1.111   .     S
C52    H258    1.110   .     S
C52    H256    1.111   .     S
C52    H259    1.111   .     S
C53    C54     1.529   .     S
C53    H261    1.114   .     S
C53    H260    1.116   .     S
C53    O1252   1.414   .     S
C54    H263    1.111   .     S
C54    C55     1.525   .     S
C54    H262    1.111   .     S
C55    H265    1.110   .     S
C55    H264    1.108   .     S
C55    H266    1.111   .     S
C56    H267    1.111   .     S
C56    C58     1.529   .     S
C56    H269    1.118   .     S
C56    O397    1.419   .     S
C57    Cl226   1.780   .     S
C57    C101    1.396   .     S
C58    H270    1.112   .     S
C58    C59     1.526   .     S
C58    H271    1.110   .     S
C59    H272    1.111   .     S
C59    H274    1.111   .     S
C59    H273    1.110   .     S
C60    H275    1.116   .     S
C60    H276    1.113   .     S
C60    C61     1.529   .     S
C60    O826    1.414   1_455 S
C61    H277    1.111   .     S
C61    C62     1.525   .     S
C61    H706    1.111   1_455 S
C62    H281    1.110   .     S
C62    H282    1.111   .     S
C62    H280    1.109   .     S
C63    O399    1.420   .     S
C63    H284    1.119   .     S
C63    C64     1.528   .     S
C63    H283    1.111   .     S
C64    H285    1.112   .     S
C64    C65     1.526   .     S
C64    H286    1.111   .     S
C65    H288    1.110   .     S
C65    H287    1.111   .     S
C65    H289    1.111   .     S
C66    C67     1.529   .     S
C66    H291    1.116   .     S
C66    H292    1.114   .     S
C66    O1257   1.414   1_545 S
C67    H294    1.111   .     S
C67    C69     1.525   .     S
C67    H293    1.111   .     S
C68    C530    1.398   .     A
C68    Cl227   1.779   .     S
C69    H296    1.110   .     S
C69    H297    1.111   .     S
C69    H295    1.108   .     S
C70    H299    1.117   .     S
C70    C71     1.534   .     S
C70    O402    1.419   .     S
C70    H298    1.111   .     S
C71    C72     1.527   .     S
C71    H300    1.111   .     S
C71    H302    1.111   1_556 S
C72    H303    1.111   .     S
C72    H305    1.111   .     S
C72    H304    1.110   1_556 S
C73    C74     1.529   .     S
C73    O403    1.413   .     S
C73    H307    1.114   .     S
C73    H306    1.116   .     S
C74    H308    1.111   .     S
C74    H309    1.112   .     S
C74    C75     1.526   .     S
C75    H310    1.109   .     S
C75    H311    1.110   .     S
C75    H313    1.111   .     S
C76    H315    1.115   .     S
C76    H314    1.114   .     S
C76    O404    1.413   .     S
C76    C77     1.529   .     S
C77    C78     1.526   .     S
C77    H317    1.112   .     S
C77    H316    1.112   .     S
C78    H319    1.111   .     S
C78    H320    1.111   .     S
C78    H318    1.111   .     S
C79    C123    1.450   .     S
C79    C558    1.396   1_455 S
C80    H321    1.115   .     S
C80    H322    1.114   .     S
C80    C81     1.528   .     S
C80    O405    1.415   .     S
C81    H325    1.111   .     S
C81    C82     1.525   .     S
C81    H324    1.111   .     S
C82    H328    1.111   .     S
C82    H326    1.110   .     S
C82    H327    1.110   .     S
C83    H329    1.111   .     S
C83    C84     1.534   .     S
C83    H330    1.117   .     S
C83    O406    1.419   .     S
C84    H331    1.111   .     S
C84    C85     1.527   .     S
C84    H332    1.111   1_556 S
C85    H336    1.111   .     S
C85    H333    1.111   .     S
C85    H335    1.110   1_556 S
C86    O407    1.413   .     S
C86    H337    1.116   .     S
C86    C87     1.528   .     S
C86    H338    1.114   .     S
C87    H339    1.111   .     S
C87    C88     1.526   .     S
C87    H340    1.111   .     S
C88    H341    1.109   .     S
C88    H343    1.110   .     S
C88    H342    1.110   .     S
C89    H344    1.114   .     S
C89    C91     1.529   .     S
C89    H235    1.115   .     S
C89    O408    1.413   .     S
C90    C525    1.398   1_455 A
C90    C124    1.455   .     S
C90    C141    1.398   .     S
C91    H237    1.112   .     S
C91    C92     1.526   .     S
C91    H236    1.112   .     S
C92    H239    1.111   .     S
C92    H238    1.111   .     S
C92    H240    1.111   .     S
C93    H242    1.114   .     S
C93    H241    1.115   .     S
C93    O409    1.415   .     S
C93    C94     1.528   .     S
C94    H243    1.111   .     S
C94    C95     1.525   .     S
C94    H244    1.111   .     S
C95    H246    1.110   .     S
C95    H247    1.110   .     S
C95    H248    1.111   .     S
C96    C121    1.450   .     S
C96    C1008   1.397   1_545 A
C96    C108    1.397   .     S
C97    Cl212   1.779   .     S
C97    C518    1.398   .     A
C98    C122    1.454   .     S
C98    C163    1.398   .     A
C98    C975    1.398   1_545 S
C99    C127    1.454   .     S
C99    C891    1.398   1_545 A
C99    C174    1.398   .     S
C100   C858    1.397   1_545 A
C100   C128    1.451   .     S
C101   C441    1.396   1_455 A
C101   C125    1.449   .     S
C102   C126    1.454   .     S
C102   C496    1.398   1_455 A
C103   O393    1.385   .     S
C103   C109    1.396   .     A
C103   C182    1.411   .     A
C104   C183    1.420   .     A
C104   C107    1.396   .     A
C104   O394    1.383   .     S
C105   C184    1.412   .     A
C105   O395    1.384   .     S
C105   C111    1.394   .     A
C106   O396    1.382   .     S
C106   C110    1.394   .     A
C107   O397    1.385   .     S
C108   Cl1069  1.778   1_545 S
C109   O398    1.383   .     S
C110   O399    1.384   .     S
C111   O401    1.382   .     S
C112   O402    1.385   .     S
C112   C117    1.394   1_556 S
C113   O403    1.383   .     S
C113   C116    1.394   1_554 S
C114   O404    1.383   .     S
C114   C120    1.398   1_556 S
C115   O405    1.384   .     S
C115   C118    1.398   1_554 S
C116   O406    1.385   .     S
C116   C113    1.394   1_556 S
C117   O407    1.383   .     S
C117   C112    1.394   1_554 S
C118   O408    1.383   .     S
C118   C115    1.398   1_556 S
C119   Cl214   1.777   .     S
C119   C954    1.398   .     S
C120   O409    1.384   .     S
C120   C114    1.398   1_554 S
C121   O1245   1.274   1_545 A
C121   O412    1.274   .     S
C122   O400    1.275   .     A
C122   O1202   1.275   1_545 S
C123   O410    1.274   .     A
C123   O775    1.274   1_455 S
C124   O839    1.275   1_455 A
C124   O348    1.275   .     S
C125   O353    1.274   .     A
C125   O349    1.274   .     S
C126   O350    1.275   .     S
C126   O354    1.275   .     S
C127   O351    1.275   .     S
C127   O355    1.275   .     S
C128   O352    1.274   .     A
C128   O357    1.274   .     A
C129   O386    1.278   .     A
C129   O358    1.278   .     A
C130   C182    1.412   .     A
C130   C507    1.396   .     S
C130   Cl643   1.778   .     S
C131   O387    1.278   .     A
C131   O359    1.279   .     A
C132   O360    1.278   .     A
C132   O384    1.278   .     A
C133   O385    1.278   .     A
C133   O361    1.278   .     A
C134   O391    1.278   .     A
C134   O362    1.278   .     A
C135   O392    1.278   .     A
C135   O363    1.279   .     A
C136   O388    1.278   .     A
C136   O364    1.278   .     A
C137   O390    1.278   .     A
C137   O365    1.278   .     A
C138   O366    1.278   .     A
C138   O377    1.278   .     A
C139   O379    1.278   .     A
C139   O368    1.278   .     A
C140   O375    1.277   .     A
C140   O369    1.278   .     A
C141   C183    1.416   .     A
C141   Cl216   1.779   .     S
C142   O370    1.278   .     A
C142   O376    1.278   .     A
C143   O371    1.278   .     A
C143   O382    1.278   .     A
C144   O383    1.278   .     A
C144   O372    1.278   .     A
C145   O380    1.277   .     A
C145   O373    1.278   .     A
C146   O381    1.278   .     A
C146   O374    1.278   .     A
C147   C164    1.396   .     A
C147   Cl185   1.771   .     S
C148   C162    1.397   .     A
C148   Cl196   1.772   .     S
C149   C161    1.396   .     A
C149   Cl207   1.770   .     S
C150   C160    1.396   .     A
C150   Cl218   1.772   .     S
C151   C159    1.396   .     A
C151   Cl228   1.771   .     S
C152   C952    1.397   .     A
C152   C184    1.412   .     A
C152   Cl1073  1.778   .     S
C153   C158    1.397   .     A
C153   Cl229   1.772   .     S
C154   C157    1.396   .     A
C154   Cl230   1.770   .     S
C155   C156    1.396   .     A
C155   Cl231   1.772   .     S
C156   Cl232   1.769   .     S
C157   Cl186   1.772   .     S
C158   Cl187   1.771   .     S
C159   Cl188   1.772   .     S
C160   Cl189   1.769   .     S
C161   Cl190   1.772   .     S
C162   Cl191   1.771   .     S
C163   Cl219   1.777   .     S
C164   Cl192   1.772   .     S
C165   Cl193   1.770   .     S
C165   C181    1.396   .     A
C166   C180    1.396   .     A
C166   Cl194   1.772   .     S
C167   Cl195   1.769   .     S
C167   C179    1.396   .     A
C168   Cl197   1.772   .     S
C168   C178    1.396   .     A
C169   C177    1.396   .     A
C169   Cl198   1.770   .     S
C170   C176    1.396   .     A
C170   Cl199   1.772   .     S
C171   C175    1.396   .     A
C171   Cl200   1.769   .     S
C172   Cl201   1.772   .     S
C172   C173    1.396   .     A
C173   Cl202   1.771   .     S
C174   Cl220   1.777   .     S
C175   Cl203   1.773   .     S
C176   Cl204   1.771   .     S
C177   Cl205   1.772   .     S
C178   Cl206   1.771   .     S
C179   Cl208   1.773   .     S
C180   Cl209   1.771   .     S
C181   Cl210   1.772   .     S
C182   C462    1.422   .     S
C184   C893    1.423   .     S
Cl211  C429    1.778   .     S
Cl213  C964    1.778   .     S
Cl215  C558    1.778   1_455 S
Cl217  C1008   1.778   1_545 S
H245   C476    1.111   1_455 S
H278   C489    1.111   .     S
H302   C71     1.111   1_554 S
H304   C72     1.110   1_554 S
H332   C84     1.111   1_554 S
H335   C85     1.110   1_554 S
O345   Zn1276  1.945   1_545 S
O345   Zn413   1.945   .     S
O345   Zn424   1.945   .     S
O345   Zn416   1.945   .     S
O346   Zn415   1.948   .     S
O346   C978    1.275   .     S
O347   Zn418   1.948   .     S
O347   C551    1.274   .     S
O348   Zn417   1.948   .     S
O349   Zn427   1.948   .     S
O350   Zn426   1.948   .     S
O351   Zn421   1.948   .     S
O352   Zn413   1.948   .     S
O353   Zn423   1.948   .     S
O354   Zn422   1.948   .     S
O355   Zn425   1.948   .     S
O356   Zn419   1.945   .     S
O356   Zn1271  1.945   1_545 S
O356   Zn421   1.945   .     S
O356   Zn425   1.945   .     S
O357   Zn424   1.948   .     S
O358   Zn416   1.933   .     S
O359   Zn415   1.933   .     S
O360   Zn418   1.932   .     S
O361   Zn417   1.932   .     S
O362   Zn420   1.933   .     S
O363   Zn419   1.933   .     S
O364   Zn414   1.932   .     S
O365   Zn428   1.932   .     S
O366   Zn415   1.932   .     S
O367   Zn846   1.945   1_455 S
O367   Zn414   1.945   .     S
O367   Zn422   1.945   .     S
O367   Zn426   1.945   .     S
O368   Zn416   1.932   .     S
O369   Zn428   1.933   .     S
O370   Zn414   1.933   .     S
O371   Zn419   1.932   .     S
O372   Zn420   1.932   .     S
O373   Zn417   1.933   .     S
O374   Zn418   1.933   .     S
O375   Zn851   1.933   .     S
O376   Zn422   1.933   .     S
O377   Zn1281  1.932   .     S
O378   Zn856   1.945   1_455 S
O378   Zn417   1.945   .     S
O378   Zn423   1.945   .     S
O378   Zn427   1.945   .     S
O379   Zn424   1.932   .     S
O380   Zn427   1.933   .     S
O381   Zn854   1.933   .     S
O382   Zn421   1.932   .     S
O383   Zn1269  1.932   .     S
O384   Zn850   1.932   .     S
O385   Zn423   1.932   .     S
O386   Zn413   1.933   .     S
O387   Zn1277  1.933   .     S
O388   Zn426   1.932   .     S
O389   Zn420   1.948   .     S
O389   C977    1.274   .     A
O390   Zn855   1.932   .     S
O391   Zn1280  1.933   .     S
O392   Zn425   1.933   .     S
O394   C475    1.414   1_455 S
O396   C909    1.414   1_545 S
O398   C488    1.414   .     S
O400   Zn419   1.948   .     S
O401   C922    1.414   .     S
O410   Zn414   1.948   .     S
O411   Zn428   1.948   .     S
O411   C552    1.275   .     A
O412   Zn416   1.948   .     S
Zn413  O1239   1.932   1_545 S
Zn415  O1212   1.945   .     S
Zn418  O795    1.945   .     S
Zn420  O1201   1.945   .     S
Zn421  O1243   1.933   1_545 S
Zn422  O812    1.932   1_455 S
Zn423  O803    1.933   1_455 S
Zn424  O1247   1.933   1_545 S
Zn425  O1233   1.932   1_545 S
Zn426  O809    1.933   1_455 S
Zn427  O818    1.932   1_455 S
Zn428  O806    1.945   .     S
C429   C507    1.396   .     A
C429   C432    1.412   .     A
C430   Cl649   1.779   .     S
C430   C442    1.413   .     A
C430   C1384   1.397   .     A
C431   C591    1.415   .     A
C431   C534    1.418   .     A
C431   C466    1.426   .     A
C432   C535    1.411   .     A
C432   C462    1.422   .     A
C433   C525    1.416   .     A
C433   C537    1.420   .     A
C433   C36     1.429   1_655 S
C434   C538    1.412   .     A
C434   C465    1.423   .     A
C434   C536    1.412   .     A
C435   C547    1.415   .     A
C435   C539    1.417   .     A
C435   C1322   1.426   .     S
C436   C463    1.413   .     A
C436   C540    1.416   .     A
C436   C1323   1.424   .     A
C437   C474    1.413   .     A
C437   C541    1.414   .     A
C437   C468    1.425   .     S
C438   C542    1.411   .     A
C438   C485    1.412   .     A
C438   C469    1.423   .     S
C439   C543    1.419   .     A
C439   C496    1.416   .     A
C439   C42     1.429   1_655 A
C440   C602    1.413   .     A
C440   C544    1.416   .     A
C440   C467    1.424   .     S
C441   Cl650   1.780   .     S
C441   C443    1.412   .     A
C441   C101    1.396   1_655 A
C442   C1324   1.425   .     A
C442   C545    1.414   .     A
C443   C546    1.411   .     A
C443   C41     1.423   1_655 A
C444   C548    1.419   .     A
C444   C452    1.416   .     A
C444   C470    1.429   .     S
C445   C592    1.407   .     A
C445   C594    1.407   .     A
C445   C564    1.451   .     S
C446   C565    1.452   .     S
C446   C593    1.407   .     A
C446   C590    1.407   .     A
C447   C557    1.452   .     S
C447   C589    1.407   .     A
C447   C596    1.407   .     A
C448   C588    1.408   .     A
C448   C595    1.408   .     A
C448   C559    1.454   .     S
C449   C598    1.407   .     A
C449   C587    1.407   .     A
C449   C560    1.451   .     S
C450   C561    1.452   .     S
C450   C586    1.407   .     A
C450   C597    1.407   .     A
C451   C562    1.452   .     S
C451   C585    1.407   .     A
C451   C600    1.407   .     A
C452   Cl651   1.779   .     S
C452   C530    1.398   .     S
C453   C599    1.408   .     A
C453   C563    1.454   .     S
C453   C584    1.408   .     A
C454   C583    1.407   .     A
C454   C573    1.451   .     S
C454   C603    1.407   .     A
C455   C582    1.408   .     A
C455   C601    1.408   .     A
C455   C574    1.453   .     S
C456   C581    1.407   .     A
C456   C605    1.406   .     A
C456   C566    1.451   .     S
C457   C579    1.407   .     A
C457   C567    1.452   .     S
C457   C604    1.407   .     A
C458   C578    1.407   .     A
C458   C568    1.451   .     S
C458   C607    1.407   .     A
C459   C606    1.408   .     A
C459   C577    1.408   .     A
C459   C570    1.453   .     S
C460   C609    1.406   .     A
C460   C571    1.451   .     S
C460   C576    1.407   .     A
C461   C575    1.407   .     A
C461   C608    1.407   .     A
C461   C572    1.452   .     S
C462   C464    1.420   .     A
C463   Cl652   1.777   .     S
C463   C1383   1.398   .     A
C464   C611    1.429   .     A
C465   C466    1.419   .     A
C465   C1468   1.423   1_545 S
C466   C1291   1.426   1_545 S
C467   C1292   1.424   1_545 A
C467   C468    1.420   1_556 S
C468   C1298   1.425   1_545 A
C468   C467    1.420   1_554 S
C469   C470    1.421   1_556 S
C470   C469    1.421   1_554 S
C471   C472    1.529   .     S
C471   O821    1.419   .     S
C471   H661    1.111   .     S
C471   H685    1.118   .     S
C472   H707    1.110   .     S
C472   H696    1.112   .     S
C472   C473    1.526   .     S
C473   H729    1.110   .     S
C473   H740    1.111   .     S
C473   H718    1.111   .     S
C474   Cl653   1.779   .     S
C474   C528    1.397   .     S
C475   H762    1.113   .     S
C475   H751    1.116   .     S
C475   C476    1.529   .     S
C475   O394    1.414   1_655 S
C476   C477    1.525   .     S
C476   H662    1.111   .     S
C476   H245    1.111   1_655 S
C477   H678    1.110   .     S
C477   H677    1.109   .     S
C477   H679    1.111   .     S
C478   H680    1.111   .     S
C478   H681    1.119   .     S
C478   C479    1.528   .     S
C478   O823    1.420   .     S
C479   C480    1.526   .     S
C479   H682    1.112   .     S
C479   H683    1.111   .     S
C480   H686    1.110   .     S
C480   H684    1.111   .     S
C480   H687    1.111   .     S
C481   C482    1.529   .     S
C481   H689    1.114   .     S
C481   H688    1.116   .     S
C481   O1680   1.414   .     S
C482   H691    1.111   .     S
C482   C483    1.525   .     S
C482   H690    1.111   .     S
C483   H693    1.110   .     S
C483   H692    1.108   .     S
C483   H694    1.111   .     S
C484   H695    1.111   .     S
C484   C486    1.529   .     S
C484   H697    1.118   .     S
C484   O825    1.419   .     S
C485   Cl654   1.780   .     S
C485   C529    1.396   .     S
C486   H698    1.112   .     S
C486   C487    1.526   .     S
C486   H699    1.110   .     S
C487   H700    1.111   .     S
C487   H702    1.111   .     S
C487   H701    1.110   .     S
C488   H703    1.116   .     S
C488   H704    1.113   .     S
C488   C489    1.529   .     S
C489   H705    1.111   .     S
C489   C490    1.525   .     S
C490   H709    1.110   .     S
C490   H710    1.111   .     S
C490   H708    1.109   .     S
C491   O827    1.420   .     S
C491   H712    1.119   .     S
C491   C492    1.528   .     S
C491   H711    1.111   .     S
C492   H713    1.112   .     S
C492   C493    1.526   .     S
C492   H714    1.111   .     S
C493   H716    1.110   .     S
C493   H715    1.111   .     S
C493   H717    1.111   .     S
C494   C495    1.529   .     S
C494   H719    1.116   .     S
C494   H720    1.114   .     S
C494   O1685   1.414   1_545 S
C495   H722    1.111   .     S
C495   C497    1.525   .     S
C495   H721    1.111   .     S
C496   C102    1.398   1_655 A
C496   Cl655   1.779   .     S
C497   H724    1.110   .     S
C497   H725    1.111   .     S
C497   H723    1.108   .     S
C498   H727    1.117   .     S
C498   C499    1.534   .     S
C498   O830    1.419   .     S
C498   H726    1.111   .     S
C499   C500    1.527   .     S
C499   H728    1.111   .     S
C499   H730    1.111   1_556 S
C500   H731    1.111   .     S
C500   H733    1.111   .     S
C500   H732    1.110   1_556 S
C501   C502    1.529   .     S
C501   O831    1.413   .     S
C501   H735    1.114   .     S
C501   H734    1.116   .     S
C502   H736    1.111   .     S
C502   H737    1.112   .     S
C502   C503    1.526   .     S
C503   H738    1.109   .     S
C503   H739    1.110   .     S
C503   H741    1.111   .     S
C504   H743    1.115   .     S
C504   H742    1.114   .     S
C504   O832    1.413   .     S
C504   C505    1.529   .     S
C505   C506    1.526   .     S
C505   H745    1.112   .     S
C505   H744    1.112   .     S
C506   H747    1.111   .     S
C506   H748    1.111   .     S
C506   H746    1.111   .     S
C507   C551    1.450   .     S
C508   H749    1.115   .     S
C508   H750    1.114   .     S
C508   C509    1.528   .     S
C508   O833    1.415   .     S
C509   H753    1.111   .     S
C509   C510    1.525   .     S
C509   H752    1.111   .     S
C510   H756    1.111   .     S
C510   H754    1.110   .     S
C510   H755    1.110   .     S
C511   H757    1.111   .     S
C511   C512    1.534   .     S
C511   H758    1.117   .     S
C511   O834    1.419   .     S
C512   H759    1.111   .     S
C512   C513    1.527   .     S
C512   H760    1.111   1_556 S
C513   H764    1.111   .     S
C513   H761    1.111   .     S
C513   H763    1.110   1_556 S
C514   O835    1.413   .     S
C514   H765    1.116   .     S
C514   C515    1.528   .     S
C514   H766    1.114   .     S
C515   H767    1.111   .     S
C515   C516    1.526   .     S
C515   H768    1.111   .     S
C516   H769    1.109   .     S
C516   H771    1.110   .     S
C516   H770    1.110   .     S
C517   H772    1.114   .     S
C517   C519    1.529   .     S
C517   H663    1.115   .     S
C517   O836    1.413   .     S
C518   C552    1.455   .     S
C518   C569    1.398   .     S
C519   H665    1.112   .     S
C519   C520    1.526   .     S
C519   H664    1.112   .     S
C520   H667    1.111   .     S
C520   H666    1.111   .     S
C520   H668    1.111   .     S
C521   H670    1.114   .     S
C521   H669    1.115   .     S
C521   O837    1.415   .     S
C521   C522    1.528   .     S
C522   H671    1.111   .     S
C522   C523    1.525   .     S
C522   H672    1.111   .     S
C523   H674    1.110   .     S
C523   H675    1.110   .     S
C523   H676    1.111   .     S
C524   C549    1.450   .     S
C524   C1436   1.397   1_545 A
C524   C536    1.397   .     S
C525   Cl640   1.779   .     S
C525   C90     1.398   1_655 A
C526   C550    1.454   .     S
C526   C591    1.398   .     A
C526   C1403   1.398   1_545 S
C527   C555    1.454   .     S
C527   C1319   1.398   1_545 A
C527   C602    1.398   .     S
C528   C1286   1.397   1_545 A
C528   C556    1.451   .     S
C529   C553    1.449   .     S
C530   C554    1.454   .     S
C531   O821    1.385   .     S
C531   C537    1.396   .     A
C531   C610    1.411   .     A
C532   C611    1.420   .     A
C532   C535    1.396   .     A
C532   O822    1.383   .     S
C533   C612    1.412   .     A
C533   O823    1.384   .     S
C533   C539    1.394   .     A
C534   O824    1.382   .     S
C534   C538    1.394   .     A
C535   O825    1.385   .     S
C536   Cl1497  1.778   1_545 S
C537   O826    1.383   .     S
C538   O827    1.384   .     S
C539   O829    1.382   .     S
C540   O830    1.385   .     S
C540   C545    1.394   1_556 S
C541   O831    1.383   .     S
C541   C544    1.394   1_554 S
C542   O832    1.383   .     S
C542   C548    1.398   1_556 S
C543   O833    1.384   .     S
C543   C546    1.398   1_554 S
C544   O834    1.385   .     S
C544   C541    1.394   1_556 S
C545   O835    1.383   .     S
C545   C540    1.394   1_554 S
C546   O836    1.383   .     S
C546   C543    1.398   1_556 S
C547   Cl642   1.777   .     S
C547   C1382   1.398   .     S
C548   O837    1.384   .     S
C548   C542    1.398   1_554 S
C549   O1673   1.274   1_545 A
C549   O840    1.274   .     S
C550   O828    1.275   .     A
C550   O1630   1.275   1_545 S
C551   O838    1.274   .     A
C552   O776    1.275   .     S
C553   O781    1.274   .     A
C553   O777    1.274   .     S
C554   O778    1.275   .     S
C554   O782    1.275   .     S
C555   O779    1.275   .     S
C555   O783    1.275   .     S
C556   O780    1.274   .     A
C556   O785    1.274   .     A
C557   O814    1.278   .     A
C557   O786    1.278   .     A
C558   C610    1.412   .     A
C558   C79     1.396   1_655 S
C558   Cl215   1.778   1_655 S
C559   O815    1.278   .     A
C559   O787    1.279   .     A
C560   O788    1.278   .     A
C560   O812    1.278   .     A
C561   O813    1.278   .     A
C561   O789    1.278   .     A
C562   O819    1.278   .     A
C562   O790    1.278   .     A
C563   O820    1.278   .     A
C563   O791    1.279   .     A
C564   O816    1.278   .     A
C564   O792    1.278   .     A
C565   O818    1.278   .     A
C565   O793    1.278   .     A
C566   O794    1.278   .     A
C566   O805    1.278   .     A
C567   O807    1.278   .     A
C567   O796    1.278   .     A
C568   O803    1.277   .     A
C568   O797    1.278   .     A
C569   C611    1.416   .     A
C569   Cl644   1.779   .     S
C570   O798    1.278   .     A
C570   O804    1.278   .     A
C571   O799    1.278   .     A
C571   O810    1.278   .     A
C572   O811    1.278   .     A
C572   O800    1.278   .     A
C573   O808    1.277   .     A
C573   O801    1.278   .     A
C574   O809    1.278   .     A
C574   O802    1.278   .     A
C575   C592    1.396   .     A
C575   Cl613   1.771   .     S
C576   C590    1.397   .     A
C576   Cl624   1.772   .     S
C577   C589    1.396   .     A
C577   Cl635   1.770   .     S
C578   C588    1.396   .     A
C578   Cl646   1.772   .     S
C579   C587    1.396   .     A
C579   Cl656   1.771   .     S
C580   C1380   1.397   .     A
C580   C612    1.412   .     A
C580   Cl1501  1.778   .     S
C581   C586    1.397   .     A
C581   Cl657   1.772   .     S
C582   C585    1.396   .     A
C582   Cl658   1.770   .     S
C583   C584    1.396   .     A
C583   Cl659   1.772   .     S
C584   Cl660   1.769   .     S
C585   Cl614   1.772   .     S
C586   Cl615   1.771   .     S
C587   Cl616   1.772   .     S
C588   Cl617   1.769   .     S
C589   Cl618   1.772   .     S
C590   Cl619   1.771   .     S
C591   Cl647   1.777   .     S
C592   Cl620   1.772   .     S
C593   Cl621   1.770   .     S
C593   C609    1.396   .     A
C594   C608    1.396   .     A
C594   Cl622   1.772   .     S
C595   Cl623   1.769   .     S
C595   C607    1.396   .     A
C596   Cl625   1.772   .     S
C596   C606    1.396   .     A
C597   C605    1.396   .     A
C597   Cl626   1.770   .     S
C598   C604    1.396   .     A
C598   Cl627   1.772   .     S
C599   C603    1.396   .     A
C599   Cl628   1.769   .     S
C600   Cl629   1.772   .     S
C600   C601    1.396   .     A
C601   Cl630   1.771   .     S
C602   Cl648   1.777   .     S
C603   Cl631   1.773   .     S
C604   Cl632   1.771   .     S
C605   Cl633   1.772   .     S
C606   Cl634   1.771   .     S
C607   Cl636   1.773   .     S
C608   Cl637   1.771   .     S
C609   Cl638   1.772   .     S
C610   C34     1.422   1_655 S
C612   C1321   1.423   .     S
Cl639  C1      1.778   1_655 S
Cl641  C1392   1.778   .     S
Cl645  C1436   1.778   1_545 S
H706   C61     1.111   1_655 S
H730   C499    1.111   1_554 S
H732   C500    1.110   1_554 S
H760   C512    1.111   1_554 S
H763   C513    1.110   1_554 S
O773   Zn1704  1.945   1_545 S
O773   Zn841   1.945   .     S
O773   Zn852   1.945   .     S
O773   Zn844   1.945   .     S
O774   Zn843   1.948   .     S
O774   C1406   1.275   .     S
O775   Zn846   1.948   .     S
O775   C123    1.274   1_655 S
O776   Zn845   1.948   .     S
O777   Zn855   1.948   .     S
O778   Zn854   1.948   .     S
O779   Zn849   1.948   .     S
O780   Zn841   1.948   .     S
O781   Zn851   1.948   .     S
O782   Zn850   1.948   .     S
O783   Zn853   1.948   .     S
O784   Zn847   1.945   .     S
O784   Zn1699  1.945   1_545 S
O784   Zn849   1.945   .     S
O784   Zn853   1.945   .     S
O785   Zn852   1.948   .     S
O786   Zn844   1.933   .     S
O787   Zn843   1.933   .     S
O788   Zn846   1.932   .     S
O789   Zn845   1.932   .     S
O790   Zn848   1.933   .     S
O791   Zn847   1.933   .     S
O792   Zn842   1.932   .     S
O793   Zn856   1.932   .     S
O794   Zn843   1.932   .     S
O795   Zn842   1.945   .     S
O795   Zn850   1.945   .     S
O795   Zn854   1.945   .     S
O796   Zn844   1.932   .     S
O797   Zn856   1.933   .     S
O798   Zn842   1.933   .     S
O799   Zn847   1.932   .     S
O800   Zn848   1.932   .     S
O801   Zn845   1.933   .     S
O802   Zn846   1.933   .     S
O803   Zn423   1.933   1_655 S
O804   Zn850   1.933   .     S
O805   Zn1709  1.932   .     S
O806   Zn845   1.945   .     S
O806   Zn851   1.945   .     S
O806   Zn855   1.945   .     S
O807   Zn852   1.932   .     S
O808   Zn855   1.933   .     S
O809   Zn426   1.933   1_655 S
O810   Zn849   1.932   .     S
O811   Zn1697  1.932   .     S
O812   Zn422   1.932   1_655 S
O813   Zn851   1.932   .     S
O814   Zn841   1.933   .     S
O815   Zn1705  1.933   .     S
O816   Zn854   1.932   .     S
O817   Zn848   1.948   .     S
O817   C1405   1.274   .     A
O818   Zn427   1.932   1_655 S
O819   Zn1708  1.933   .     S
O820   Zn853   1.933   .     S
O824   C1337   1.414   1_545 S
O826   C60     1.414   1_655 S
O828   Zn847   1.948   .     S
O829   C1350   1.414   .     S
O838   Zn842   1.948   .     S
O839   Zn856   1.948   .     S
O839   C124    1.275   1_655 A
O840   Zn844   1.948   .     S
Zn841  O1667   1.932   1_545 S
Zn843  O1640   1.945   .     S
Zn846  O367    1.945   1_655 S
Zn848  O1629   1.945   .     S
Zn849  O1671   1.933   1_545 S
Zn852  O1675   1.933   1_545 S
Zn853  O1661   1.932   1_545 S
Zn856  O378    1.945   1_655 S
C857   C935    1.396   .     A
C857   C860    1.412   .     A
C857   Cl1495  1.778   1_455 S
C858   Cl1077  1.779   .     S
C858   C870    1.413   .     A
C858   C100    1.397   1_565 A
C859   C1019   1.415   .     A
C859   C962    1.418   .     A
C859   C894    1.426   .     A
C860   C963    1.411   .     A
C860   C890    1.422   .     A
C861   C953    1.416   .     A
C861   C965    1.420   .     A
C861   C1320   1.429   .     S
C862   C966    1.412   .     A
C862   C893    1.423   .     A
C862   C964    1.412   .     A
C863   C975    1.415   .     A
C863   C967    1.417   .     A
C863   C38     1.426   1_565 S
C864   C891    1.413   .     A
C864   C968    1.416   .     A
C864   C39     1.424   1_565 A
C865   C902    1.413   .     A
C865   C969    1.414   .     A
C865   C896    1.425   .     S
C866   C970    1.411   .     A
C866   C913    1.412   .     A
C866   C897    1.423   .     S
C867   C971    1.419   .     A
C867   C924    1.416   .     A
C867   C1326   1.429   .     A
C868   C1030   1.413   .     A
C868   C972    1.416   .     A
C868   C895    1.424   .     S
C869   Cl1078  1.780   .     S
C869   C871    1.412   .     A
C869   C1385   1.396   .     A
C870   C40     1.425   1_565 A
C870   C973    1.414   .     A
C871   C974    1.411   .     A
C871   C1325   1.423   .     A
C872   C976    1.419   .     A
C872   C880    1.416   .     A
C872   C898    1.429   .     S
C873   C1020   1.407   .     A
C873   C1022   1.407   .     A
C873   C992    1.451   .     S
C874   C993    1.452   .     S
C874   C1021   1.407   .     A
C874   C1018   1.407   .     A
C875   C985    1.452   .     S
C875   C1017   1.407   .     A
C875   C1024   1.407   .     A
C876   C1016   1.408   .     A
C876   C1023   1.408   .     A
C876   C987    1.454   .     S
C877   C1026   1.407   .     A
C877   C1015   1.407   .     A
C877   C988    1.451   .     S
C878   C989    1.452   .     S
C878   C1014   1.407   .     A
C878   C1025   1.407   .     A
C879   C990    1.452   .     S
C879   C1013   1.407   .     A
C879   C1028   1.407   .     A
C880   Cl1079  1.779   .     S
C880   C958    1.398   .     S
C881   C1027   1.408   .     A
C881   C991    1.454   .     S
C881   C1012   1.408   .     A
C882   C1011   1.407   .     A
C882   C1001   1.451   .     S
C882   C1031   1.407   .     A
C883   C1010   1.408   .     A
C883   C1029   1.408   .     A
C883   C1002   1.453   .     S
C884   C1009   1.407   .     A
C884   C1033   1.406   .     A
C884   C994    1.451   .     S
C885   C1007   1.407   .     A
C885   C995    1.452   .     S
C885   C1032   1.407   .     A
C886   C1006   1.407   .     A
C886   C996    1.451   .     S
C886   C1035   1.407   .     A
C887   C1034   1.408   .     A
C887   C1005   1.408   .     A
C887   C998    1.453   .     S
C888   C1037   1.406   .     A
C888   C999    1.451   .     S
C888   C1004   1.407   .     A
C889   C1003   1.407   .     A
C889   C1036   1.407   .     A
C889   C1000   1.452   .     S
C890   C892    1.420   .     A
C890   C1466   1.422   1_455 S
C891   Cl1080  1.777   .     S
C891   C99     1.398   1_565 A
C892   C1039   1.429   .     A
C892   C1289   1.429   1_455 S
C893   C894    1.419   .     A
C895   C896    1.420   1_556 S
C896   C895    1.420   1_554 S
C897   C1299   1.423   1_455 A
C897   C898    1.421   1_556 S
C898   C1295   1.429   1_455 A
C898   C897    1.421   1_554 S
C899   C900    1.529   .     S
C899   O1249   1.419   .     S
C899   H1089   1.111   .     S
C899   H1113   1.118   .     S
C900   H1135   1.110   .     S
C900   H1124   1.112   .     S
C900   C901    1.526   .     S
C901   H1157   1.110   .     S
C901   H1168   1.111   .     S
C901   H1146   1.111   .     S
C902   Cl1081  1.779   .     S
C902   C956    1.397   .     S
C903   H1190   1.113   .     S
C903   H1179   1.116   .     S
C903   C904    1.529   .     S
C903   O1678   1.414   .     S
C904   C905    1.525   .     S
C904   H1090   1.111   .     S
C904   H1529   1.111   .     S
C905   H1106   1.110   .     S
C905   H1105   1.109   .     S
C905   H1107   1.111   .     S
C906   H1108   1.111   .     S
C906   H1109   1.119   .     S
C906   C907    1.528   .     S
C906   O1251   1.420   .     S
C907   C908    1.526   .     S
C907   H1110   1.112   .     S
C907   H1111   1.111   .     S
C908   H1114   1.110   .     S
C908   H1112   1.111   .     S
C908   H1115   1.111   .     S
C909   C910    1.529   .     S
C909   H1117   1.114   .     S
C909   H1116   1.116   .     S
C909   O396    1.414   1_565 S
C910   H1119   1.111   .     S
C910   C911    1.525   .     S
C910   H1118   1.111   .     S
C911   H1121   1.110   .     S
C911   H1120   1.108   .     S
C911   H1122   1.111   .     S
C912   H1123   1.111   .     S
C912   C914    1.529   .     S
C912   H1125   1.118   .     S
C912   O1253   1.419   .     S
C913   Cl1082  1.780   .     S
C913   C957    1.396   .     S
C914   H1126   1.112   .     S
C914   C915    1.526   .     S
C914   H1127   1.110   .     S
C915   H1128   1.111   .     S
C915   H1130   1.111   .     S
C915   H1129   1.110   .     S
C916   H1131   1.116   .     S
C916   H1132   1.113   .     S
C916   C917    1.529   .     S
C916   O1682   1.414   1_455 S
C917   H1133   1.111   .     S
C917   C918    1.525   .     S
C917   H1562   1.111   1_455 S
C918   H1137   1.110   .     S
C918   H1138   1.111   .     S
C918   H1136   1.109   .     S
C919   O1255   1.420   .     S
C919   H1140   1.119   .     S
C919   C920    1.528   .     S
C919   H1139   1.111   .     S
C920   H1141   1.112   .     S
C920   C921    1.526   .     S
C920   H1142   1.111   .     S
C921   H1144   1.110   .     S
C921   H1143   1.111   .     S
C921   H1145   1.111   .     S
C922   C923    1.529   .     S
C922   H1147   1.116   .     S
C922   H1148   1.114   .     S
C923   H1150   1.111   .     S
C923   C925    1.525   .     S
C923   H1149   1.111   .     S
C924   C1386   1.398   .     A
C924   Cl1083  1.779   .     S
C925   H1152   1.110   .     S
C925   H1153   1.111   .     S
C925   H1151   1.108   .     S
C926   H1155   1.117   .     S
C926   C927    1.534   .     S
C926   O1258   1.419   .     S
C926   H1154   1.111   .     S
C927   C928    1.527   .     S
C927   H1156   1.111   .     S
C927   H1158   1.111   1_556 S
C928   H1159   1.111   .     S
C928   H1161   1.111   .     S
C928   H1160   1.110   1_556 S
C929   C930    1.529   .     S
C929   O1259   1.413   .     S
C929   H1163   1.114   .     S
C929   H1162   1.116   .     S
C930   H1164   1.111   .     S
C930   H1165   1.112   .     S
C930   C931    1.526   .     S
C931   H1166   1.109   .     S
C931   H1167   1.110   .     S
C931   H1169   1.111   .     S
C932   H1171   1.115   .     S
C932   H1170   1.114   .     S
C932   O1260   1.413   .     S
C932   C933    1.529   .     S
C933   C934    1.526   .     S
C933   H1173   1.112   .     S
C933   H1172   1.112   .     S
C934   H1175   1.111   .     S
C934   H1176   1.111   .     S
C934   H1174   1.111   .     S
C935   C979    1.450   .     S
C935   C1414   1.396   1_455 S
C936   H1177   1.115   .     S
C936   H1178   1.114   .     S
C936   C937    1.528   .     S
C936   O1261   1.415   .     S
C937   H1181   1.111   .     S
C937   C938    1.525   .     S
C937   H1180   1.111   .     S
C938   H1184   1.111   .     S
C938   H1182   1.110   .     S
C938   H1183   1.110   .     S
C939   H1185   1.111   .     S
C939   C940    1.534   .     S
C939   H1186   1.117   .     S
C939   O1262   1.419   .     S
C940   H1187   1.111   .     S
C940   C941    1.527   .     S
C940   H1188   1.111   1_556 S
C941   H1192   1.111   .     S
C941   H1189   1.111   .     S
C941   H1191   1.110   1_556 S
C942   O1263   1.413   .     S
C942   H1193   1.116   .     S
C942   C943    1.528   .     S
C942   H1194   1.114   .     S
C943   H1195   1.111   .     S
C943   C944    1.526   .     S
C943   H1196   1.111   .     S
C944   H1197   1.109   .     S
C944   H1199   1.110   .     S
C944   H1198   1.110   .     S
C945   H1200   1.114   .     S
C945   C947    1.529   .     S
C945   H1091   1.115   .     S
C945   O1264   1.413   .     S
C946   C1381   1.398   1_455 A
C946   C980    1.455   .     S
C946   C997    1.398   .     S
C947   H1093   1.112   .     S
C947   C948    1.526   .     S
C947   H1092   1.112   .     S
C948   H1095   1.111   .     S
C948   H1094   1.111   .     S
C948   H1096   1.111   .     S
C949   H1098   1.114   .     S
C949   H1097   1.115   .     S
C949   O1265   1.415   .     S
C949   C950    1.528   .     S
C950   H1099   1.111   .     S
C950   C951    1.525   .     S
C950   H1100   1.111   .     S
C951   H1102   1.110   .     S
C951   H1103   1.110   .     S
C951   H1104   1.111   .     S
C952   C977    1.450   .     S
C952   C964    1.397   .     S
C953   Cl1068  1.779   .     S
C953   C1374   1.398   .     A
C954   C978    1.454   .     S
C954   C1019   1.398   .     A
C955   C983    1.454   .     S
C955   C1030   1.398   .     S
C956   C984    1.451   .     S
C957   C1297   1.396   1_455 A
C957   C981    1.449   .     S
C958   C982    1.454   .     S
C958   C1352   1.398   1_455 A
C959   O1249   1.385   .     S
C959   C965    1.396   .     A
C959   C1038   1.411   .     A
C960   C1039   1.420   .     A
C960   C963    1.396   .     A
C960   O1250   1.383   .     S
C961   C1040   1.412   .     A
C961   O1251   1.384   .     S
C961   C967    1.394   .     A
C962   O1252   1.382   .     S
C962   C966    1.394   .     A
C963   O1253   1.385   .     S
C965   O1254   1.383   .     S
C966   O1255   1.384   .     S
C967   O1257   1.382   .     S
C968   O1258   1.385   .     S
C968   C973    1.394   1_556 S
C969   O1259   1.383   .     S
C969   C972    1.394   1_554 S
C970   O1260   1.383   .     S
C970   C976    1.398   1_556 S
C971   O1261   1.384   .     S
C971   C974    1.398   1_554 S
C972   O1262   1.385   .     S
C972   C969    1.394   1_556 S
C973   O1263   1.383   .     S
C973   C968    1.394   1_554 S
C974   O1264   1.383   .     S
C974   C971    1.398   1_556 S
C975   Cl1070  1.777   .     S
C975   C98     1.398   1_565 S
C976   O1265   1.384   .     S
C976   C970    1.398   1_554 S
C977   O1268   1.274   .     S
C978   O1256   1.275   .     A
C979   O1266   1.274   .     A
C979   O1631   1.274   1_455 S
C980   O1695   1.275   1_455 A
C980   O1204   1.275   .     S
C981   O1209   1.274   .     A
C981   O1205   1.274   .     S
C982   O1206   1.275   .     S
C982   O1210   1.275   .     S
C983   O1207   1.275   .     S
C983   O1211   1.275   .     S
C984   O1208   1.274   .     A
C984   O1213   1.274   .     A
C985   O1242   1.278   .     A
C985   O1214   1.278   .     A
C986   C1038   1.412   .     A
C986   C1363   1.396   .     S
C986   Cl1499  1.778   .     S
C987   O1243   1.278   .     A
C987   O1215   1.279   .     A
C988   O1216   1.278   .     A
C988   O1240   1.278   .     A
C989   O1241   1.278   .     A
C989   O1217   1.278   .     A
C990   O1247   1.278   .     A
C990   O1218   1.278   .     A
C991   O1248   1.278   .     A
C991   O1219   1.279   .     A
C992   O1244   1.278   .     A
C992   O1220   1.278   .     A
C993   O1246   1.278   .     A
C993   O1221   1.278   .     A
C994   O1222   1.278   .     A
C994   O1233   1.278   .     A
C995   O1235   1.278   .     A
C995   O1224   1.278   .     A
C996   O1231   1.277   .     A
C996   O1225   1.278   .     A
C997   C1039   1.416   .     A
C997   Cl1072  1.779   .     S
C998   O1226   1.278   .     A
C998   O1232   1.278   .     A
C999   O1227   1.278   .     A
C999   O1238   1.278   .     A
C1000  O1239   1.278   .     A
C1000  O1228   1.278   .     A
C1001  O1236   1.277   .     A
C1001  O1229   1.278   .     A
C1002  O1237   1.278   .     A
C1002  O1230   1.278   .     A
C1003  C1020   1.396   .     A
C1003  Cl1041  1.771   .     S
C1004  C1018   1.397   .     A
C1004  Cl1052  1.772   .     S
C1005  C1017   1.396   .     A
C1005  Cl1063  1.770   .     S
C1006  C1016   1.396   .     A
C1006  Cl1074  1.772   .     S
C1007  C1015   1.396   .     A
C1007  Cl1084  1.771   .     S
C1008  C96     1.397   1_565 A
C1008  C1040   1.412   .     A
C1008  Cl217   1.778   1_565 S
C1009  C1014   1.397   .     A
C1009  Cl1085  1.772   .     S
C1010  C1013   1.396   .     A
C1010  Cl1086  1.770   .     S
C1011  C1012   1.396   .     A
C1011  Cl1087  1.772   .     S
C1012  Cl1088  1.769   .     S
C1013  Cl1042  1.772   .     S
C1014  Cl1043  1.771   .     S
C1015  Cl1044  1.772   .     S
C1016  Cl1045  1.769   .     S
C1017  Cl1046  1.772   .     S
C1018  Cl1047  1.771   .     S
C1019  Cl1075  1.777   .     S
C1020  Cl1048  1.772   .     S
C1021  Cl1049  1.770   .     S
C1021  C1037   1.396   .     A
C1022  C1036   1.396   .     A
C1022  Cl1050  1.772   .     S
C1023  Cl1051  1.769   .     S
C1023  C1035   1.396   .     A
C1024  Cl1053  1.772   .     S
C1024  C1034   1.396   .     A
C1025  C1033   1.396   .     A
C1025  Cl1054  1.770   .     S
C1026  C1032   1.396   .     A
C1026  Cl1055  1.772   .     S
C1027  C1031   1.396   .     A
C1027  Cl1056  1.769   .     S
C1028  Cl1057  1.772   .     S
C1028  C1029   1.396   .     A
C1029  Cl1058  1.771   .     S
C1030  Cl1076  1.777   .     S
C1031  Cl1059  1.773   .     S
C1032  Cl1060  1.771   .     S
C1033  Cl1061  1.772   .     S
C1034  Cl1062  1.771   .     S
C1035  Cl1064  1.773   .     S
C1036  Cl1065  1.771   .     S
C1037  Cl1066  1.772   .     S
C1038  C1318   1.422   .     S
C1040  C37     1.423   1_565 S
Cl1067 C1285   1.778   .     S
Cl1069 C108    1.778   1_565 S
Cl1071 C1414   1.778   1_455 S
H1101  C1332   1.111   1_455 S
H1134  C1345   1.111   .     S
H1158  C927    1.111   1_554 S
H1160  C928    1.110   1_554 S
H1188  C940    1.111   1_554 S
H1191  C941    1.110   1_554 S
O1201  Zn1269  1.945   .     S
O1201  Zn1280  1.945   .     S
O1201  Zn1272  1.945   .     S
O1202  Zn1271  1.948   .     S
O1202  C122    1.275   1_565 S
O1203  Zn1274  1.948   .     S
O1203  C1407   1.274   .     S
O1204  Zn1273  1.948   .     S
O1205  Zn1283  1.948   .     S
O1206  Zn1282  1.948   .     S
O1207  Zn1277  1.948   .     S
O1208  Zn1269  1.948   .     S
O1209  Zn1279  1.948   .     S
O1210  Zn1278  1.948   .     S
O1211  Zn1281  1.948   .     S
O1212  Zn1275  1.945   .     S
O1212  Zn1277  1.945   .     S
O1212  Zn1281  1.945   .     S
O1213  Zn1280  1.948   .     S
O1214  Zn1272  1.933   .     S
O1215  Zn1271  1.933   .     S
O1216  Zn1274  1.932   .     S
O1217  Zn1273  1.932   .     S
O1218  Zn1276  1.933   .     S
O1219  Zn1275  1.933   .     S
O1220  Zn1270  1.932   .     S
O1221  Zn1284  1.932   .     S
O1222  Zn1271  1.932   .     S
O1223  Zn1702  1.945   1_455 S
O1223  Zn1270  1.945   .     S
O1223  Zn1278  1.945   .     S
O1223  Zn1282  1.945   .     S
O1224  Zn1272  1.932   .     S
O1225  Zn1284  1.933   .     S
O1226  Zn1270  1.933   .     S
O1227  Zn1275  1.932   .     S
O1228  Zn1276  1.932   .     S
O1229  Zn1273  1.933   .     S
O1230  Zn1274  1.933   .     S
O1231  Zn1707  1.933   .     S
O1232  Zn1278  1.933   .     S
O1233  Zn425   1.932   1_565 S
O1234  Zn1712  1.945   1_455 S
O1234  Zn1273  1.945   .     S
O1234  Zn1279  1.945   .     S
O1234  Zn1283  1.945   .     S
O1235  Zn1280  1.932   .     S
O1236  Zn1283  1.933   .     S
O1237  Zn1710  1.933   .     S
O1238  Zn1277  1.932   .     S
O1239  Zn413   1.932   1_565 S
O1240  Zn1706  1.932   .     S
O1241  Zn1279  1.932   .     S
O1242  Zn1269  1.933   .     S
O1243  Zn421   1.933   1_565 S
O1244  Zn1282  1.932   .     S
O1245  Zn1276  1.948   .     S
O1245  C121    1.274   1_565 A
O1246  Zn1711  1.932   .     S
O1247  Zn424   1.933   1_565 S
O1248  Zn1281  1.933   .     S
O1250  C1331   1.414   1_455 S
O1254  C1344   1.414   .     S
O1256  Zn1275  1.948   .     S
O1257  C66     1.414   1_565 S
O1266  Zn1270  1.948   .     S
O1267  Zn1284  1.948   .     S
O1267  C1408   1.275   .     A
O1268  Zn1272  1.948   .     S
Zn1271 O356    1.945   1_565 S
Zn1274 O1651   1.945   .     S
Zn1276 O345    1.945   1_565 S
Zn1278 O1668   1.932   1_455 S
Zn1279 O1659   1.933   1_455 S
Zn1282 O1665   1.933   1_455 S
Zn1283 O1674   1.932   1_455 S
Zn1284 O1662   1.945   .     S
C1285  C1363   1.396   .     A
C1285  C1288   1.412   .     A
C1286  Cl1505  1.779   .     S
C1286  C1298   1.413   .     A
C1286  C528    1.397   1_565 A
C1287  C1447   1.415   .     A
C1287  C1390   1.418   .     A
C1287  C1322   1.426   .     A
C1288  C1391   1.411   .     A
C1288  C1318   1.422   .     A
C1289  C1381   1.416   .     A
C1289  C1393   1.420   .     A
C1289  C892    1.429   1_655 S
C1290  C1394   1.412   .     A
C1290  C1321   1.423   .     A
C1290  C1392   1.412   .     A
C1291  C1403   1.415   .     A
C1291  C1395   1.417   .     A
C1291  C466    1.426   1_565 S
C1292  C1319   1.413   .     A
C1292  C1396   1.416   .     A
C1292  C467    1.424   1_565 A
C1293  C1330   1.413   .     A
C1293  C1397   1.414   .     A
C1293  C1324   1.425   .     S
C1294  C1398   1.411   .     A
C1294  C1341   1.412   .     A
C1294  C1325   1.423   .     S
C1295  C1399   1.419   .     A
C1295  C1352   1.416   .     A
C1295  C898    1.429   1_655 A
C1296  C1458   1.413   .     A
C1296  C1400   1.416   .     A
C1296  C1323   1.424   .     S
C1297  Cl1506  1.780   .     S
C1297  C1299   1.412   .     A
C1297  C957    1.396   1_655 A
C1298  C468    1.425   1_565 A
C1298  C1401   1.414   .     A
C1299  C1402   1.411   .     A
C1299  C897    1.423   1_655 A
C1300  C1404   1.419   .     A
C1300  C1308   1.416   .     A
C1300  C1326   1.429   .     S
C1301  C1448   1.407   .     A
C1301  C1450   1.407   .     A
C1301  C1420   1.451   .     S
C1302  C1421   1.452   .     S
C1302  C1449   1.407   .     A
C1302  C1446   1.407   .     A
C1303  C1413   1.452   .     S
C1303  C1445   1.407   .     A
C1303  C1452   1.407   .     A
C1304  C1444   1.408   .     A
C1304  C1451   1.408   .     A
C1304  C1415   1.454   .     S
C1305  C1454   1.407   .     A
C1305  C1443   1.407   .     A
C1305  C1416   1.451   .     S
C1306  C1417   1.452   .     S
C1306  C1442   1.407   .     A
C1306  C1453   1.407   .     A
C1307  C1418   1.452   .     S
C1307  C1441   1.407   .     A
C1307  C1456   1.407   .     A
C1308  Cl1507  1.779   .     S
C1308  C1386   1.398   .     S
C1309  C1455   1.408   .     A
C1309  C1419   1.454   .     S
C1309  C1440   1.408   .     A
C1310  C1439   1.407   .     A
C1310  C1429   1.451   .     S
C1310  C1459   1.407   .     A
C1311  C1438   1.408   .     A
C1311  C1457   1.408   .     A
C1311  C1430   1.453   .     S
C1312  C1437   1.407   .     A
C1312  C1461   1.406   .     A
C1312  C1422   1.451   .     S
C1313  C1435   1.407   .     A
C1313  C1423   1.452   .     S
C1313  C1460   1.407   .     A
C1314  C1434   1.407   .     A
C1314  C1424   1.451   .     S
C1314  C1463   1.407   .     A
C1315  C1462   1.408   .     A
C1315  C1433   1.408   .     A
C1315  C1426   1.453   .     S
C1316  C1465   1.406   .     A
C1316  C1427   1.451   .     S
C1316  C1432   1.407   .     A
C1317  C1431   1.407   .     A
C1317  C1464   1.407   .     A
C1317  C1428   1.452   .     S
C1318  C1320   1.420   .     A
C1319  Cl1508  1.777   .     S
C1319  C527    1.398   1_565 A
C1320  C1467   1.429   .     A
C1321  C1322   1.419   .     A
C1323  C1324   1.420   1_556 S
C1324  C1323   1.420   1_554 S
C1325  C1326   1.421   1_556 S
C1326  C1325   1.421   1_554 S
C1327  C1328   1.529   .     S
C1327  O1677   1.419   .     S
C1327  H1517   1.111   .     S
C1327  H1541   1.118   .     S
C1328  H1563   1.110   .     S
C1328  H1552   1.112   .     S
C1328  C1329   1.526   .     S
C1329  H1585   1.110   .     S
C1329  H1596   1.111   .     S
C1329  H1574   1.111   .     S
C1330  Cl1509  1.779   .     S
C1330  C1384   1.397   .     S
C1331  H1618   1.113   .     S
C1331  H1607   1.116   .     S
C1331  C1332   1.529   .     S
C1331  O1250   1.414   1_655 S
C1332  C1333   1.525   .     S
C1332  H1518   1.111   .     S
C1332  H1101   1.111   1_655 S
C1333  H1534   1.110   .     S
C1333  H1533   1.109   .     S
C1333  H1535   1.111   .     S
C1334  H1536   1.111   .     S
C1334  H1537   1.119   .     S
C1334  C1335   1.528   .     S
C1334  O1679   1.420   .     S
C1335  C1336   1.526   .     S
C1335  H1538   1.112   .     S
C1335  H1539   1.111   .     S
C1336  H1542   1.110   .     S
C1336  H1540   1.111   .     S
C1336  H1543   1.111   .     S
C1337  C1338   1.529   .     S
C1337  H1545   1.114   .     S
C1337  H1544   1.116   .     S
C1337  O824    1.414   1_565 S
C1338  H1547   1.111   .     S
C1338  C1339   1.525   .     S
C1338  H1546   1.111   .     S
C1339  H1549   1.110   .     S
C1339  H1548   1.108   .     S
C1339  H1550   1.111   .     S
C1340  H1551   1.111   .     S
C1340  C1342   1.529   .     S
C1340  H1553   1.118   .     S
C1340  O1681   1.419   .     S
C1341  Cl1510  1.780   .     S
C1341  C1385   1.396   .     S
C1342  H1554   1.112   .     S
C1342  C1343   1.526   .     S
C1342  H1555   1.110   .     S
C1343  H1556   1.111   .     S
C1343  H1558   1.111   .     S
C1343  H1557   1.110   .     S
C1344  H1559   1.116   .     S
C1344  H1560   1.113   .     S
C1344  C1345   1.529   .     S
C1345  H1561   1.111   .     S
C1345  C1346   1.525   .     S
C1346  H1565   1.110   .     S
C1346  H1566   1.111   .     S
C1346  H1564   1.109   .     S
C1347  O1683   1.420   .     S
C1347  H1568   1.119   .     S
C1347  C1348   1.528   .     S
C1347  H1567   1.111   .     S
C1348  H1569   1.112   .     S
C1348  C1349   1.526   .     S
C1348  H1570   1.111   .     S
C1349  H1572   1.110   .     S
C1349  H1571   1.111   .     S
C1349  H1573   1.111   .     S
C1350  C1351   1.529   .     S
C1350  H1575   1.116   .     S
C1350  H1576   1.114   .     S
C1351  H1578   1.111   .     S
C1351  C1353   1.525   .     S
C1351  H1577   1.111   .     S
C1352  C958    1.398   1_655 A
C1352  Cl1511  1.779   .     S
C1353  H1580   1.110   .     S
C1353  H1581   1.111   .     S
C1353  H1579   1.108   .     S
C1354  H1583   1.117   .     S
C1354  C1355   1.534   .     S
C1354  O1686   1.419   .     S
C1354  H1582   1.111   .     S
C1355  C1356   1.527   .     S
C1355  H1584   1.111   .     S
C1355  H1586   1.111   1_556 S
C1356  H1587   1.111   .     S
C1356  H1589   1.111   .     S
C1356  H1588   1.110   1_556 S
C1357  C1358   1.529   .     S
C1357  O1687   1.413   .     S
C1357  H1591   1.114   .     S
C1357  H1590   1.116   .     S
C1358  H1592   1.111   .     S
C1358  H1593   1.112   .     S
C1358  C1359   1.526   .     S
C1359  H1594   1.109   .     S
C1359  H1595   1.110   .     S
C1359  H1597   1.111   .     S
C1360  H1599   1.115   .     S
C1360  H1598   1.114   .     S
C1360  O1688   1.413   .     S
C1360  C1361   1.529   .     S
C1361  C1362   1.526   .     S
C1361  H1601   1.112   .     S
C1361  H1600   1.112   .     S
C1362  H1603   1.111   .     S
C1362  H1604   1.111   .     S
C1362  H1602   1.111   .     S
C1363  C1407   1.450   .     S
C1364  H1605   1.115   .     S
C1364  H1606   1.114   .     S
C1364  C1365   1.528   .     S
C1364  O1689   1.415   .     S
C1365  H1609   1.111   .     S
C1365  C1366   1.525   .     S
C1365  H1608   1.111   .     S
C1366  H1612   1.111   .     S
C1366  H1610   1.110   .     S
C1366  H1611   1.110   .     S
C1367  H1613   1.111   .     S
C1367  C1368   1.534   .     S
C1367  H1614   1.117   .     S
C1367  O1690   1.419   .     S
C1368  H1615   1.111   .     S
C1368  C1369   1.527   .     S
C1368  H1616   1.111   1_556 S
C1369  H1620   1.111   .     S
C1369  H1617   1.111   .     S
C1369  H1619   1.110   1_556 S
C1370  O1691   1.413   .     S
C1370  H1621   1.116   .     S
C1370  C1371   1.528   .     S
C1370  H1622   1.114   .     S
C1371  H1623   1.111   .     S
C1371  C1372   1.526   .     S
C1371  H1624   1.111   .     S
C1372  H1625   1.109   .     S
C1372  H1627   1.110   .     S
C1372  H1626   1.110   .     S
C1373  H1628   1.114   .     S
C1373  C1375   1.529   .     S
C1373  H1519   1.115   .     S
C1373  O1692   1.413   .     S
C1374  C1408   1.455   .     S
C1374  C1425   1.398   .     S
C1375  H1521   1.112   .     S
C1375  C1376   1.526   .     S
C1375  H1520   1.112   .     S
C1376  H1523   1.111   .     S
C1376  H1522   1.111   .     S
C1376  H1524   1.111   .     S
C1377  H1526   1.114   .     S
C1377  H1525   1.115   .     S
C1377  O1693   1.415   .     S
C1377  C1378   1.528   .     S
C1378  H1527   1.111   .     S
C1378  C1379   1.525   .     S
C1378  H1528   1.111   .     S
C1379  H1530   1.110   .     S
C1379  H1531   1.110   .     S
C1379  H1532   1.111   .     S
C1380  C1405   1.450   .     S
C1380  C1392   1.397   .     S
C1381  Cl1496  1.779   .     S
C1381  C946    1.398   1_655 A
C1382  C1406   1.454   .     S
C1382  C1447   1.398   .     A
C1383  C1411   1.454   .     S
C1383  C1458   1.398   .     S
C1384  C1412   1.451   .     S
C1385  C1409   1.449   .     S
C1386  C1410   1.454   .     S
C1387  O1677   1.385   .     S
C1387  C1393   1.396   .     A
C1387  C1466   1.411   .     A
C1388  C1467   1.420   .     A
C1388  C1391   1.396   .     A
C1388  O1678   1.383   .     S
C1389  C1468   1.412   .     A
C1389  O1679   1.384   .     S
C1389  C1395   1.394   .     A
C1390  O1680   1.382   .     S
C1390  C1394   1.394   .     A
C1391  O1681   1.385   .     S
C1393  O1682   1.383   .     S
C1394  O1683   1.384   .     S
C1395  O1685   1.382   .     S
C1396  O1686   1.385   .     S
C1396  C1401   1.394   1_556 S
C1397  O1687   1.383   .     S
C1397  C1400   1.394   1_554 S
C1398  O1688   1.383   .     S
C1398  C1404   1.398   1_556 S
C1399  O1689   1.384   .     S
C1399  C1402   1.398   1_554 S
C1400  O1690   1.385   .     S
C1400  C1397   1.394   1_556 S
C1401  O1691   1.383   .     S
C1401  C1396   1.394   1_554 S
C1402  O1692   1.383   .     S
C1402  C1399   1.398   1_556 S
C1403  Cl1498  1.777   .     S
C1403  C526    1.398   1_565 S
C1404  O1693   1.384   .     S
C1404  C1398   1.398   1_554 S
C1405  O1696   1.274   .     S
C1406  O1684   1.275   .     A
C1407  O1694   1.274   .     A
C1408  O1632   1.275   .     S
C1409  O1637   1.274   .     A
C1409  O1633   1.274   .     S
C1410  O1634   1.275   .     S
C1410  O1638   1.275   .     S
C1411  O1635   1.275   .     S
C1411  O1639   1.275   .     S
C1412  O1636   1.274   .     A
C1412  O1641   1.274   .     A
C1413  O1670   1.278   .     A
C1413  O1642   1.278   .     A
C1414  C1466   1.412   .     A
C1414  C935    1.396   1_655 S
C1414  Cl1071  1.778   1_655 S
C1415  O1671   1.278   .     A
C1415  O1643   1.279   .     A
C1416  O1644   1.278   .     A
C1416  O1668   1.278   .     A
C1417  O1669   1.278   .     A
C1417  O1645   1.278   .     A
C1418  O1675   1.278   .     A
C1418  O1646   1.278   .     A
C1419  O1676   1.278   .     A
C1419  O1647   1.279   .     A
C1420  O1672   1.278   .     A
C1420  O1648   1.278   .     A
C1421  O1674   1.278   .     A
C1421  O1649   1.278   .     A
C1422  O1650   1.278   .     A
C1422  O1661   1.278   .     A
C1423  O1663   1.278   .     A
C1423  O1652   1.278   .     A
C1424  O1659   1.277   .     A
C1424  O1653   1.278   .     A
C1425  C1467   1.416   .     A
C1425  Cl1500  1.779   .     S
C1426  O1654   1.278   .     A
C1426  O1660   1.278   .     A
C1427  O1655   1.278   .     A
C1427  O1666   1.278   .     A
C1428  O1667   1.278   .     A
C1428  O1656   1.278   .     A
C1429  O1664   1.277   .     A
C1429  O1657   1.278   .     A
C1430  O1665   1.278   .     A
C1430  O1658   1.278   .     A
C1431  C1448   1.396   .     A
C1431  Cl1469  1.771   .     S
C1432  C1446   1.397   .     A
C1432  Cl1480  1.772   .     S
C1433  C1445   1.396   .     A
C1433  Cl1491  1.770   .     S
C1434  C1444   1.396   .     A
C1434  Cl1502  1.772   .     S
C1435  C1443   1.396   .     A
C1435  Cl1512  1.771   .     S
C1436  C524    1.397   1_565 A
C1436  C1468   1.412   .     A
C1436  Cl645   1.778   1_565 S
C1437  C1442   1.397   .     A
C1437  Cl1513  1.772   .     S
C1438  C1441   1.396   .     A
C1438  Cl1514  1.770   .     S
C1439  C1440   1.396   .     A
C1439  Cl1515  1.772   .     S
C1440  Cl1516  1.769   .     S
C1441  Cl1470  1.772   .     S
C1442  Cl1471  1.771   .     S
C1443  Cl1472  1.772   .     S
C1444  Cl1473  1.769   .     S
C1445  Cl1474  1.772   .     S
C1446  Cl1475  1.771   .     S
C1447  Cl1503  1.777   .     S
C1448  Cl1476  1.772   .     S
C1449  Cl1477  1.770   .     S
C1449  C1465   1.396   .     A
C1450  C1464   1.396   .     A
C1450  Cl1478  1.772   .     S
C1451  Cl1479  1.769   .     S
C1451  C1463   1.396   .     A
C1452  Cl1481  1.772   .     S
C1452  C1462   1.396   .     A
C1453  C1461   1.396   .     A
C1453  Cl1482  1.770   .     S
C1454  C1460   1.396   .     A
C1454  Cl1483  1.772   .     S
C1455  C1459   1.396   .     A
C1455  Cl1484  1.769   .     S
C1456  Cl1485  1.772   .     S
C1456  C1457   1.396   .     A
C1457  Cl1486  1.771   .     S
C1458  Cl1504  1.777   .     S
C1459  Cl1487  1.773   .     S
C1460  Cl1488  1.771   .     S
C1461  Cl1489  1.772   .     S
C1462  Cl1490  1.771   .     S
C1463  Cl1492  1.773   .     S
C1464  Cl1493  1.771   .     S
C1465  Cl1494  1.772   .     S
C1466  C890    1.422   1_655 S
C1468  C465    1.423   1_565 S
Cl1495 C857    1.778   1_655 S
Cl1497 C536    1.778   1_565 S
H1562  C917    1.111   1_655 S
H1586  C1355   1.111   1_554 S
H1588  C1356   1.110   1_554 S
H1616  C1368   1.111   1_554 S
H1619  C1369   1.110   1_554 S
O1629  Zn1697  1.945   .     S
O1629  Zn1708  1.945   .     S
O1629  Zn1700  1.945   .     S
O1630  Zn1699  1.948   .     S
O1630  C550    1.275   1_565 S
O1631  Zn1702  1.948   .     S
O1631  C979    1.274   1_655 S
O1632  Zn1701  1.948   .     S
O1633  Zn1711  1.948   .     S
O1634  Zn1710  1.948   .     S
O1635  Zn1705  1.948   .     S
O1636  Zn1697  1.948   .     S
O1637  Zn1707  1.948   .     S
O1638  Zn1706  1.948   .     S
O1639  Zn1709  1.948   .     S
O1640  Zn1703  1.945   .     S
O1640  Zn1705  1.945   .     S
O1640  Zn1709  1.945   .     S
O1641  Zn1708  1.948   .     S
O1642  Zn1700  1.933   .     S
O1643  Zn1699  1.933   .     S
O1644  Zn1702  1.932   .     S
O1645  Zn1701  1.932   .     S
O1646  Zn1704  1.933   .     S
O1647  Zn1703  1.933   .     S
O1648  Zn1698  1.932   .     S
O1649  Zn1712  1.932   .     S
O1650  Zn1699  1.932   .     S
O1651  Zn1698  1.945   .     S
O1651  Zn1706  1.945   .     S
O1651  Zn1710  1.945   .     S
O1652  Zn1700  1.932   .     S
O1653  Zn1712  1.933   .     S
O1654  Zn1698  1.933   .     S
O1655  Zn1703  1.932   .     S
O1656  Zn1704  1.932   .     S
O1657  Zn1701  1.933   .     S
O1658  Zn1702  1.933   .     S
O1659  Zn1279  1.933   1_655 S
O1660  Zn1706  1.933   .     S
O1661  Zn853   1.932   1_565 S
O1662  Zn1701  1.945   .     S
O1662  Zn1707  1.945   .     S
O1662  Zn1711  1.945   .     S
O1663  Zn1708  1.932   .     S
O1664  Zn1711  1.933   .     S
O1665  Zn1282  1.933   1_655 S
O1666  Zn1705  1.932   .     S
O1667  Zn841   1.932   1_565 S
O1668  Zn1278  1.932   1_655 S
O1669  Zn1707  1.932   .     S
O1670  Zn1697  1.933   .     S
O1671  Zn849   1.933   1_565 S
O1672  Zn1710  1.932   .     S
O1673  Zn1704  1.948   .     S
O1673  C549    1.274   1_565 A
O1674  Zn1283  1.932   1_655 S
O1675  Zn852   1.933   1_565 S
O1676  Zn1709  1.933   .     S
O1682  C916    1.414   1_655 S
O1684  Zn1703  1.948   .     S
O1685  C494    1.414   1_565 S
O1694  Zn1698  1.948   .     S
O1695  Zn1712  1.948   .     S
O1695  C980    1.275   1_655 A
O1696  Zn1700  1.948   .     S
Zn1699 O784    1.945   1_565 S
Zn1702 O1223   1.945   1_655 S
Zn1704 O773    1.945   1_565 S
Zn1712 O1234   1.945   1_655 S
