data_str_m1_o10_o18_pcu_sym.187
_audit_creation_date              2020-01-03
_audit_creation_method            'Materials Studio'
_symmetry_space_group_name_H-M    'P1'
_symmetry_Int_Tables_number       1
_symmetry_cell_setting            triclinic
loop_
_symmetry_equiv_pos_as_xyz
  x,y,z
_cell_length_a                    32.7400
_cell_length_b                    32.7556
_cell_length_c                    35.3448
_cell_angle_alpha                 98.4882
_cell_angle_beta                  72.8693
_cell_angle_gamma                 98.7875
loop_
_atom_site_label
_atom_site_type_symbol
_atom_site_fract_x
_atom_site_fract_y
_atom_site_fract_z
_atom_site_U_iso_or_equiv
_atom_site_adp_type
_atom_site_occupancy
C1     C     0.05279   0.15983   0.25873   0.00000  Uiso   1.00
C2     C     0.19063   0.11654   0.45616   0.00000  Uiso   1.00
C3     C     0.21746   0.10295   0.47546   0.00000  Uiso   1.00
C4     C     0.28100   0.17361   0.24141   0.00000  Uiso   1.00
C5     C     0.21301   0.11564   0.01677   0.00000  Uiso   1.00
C6     C     0.17669   0.13649   0.03926   0.00000  Uiso   1.00
C7     C     0.24287   0.10789   0.03675   0.00000  Uiso   1.00
C8     C     0.23362   0.11614   0.07849   0.00000  Uiso   1.00
C9     C     0.17238   0.15039   0.08023   0.00000  Uiso   1.00
C10    C     0.32671   0.17695   0.23896   0.00000  Uiso   1.00
C11    C     0.00775   0.15667   0.26250   0.00000  Uiso   1.00
C12    C     0.08589   0.19890   0.42198   0.00000  Uiso   1.00
C13    C     0.18277   0.32266   0.24081   0.00000  Uiso   1.00
C14    C     0.15071   0.01255   0.26120   0.00000  Uiso   1.00
C15    C     0.15613   0.05630   0.25852   0.00000  Uiso   1.00
C16    C     0.17691   0.27767   0.24153   0.00000  Uiso   1.00
C17    C     0.18819   0.14541   0.14376   0.00000  Uiso   1.00
C18    C     0.14431   0.18691   0.35660   0.00000  Uiso   1.00
C19    C     0.12739   0.18808   0.40069   0.00000  Uiso   1.00
C20    C     0.19782   0.13645   0.10016   0.00000  Uiso   1.00
C21    C     0.06887   0.19272   0.46272   0.00000  Uiso   1.00
C22    C     0.03569   0.17426   0.04908   0.00000  Uiso   1.00
C23    C     0.15142   0.17254   0.42076   0.00000  Uiso   1.00
C24    C     0.28466   0.09454   0.01540   0.00000  Uiso   1.00
C25    C     0.02296   0.20332   0.21074   0.00000  Uiso   1.00
C26    C     0.31435   0.12961   0.29149   0.00000  Uiso   1.00
C27    C     0.22528   0.00816   0.21741   0.00000  Uiso   1.00
C28    C     0.23738   0.00074   0.17567   0.00000  Uiso   1.00
C29    C     0.27851   0.01567   0.15362   0.00000  Uiso   1.00
C30    C     0.30770   0.03832   0.17303   0.00000  Uiso   1.00
C31    C     0.29588   0.04581   0.21455   0.00000  Uiso   1.00
C32    C     0.25487   0.03065   0.23677   0.00000  Uiso   1.00
C33    C     0.10706   0.32874   0.28004   0.00000  Uiso   1.00
C34    C     0.13390   0.16206   0.45991   0.00000  Uiso   1.00
C35    C     0.14757   0.18433   0.10080   0.00000  Uiso   1.00
C36    C     0.26243   0.10599   0.09917   0.00000  Uiso   1.00
C37    C     0.24722   0.07372   0.45251   0.00000  Uiso   1.00
C38    C     0.02676   0.20588   0.48312   0.00000  Uiso   1.00
C39    C     0.05949   0.21674   0.40225   0.00000  Uiso   1.00
C40    C     0.06543   0.25958   0.39907   0.00000  Uiso   1.00
C41    C     0.03938   0.27671   0.38201   0.00000  Uiso   1.00
C42    C     0.00727   0.25123   0.36819   0.00000  Uiso   1.00
C43    C     0.00103   0.20860   0.37157   0.00000  Uiso   1.00
C44    C     0.02707   0.19130   0.38850   0.00000  Uiso   1.00
C45    C     0.09270   0.17404   0.48226   0.00000  Uiso   1.00
C46    C     0.19186   0.09802   0.41582   0.00000  Uiso   1.00
C47    C     0.15807   0.14193   0.47794   0.00000  Uiso   1.00
C48    C     0.14682   0.14455   0.01974   0.00000  Uiso   1.00
C49    C     0.10459   0.15210   0.04080   0.00000  Uiso   1.00
C50    C     0.07760   0.16645   0.02303   0.00000  Uiso   1.00
H51    H     0.18466   0.16895   0.40519   0.00000  Uiso   1.00
H52    H     0.32041   0.26456   0.35506   0.00000  Uiso   1.00
H53    H     0.30914   0.18906   0.36131   0.00000  Uiso   1.00
H54    H     0.02182   0.15827   0.39123   0.00000  Uiso   1.00
H55    H     0.09154   0.14541   0.07145   0.00000  Uiso   1.00
H56    H     0.21513   0.31632   0.16032   0.00000  Uiso   1.00
H57    H     0.28778   0.00965   0.12146   0.00000  Uiso   1.00
H58    H     0.00619   0.04990   0.15590   0.00000  Uiso   1.00
H59    H     0.31876   0.06288   0.22947   0.00000  Uiso   1.00
H60    H     0.24641   0.03585   0.26897   0.00000  Uiso   1.00
H61    H     0.09001   0.27960   0.40996   0.00000  Uiso   1.00
H62    H     0.04395   0.30978   0.37972   0.00000  Uiso   1.00
N63    N     0.00235   0.18057   0.07039   0.00000  Uiso   1.00
N64    N     0.19286   0.08314   0.38379   0.00000  Uiso   1.00
N65    N     0.31818   0.08417   0.49876   0.00000  Uiso   1.00
N66    N     0.04645   0.22446   0.18833   0.00000  Uiso   1.00
N67    N     0.29322   0.10798   0.31468   0.00000  Uiso   1.00
N68    N     0.07214   0.31521   0.29490   0.00000  Uiso   1.00
N69    N     0.12809   0.21152   0.11720   0.00000  Uiso   1.00
N70    N     0.28555   0.09827   0.11565   0.00000  Uiso   1.00
N71    N     0.27064   0.05034   0.43389   0.00000  Uiso   1.00
N72    N     0.32649   0.21654   0.49881   0.00000  Uiso   1.00
O73    O     0.16667   0.16667   0.25000   0.00000  Uiso   1.00
O74    O     0.15693   0.12393   0.16625   0.00000  Uiso   1.00
O75    O     0.12687   0.20646   0.33749   0.00000  Uiso   1.00
O76    O     0.21088   0.17493   0.15877   0.00000  Uiso   1.00
O77    O     0.17198   0.16135   0.33749   0.00000  Uiso   1.00
O78    O     0.17849   0.08101   0.27820   0.00000  Uiso   1.00
O79    O     0.14581   0.26136   0.26767   0.00000  Uiso   1.00
O80    O     0.07452   0.13251   0.23607   0.00000  Uiso   1.00
O81    O     0.26785   0.19179   0.21805   0.00000  Uiso   1.00
O82    O     0.06990   0.18960   0.27820   0.00000  Uiso   1.00
O83    O     0.25440   0.15277   0.26767   0.00000  Uiso   1.00
O84    O     0.13800   0.06903   0.23607   0.00000  Uiso   1.00
O85    O     0.20437   0.25527   0.21805   0.00000  Uiso   1.00
Zn86   Zn    0.19244   0.14090   0.28277   0.00000  Uiso   1.00
Zn87   Zn    0.13459   0.12378   0.22257   0.00000  Uiso   1.00
Zn88   Zn    0.21166   0.19664   0.21188   0.00000  Uiso   1.00
Zn89   Zn    0.12798   0.20535   0.28277   0.00000  Uiso   1.00
C90    C     0.38612   0.15983   0.25873   0.00000  Uiso   1.00
C91    C     0.52396   0.11654   0.45616   0.00000  Uiso   1.00
C92    C     0.55080   0.10295   0.47546   0.00000  Uiso   1.00
C93    C     0.61433   0.17361   0.24141   0.00000  Uiso   1.00
C94    C     0.54635   0.11564   0.01677   0.00000  Uiso   1.00
C95    C     0.51002   0.13649   0.03926   0.00000  Uiso   1.00
C96    C     0.57620   0.10789   0.03675   0.00000  Uiso   1.00
C97    C     0.56695   0.11614   0.07849   0.00000  Uiso   1.00
C98    C     0.50571   0.15039   0.08023   0.00000  Uiso   1.00
C99    C     0.66004   0.17695   0.23896   0.00000  Uiso   1.00
C100   C     0.34108   0.15667   0.26250   0.00000  Uiso   1.00
C101   C     0.41922   0.19890   0.42198   0.00000  Uiso   1.00
C102   C     0.51610   0.32266   0.24081   0.00000  Uiso   1.00
C103   C     0.48405   0.01255   0.26120   0.00000  Uiso   1.00
C104   C     0.48946   0.05630   0.25852   0.00000  Uiso   1.00
C105   C     0.51024   0.27767   0.24153   0.00000  Uiso   1.00
C106   C     0.52152   0.14541   0.14376   0.00000  Uiso   1.00
C107   C     0.47764   0.18691   0.35660   0.00000  Uiso   1.00
C108   C     0.46073   0.18808   0.40069   0.00000  Uiso   1.00
C109   C     0.53115   0.13645   0.10016   0.00000  Uiso   1.00
C110   C     0.40220   0.19272   0.46272   0.00000  Uiso   1.00
C111   C     0.36902   0.17426   0.04908   0.00000  Uiso   1.00
C112   C     0.48476   0.17254   0.42076   0.00000  Uiso   1.00
C113   C     0.61799   0.09454   0.01540   0.00000  Uiso   1.00
C114   C     0.35629   0.20332   0.21074   0.00000  Uiso   1.00
C115   C     0.64769   0.12961   0.29149   0.00000  Uiso   1.00
C116   C     0.55862   0.00816   0.21741   0.00000  Uiso   1.00
C117   C     0.57071   0.00074   0.17567   0.00000  Uiso   1.00
C118   C     0.61184   0.01567   0.15362   0.00000  Uiso   1.00
C119   C     0.64103   0.03832   0.17303   0.00000  Uiso   1.00
C120   C     0.62922   0.04581   0.21455   0.00000  Uiso   1.00
C121   C     0.58821   0.03065   0.23677   0.00000  Uiso   1.00
C122   C     0.44040   0.32874   0.28004   0.00000  Uiso   1.00
C123   C     0.46723   0.16206   0.45991   0.00000  Uiso   1.00
C124   C     0.48090   0.18433   0.10080   0.00000  Uiso   1.00
C125   C     0.59576   0.10599   0.09917   0.00000  Uiso   1.00
C126   C     0.58055   0.07372   0.45251   0.00000  Uiso   1.00
C127   C     0.36010   0.20588   0.48312   0.00000  Uiso   1.00
C128   C     0.39283   0.21674   0.40225   0.00000  Uiso   1.00
C129   C     0.39876   0.25958   0.39907   0.00000  Uiso   1.00
C130   C     0.37272   0.27671   0.38201   0.00000  Uiso   1.00
C131   C     0.34060   0.25123   0.36819   0.00000  Uiso   1.00
C132   C     0.33436   0.20860   0.37157   0.00000  Uiso   1.00
C133   C     0.36041   0.19130   0.38850   0.00000  Uiso   1.00
C134   C     0.42604   0.17404   0.48226   0.00000  Uiso   1.00
C135   C     0.52519   0.09802   0.41582   0.00000  Uiso   1.00
C136   C     0.49141   0.14193   0.47794   0.00000  Uiso   1.00
C137   C     0.48015   0.14455   0.01974   0.00000  Uiso   1.00
C138   C     0.43792   0.15210   0.04080   0.00000  Uiso   1.00
C139   C     0.41094   0.16645   0.02303   0.00000  Uiso   1.00
H140   H     0.51800   0.16895   0.40519   0.00000  Uiso   1.00
H141   H     0.65374   0.26456   0.35506   0.00000  Uiso   1.00
H142   H     0.64247   0.18906   0.36131   0.00000  Uiso   1.00
H143   H     0.35516   0.15827   0.39123   0.00000  Uiso   1.00
H144   H     0.42487   0.14541   0.07145   0.00000  Uiso   1.00
H145   H     0.54847   0.31632   0.16032   0.00000  Uiso   1.00
H146   H     0.62111   0.00965   0.12146   0.00000  Uiso   1.00
H147   H     0.33953   0.04990   0.15590   0.00000  Uiso   1.00
H148   H     0.65209   0.06288   0.22947   0.00000  Uiso   1.00
H149   H     0.57975   0.03585   0.26897   0.00000  Uiso   1.00
H150   H     0.42334   0.27960   0.40996   0.00000  Uiso   1.00
H151   H     0.37728   0.30978   0.37972   0.00000  Uiso   1.00
N152   N     0.33569   0.18057   0.07039   0.00000  Uiso   1.00
N153   N     0.52619   0.08314   0.38379   0.00000  Uiso   1.00
N154   N     0.65151   0.08417   0.49876   0.00000  Uiso   1.00
N155   N     0.37979   0.22446   0.18833   0.00000  Uiso   1.00
N156   N     0.62655   0.10798   0.31468   0.00000  Uiso   1.00
N157   N     0.40548   0.31521   0.29490   0.00000  Uiso   1.00
N158   N     0.46142   0.21152   0.11720   0.00000  Uiso   1.00
N159   N     0.61889   0.09827   0.11565   0.00000  Uiso   1.00
N160   N     0.60397   0.05034   0.43389   0.00000  Uiso   1.00
N161   N     0.65983   0.21654   0.49881   0.00000  Uiso   1.00
O162   O     0.50000   0.16667   0.25000   0.00000  Uiso   1.00
O163   O     0.49027   0.12393   0.16625   0.00000  Uiso   1.00
O164   O     0.46020   0.20646   0.33749   0.00000  Uiso   1.00
O165   O     0.54421   0.17493   0.15877   0.00000  Uiso   1.00
O166   O     0.50532   0.16135   0.33749   0.00000  Uiso   1.00
O167   O     0.51182   0.08101   0.27820   0.00000  Uiso   1.00
O168   O     0.47914   0.26136   0.26767   0.00000  Uiso   1.00
O169   O     0.40785   0.13251   0.23607   0.00000  Uiso   1.00
O170   O     0.60119   0.19179   0.21805   0.00000  Uiso   1.00
O171   O     0.40323   0.18960   0.27820   0.00000  Uiso   1.00
O172   O     0.58773   0.15277   0.26767   0.00000  Uiso   1.00
O173   O     0.47133   0.06903   0.23607   0.00000  Uiso   1.00
O174   O     0.53771   0.25527   0.21805   0.00000  Uiso   1.00
Zn175  Zn    0.52577   0.14090   0.28277   0.00000  Uiso   1.00
Zn176  Zn    0.46792   0.12378   0.22257   0.00000  Uiso   1.00
Zn177  Zn    0.54500   0.19664   0.21188   0.00000  Uiso   1.00
Zn178  Zn    0.46131   0.20535   0.28277   0.00000  Uiso   1.00
C179   C     0.71946   0.15983   0.25873   0.00000  Uiso   1.00
C180   C     0.85729   0.11654   0.45616   0.00000  Uiso   1.00
C181   C     0.88413   0.10295   0.47546   0.00000  Uiso   1.00
C182   C     0.94766   0.17361   0.24141   0.00000  Uiso   1.00
C183   C     0.87968   0.11564   0.01677   0.00000  Uiso   1.00
C184   C     0.84336   0.13649   0.03926   0.00000  Uiso   1.00
C185   C     0.90953   0.10789   0.03675   0.00000  Uiso   1.00
C186   C     0.90028   0.11614   0.07849   0.00000  Uiso   1.00
C187   C     0.83905   0.15039   0.08023   0.00000  Uiso   1.00
C188   C     0.99337   0.17695   0.23896   0.00000  Uiso   1.00
C189   C     0.67441   0.15667   0.26250   0.00000  Uiso   1.00
C190   C     0.75255   0.19890   0.42198   0.00000  Uiso   1.00
C191   C     0.84943   0.32266   0.24081   0.00000  Uiso   1.00
C192   C     0.81738   0.01255   0.26120   0.00000  Uiso   1.00
C193   C     0.82280   0.05630   0.25852   0.00000  Uiso   1.00
C194   C     0.84357   0.27767   0.24153   0.00000  Uiso   1.00
C195   C     0.85486   0.14541   0.14376   0.00000  Uiso   1.00
C196   C     0.81097   0.18691   0.35660   0.00000  Uiso   1.00
C197   C     0.79406   0.18808   0.40069   0.00000  Uiso   1.00
C198   C     0.86448   0.13645   0.10016   0.00000  Uiso   1.00
C199   C     0.73554   0.19272   0.46272   0.00000  Uiso   1.00
C200   C     0.70235   0.17426   0.04908   0.00000  Uiso   1.00
C201   C     0.81809   0.17254   0.42076   0.00000  Uiso   1.00
C202   C     0.95132   0.09454   0.01540   0.00000  Uiso   1.00
C203   C     0.68963   0.20332   0.21074   0.00000  Uiso   1.00
C204   C     0.98102   0.12961   0.29149   0.00000  Uiso   1.00
C205   C     0.89195   0.00816   0.21741   0.00000  Uiso   1.00
C206   C     0.90405   0.00074   0.17567   0.00000  Uiso   1.00
C207   C     0.94518   0.01567   0.15362   0.00000  Uiso   1.00
C208   C     0.97437   0.03832   0.17303   0.00000  Uiso   1.00
C209   C     0.96255   0.04581   0.21455   0.00000  Uiso   1.00
C210   C     0.92154   0.03065   0.23677   0.00000  Uiso   1.00
C211   C     0.77373   0.32874   0.28004   0.00000  Uiso   1.00
C212   C     0.80057   0.16206   0.45991   0.00000  Uiso   1.00
C213   C     0.81423   0.18433   0.10080   0.00000  Uiso   1.00
C214   C     0.92909   0.10599   0.09917   0.00000  Uiso   1.00
C215   C     0.91389   0.07372   0.45251   0.00000  Uiso   1.00
C216   C     0.69343   0.20588   0.48312   0.00000  Uiso   1.00
C217   C     0.72616   0.21674   0.40225   0.00000  Uiso   1.00
C218   C     0.73210   0.25958   0.39907   0.00000  Uiso   1.00
C219   C     0.70605   0.27671   0.38201   0.00000  Uiso   1.00
C220   C     0.67394   0.25123   0.36819   0.00000  Uiso   1.00
C221   C     0.66769   0.20860   0.37157   0.00000  Uiso   1.00
C222   C     0.69374   0.19130   0.38850   0.00000  Uiso   1.00
C223   C     0.75937   0.17404   0.48226   0.00000  Uiso   1.00
C224   C     0.85853   0.09802   0.41582   0.00000  Uiso   1.00
C225   C     0.82474   0.14193   0.47794   0.00000  Uiso   1.00
C226   C     0.81348   0.14455   0.01974   0.00000  Uiso   1.00
C227   C     0.77125   0.15210   0.04080   0.00000  Uiso   1.00
C228   C     0.74427   0.16645   0.02303   0.00000  Uiso   1.00
H229   H     0.85133   0.16895   0.40519   0.00000  Uiso   1.00
H230   H     0.98708   0.26456   0.35506   0.00000  Uiso   1.00
H231   H     0.97580   0.18906   0.36131   0.00000  Uiso   1.00
H232   H     0.68849   0.15827   0.39123   0.00000  Uiso   1.00
H233   H     0.75821   0.14541   0.07145   0.00000  Uiso   1.00
H234   H     0.88180   0.31632   0.16032   0.00000  Uiso   1.00
H235   H     0.95444   0.00965   0.12146   0.00000  Uiso   1.00
H236   H     0.67286   0.04990   0.15590   0.00000  Uiso   1.00
H237   H     0.98542   0.06288   0.22947   0.00000  Uiso   1.00
H238   H     0.91308   0.03585   0.26897   0.00000  Uiso   1.00
H239   H     0.75668   0.27960   0.40996   0.00000  Uiso   1.00
H240   H     0.71061   0.30978   0.37972   0.00000  Uiso   1.00
N241   N     0.66902   0.18057   0.07039   0.00000  Uiso   1.00
N242   N     0.85952   0.08314   0.38379   0.00000  Uiso   1.00
N243   N     0.98485   0.08417   0.49876   0.00000  Uiso   1.00
N244   N     0.71312   0.22446   0.18833   0.00000  Uiso   1.00
N245   N     0.95988   0.10798   0.31468   0.00000  Uiso   1.00
N246   N     0.73881   0.31521   0.29490   0.00000  Uiso   1.00
N247   N     0.79476   0.21152   0.11720   0.00000  Uiso   1.00
N248   N     0.95222   0.09827   0.11565   0.00000  Uiso   1.00
N249   N     0.93730   0.05034   0.43389   0.00000  Uiso   1.00
N250   N     0.99316   0.21654   0.49881   0.00000  Uiso   1.00
O251   O     0.83333   0.16667   0.25000   0.00000  Uiso   1.00
O252   O     0.82360   0.12393   0.16625   0.00000  Uiso   1.00
O253   O     0.79354   0.20646   0.33749   0.00000  Uiso   1.00
O254   O     0.87755   0.17493   0.15877   0.00000  Uiso   1.00
O255   O     0.83865   0.16135   0.33749   0.00000  Uiso   1.00
O256   O     0.84515   0.08101   0.27820   0.00000  Uiso   1.00
O257   O     0.81247   0.26136   0.26767   0.00000  Uiso   1.00
O258   O     0.74119   0.13251   0.23607   0.00000  Uiso   1.00
O259   O     0.93452   0.19179   0.21805   0.00000  Uiso   1.00
O260   O     0.73656   0.18960   0.27820   0.00000  Uiso   1.00
O261   O     0.92106   0.15277   0.26767   0.00000  Uiso   1.00
O262   O     0.80467   0.06903   0.23607   0.00000  Uiso   1.00
O263   O     0.87104   0.25527   0.21805   0.00000  Uiso   1.00
Zn264  Zn    0.85910   0.14090   0.28277   0.00000  Uiso   1.00
Zn265  Zn    0.80125   0.12378   0.22257   0.00000  Uiso   1.00
Zn266  Zn    0.87833   0.19664   0.21188   0.00000  Uiso   1.00
Zn267  Zn    0.79465   0.20535   0.28277   0.00000  Uiso   1.00
C268   C     0.05279   0.49317   0.25873   0.00000  Uiso   1.00
C269   C     0.19063   0.44987   0.45616   0.00000  Uiso   1.00
C270   C     0.21746   0.43629   0.47546   0.00000  Uiso   1.00
C271   C     0.28100   0.50694   0.24141   0.00000  Uiso   1.00
C272   C     0.21301   0.44897   0.01677   0.00000  Uiso   1.00
C273   C     0.17669   0.46982   0.03926   0.00000  Uiso   1.00
C274   C     0.24287   0.44122   0.03675   0.00000  Uiso   1.00
C275   C     0.23362   0.44947   0.07849   0.00000  Uiso   1.00
C276   C     0.17238   0.48372   0.08023   0.00000  Uiso   1.00
C277   C     0.32671   0.51028   0.23896   0.00000  Uiso   1.00
C278   C     0.00775   0.49001   0.26250   0.00000  Uiso   1.00
C279   C     0.08589   0.53223   0.42198   0.00000  Uiso   1.00
C280   C     0.18277   0.65599   0.24081   0.00000  Uiso   1.00
C281   C     0.15071   0.34589   0.26120   0.00000  Uiso   1.00
C282   C     0.15613   0.38963   0.25852   0.00000  Uiso   1.00
C283   C     0.17691   0.61100   0.24153   0.00000  Uiso   1.00
C284   C     0.18819   0.47874   0.14376   0.00000  Uiso   1.00
C285   C     0.14431   0.52024   0.35660   0.00000  Uiso   1.00
C286   C     0.12739   0.52141   0.40069   0.00000  Uiso   1.00
C287   C     0.19782   0.46978   0.10016   0.00000  Uiso   1.00
C288   C     0.06887   0.52605   0.46272   0.00000  Uiso   1.00
C289   C     0.03569   0.50760   0.04908   0.00000  Uiso   1.00
C290   C     0.15142   0.50588   0.42076   0.00000  Uiso   1.00
C291   C     0.28466   0.42788   0.01540   0.00000  Uiso   1.00
C292   C     0.02296   0.53666   0.21074   0.00000  Uiso   1.00
C293   C     0.31435   0.46295   0.29149   0.00000  Uiso   1.00
C294   C     0.22528   0.34149   0.21741   0.00000  Uiso   1.00
C295   C     0.23738   0.33408   0.17567   0.00000  Uiso   1.00
C296   C     0.27851   0.34901   0.15362   0.00000  Uiso   1.00
C297   C     0.30770   0.37165   0.17303   0.00000  Uiso   1.00
C298   C     0.29588   0.37915   0.21455   0.00000  Uiso   1.00
C299   C     0.25487   0.36399   0.23677   0.00000  Uiso   1.00
C300   C     0.10706   0.66207   0.28004   0.00000  Uiso   1.00
C301   C     0.13390   0.49539   0.45991   0.00000  Uiso   1.00
C302   C     0.14757   0.51766   0.10080   0.00000  Uiso   1.00
C303   C     0.26243   0.43932   0.09917   0.00000  Uiso   1.00
C304   C     0.24722   0.40705   0.45251   0.00000  Uiso   1.00
C305   C     0.02676   0.53921   0.48312   0.00000  Uiso   1.00
C306   C     0.05949   0.55008   0.40225   0.00000  Uiso   1.00
C307   C     0.06543   0.59292   0.39907   0.00000  Uiso   1.00
C308   C     0.03938   0.61005   0.38201   0.00000  Uiso   1.00
C309   C     0.00727   0.58457   0.36819   0.00000  Uiso   1.00
C310   C     0.00103   0.54193   0.37157   0.00000  Uiso   1.00
C311   C     0.02707   0.52463   0.38850   0.00000  Uiso   1.00
C312   C     0.09270   0.50737   0.48226   0.00000  Uiso   1.00
C313   C     0.19186   0.43135   0.41582   0.00000  Uiso   1.00
C314   C     0.15807   0.47526   0.47794   0.00000  Uiso   1.00
C315   C     0.14682   0.47789   0.01974   0.00000  Uiso   1.00
C316   C     0.10459   0.48544   0.04080   0.00000  Uiso   1.00
C317   C     0.07760   0.49979   0.02303   0.00000  Uiso   1.00
H318   H     0.18466   0.50228   0.40519   0.00000  Uiso   1.00
H319   H     0.32041   0.59789   0.35506   0.00000  Uiso   1.00
H320   H     0.30914   0.52239   0.36131   0.00000  Uiso   1.00
H321   H     0.02182   0.49161   0.39123   0.00000  Uiso   1.00
H322   H     0.09154   0.47874   0.07145   0.00000  Uiso   1.00
H323   H     0.21513   0.64965   0.16032   0.00000  Uiso   1.00
H324   H     0.28778   0.34299   0.12146   0.00000  Uiso   1.00
H325   H     0.00619   0.38324   0.15590   0.00000  Uiso   1.00
H326   H     0.31876   0.39621   0.22947   0.00000  Uiso   1.00
H327   H     0.24641   0.36918   0.26897   0.00000  Uiso   1.00
H328   H     0.09001   0.61294   0.40996   0.00000  Uiso   1.00
H329   H     0.04395   0.64311   0.37972   0.00000  Uiso   1.00
N330   N     0.00235   0.51390   0.07039   0.00000  Uiso   1.00
N331   N     0.19286   0.41648   0.38379   0.00000  Uiso   1.00
N332   N     0.31818   0.41750   0.49876   0.00000  Uiso   1.00
N333   N     0.04645   0.55779   0.18833   0.00000  Uiso   1.00
N334   N     0.29322   0.44131   0.31468   0.00000  Uiso   1.00
N335   N     0.07214   0.64855   0.29490   0.00000  Uiso   1.00
N336   N     0.12809   0.54485   0.11720   0.00000  Uiso   1.00
N337   N     0.28555   0.43161   0.11565   0.00000  Uiso   1.00
N338   N     0.27064   0.38368   0.43389   0.00000  Uiso   1.00
N339   N     0.32649   0.54988   0.49881   0.00000  Uiso   1.00
O340   O     0.16667   0.50000   0.25000   0.00000  Uiso   1.00
O341   O     0.15693   0.45726   0.16625   0.00000  Uiso   1.00
O342   O     0.12687   0.53979   0.33749   0.00000  Uiso   1.00
O343   O     0.21088   0.50826   0.15877   0.00000  Uiso   1.00
O344   O     0.17198   0.49468   0.33749   0.00000  Uiso   1.00
O345   O     0.17849   0.41434   0.27820   0.00000  Uiso   1.00
O346   O     0.14581   0.59469   0.26767   0.00000  Uiso   1.00
O347   O     0.07452   0.46584   0.23607   0.00000  Uiso   1.00
O348   O     0.26785   0.52512   0.21805   0.00000  Uiso   1.00
O349   O     0.06990   0.52293   0.27820   0.00000  Uiso   1.00
O350   O     0.25440   0.48610   0.26767   0.00000  Uiso   1.00
O351   O     0.13800   0.40236   0.23607   0.00000  Uiso   1.00
O352   O     0.20437   0.58860   0.21805   0.00000  Uiso   1.00
Zn353  Zn    0.19244   0.47423   0.28277   0.00000  Uiso   1.00
Zn354  Zn    0.13459   0.45711   0.22257   0.00000  Uiso   1.00
Zn355  Zn    0.21166   0.52997   0.21188   0.00000  Uiso   1.00
Zn356  Zn    0.12798   0.53868   0.28277   0.00000  Uiso   1.00
C357   C     0.38612   0.49317   0.25873   0.00000  Uiso   1.00
C358   C     0.52396   0.44987   0.45616   0.00000  Uiso   1.00
C359   C     0.55080   0.43629   0.47546   0.00000  Uiso   1.00
C360   C     0.61433   0.50694   0.24141   0.00000  Uiso   1.00
C361   C     0.54635   0.44897   0.01677   0.00000  Uiso   1.00
C362   C     0.51002   0.46982   0.03926   0.00000  Uiso   1.00
C363   C     0.57620   0.44122   0.03675   0.00000  Uiso   1.00
C364   C     0.56695   0.44947   0.07849   0.00000  Uiso   1.00
C365   C     0.50571   0.48372   0.08023   0.00000  Uiso   1.00
C366   C     0.66004   0.51028   0.23896   0.00000  Uiso   1.00
C367   C     0.34108   0.49001   0.26250   0.00000  Uiso   1.00
C368   C     0.41922   0.53223   0.42198   0.00000  Uiso   1.00
C369   C     0.51610   0.65599   0.24081   0.00000  Uiso   1.00
C370   C     0.48405   0.34589   0.26120   0.00000  Uiso   1.00
C371   C     0.48946   0.38963   0.25852   0.00000  Uiso   1.00
C372   C     0.51024   0.61100   0.24153   0.00000  Uiso   1.00
C373   C     0.52152   0.47874   0.14376   0.00000  Uiso   1.00
C374   C     0.47764   0.52024   0.35660   0.00000  Uiso   1.00
C375   C     0.46073   0.52141   0.40069   0.00000  Uiso   1.00
C376   C     0.53115   0.46978   0.10016   0.00000  Uiso   1.00
C377   C     0.40220   0.52605   0.46272   0.00000  Uiso   1.00
C378   C     0.36902   0.50760   0.04908   0.00000  Uiso   1.00
C379   C     0.48476   0.50588   0.42076   0.00000  Uiso   1.00
C380   C     0.61799   0.42788   0.01540   0.00000  Uiso   1.00
C381   C     0.35629   0.53666   0.21074   0.00000  Uiso   1.00
C382   C     0.64769   0.46295   0.29149   0.00000  Uiso   1.00
C383   C     0.55862   0.34149   0.21741   0.00000  Uiso   1.00
C384   C     0.57071   0.33408   0.17567   0.00000  Uiso   1.00
C385   C     0.61184   0.34901   0.15362   0.00000  Uiso   1.00
C386   C     0.64103   0.37165   0.17303   0.00000  Uiso   1.00
C387   C     0.62922   0.37915   0.21455   0.00000  Uiso   1.00
C388   C     0.58821   0.36399   0.23677   0.00000  Uiso   1.00
C389   C     0.44040   0.66207   0.28004   0.00000  Uiso   1.00
C390   C     0.46723   0.49539   0.45991   0.00000  Uiso   1.00
C391   C     0.48090   0.51766   0.10080   0.00000  Uiso   1.00
C392   C     0.59576   0.43932   0.09917   0.00000  Uiso   1.00
C393   C     0.58055   0.40705   0.45251   0.00000  Uiso   1.00
C394   C     0.36010   0.53921   0.48312   0.00000  Uiso   1.00
C395   C     0.39283   0.55008   0.40225   0.00000  Uiso   1.00
C396   C     0.39876   0.59292   0.39907   0.00000  Uiso   1.00
C397   C     0.37272   0.61005   0.38201   0.00000  Uiso   1.00
C398   C     0.34060   0.58457   0.36819   0.00000  Uiso   1.00
C399   C     0.33436   0.54193   0.37157   0.00000  Uiso   1.00
C400   C     0.36041   0.52463   0.38850   0.00000  Uiso   1.00
C401   C     0.42604   0.50737   0.48226   0.00000  Uiso   1.00
C402   C     0.52519   0.43135   0.41582   0.00000  Uiso   1.00
C403   C     0.49141   0.47526   0.47794   0.00000  Uiso   1.00
C404   C     0.48015   0.47789   0.01974   0.00000  Uiso   1.00
C405   C     0.43792   0.48544   0.04080   0.00000  Uiso   1.00
C406   C     0.41094   0.49979   0.02303   0.00000  Uiso   1.00
H407   H     0.51800   0.50228   0.40519   0.00000  Uiso   1.00
H408   H     0.65374   0.59789   0.35506   0.00000  Uiso   1.00
H409   H     0.64247   0.52239   0.36131   0.00000  Uiso   1.00
H410   H     0.35516   0.49161   0.39123   0.00000  Uiso   1.00
H411   H     0.42487   0.47874   0.07145   0.00000  Uiso   1.00
H412   H     0.54847   0.64965   0.16032   0.00000  Uiso   1.00
H413   H     0.62111   0.34299   0.12146   0.00000  Uiso   1.00
H414   H     0.33953   0.38324   0.15590   0.00000  Uiso   1.00
H415   H     0.65209   0.39621   0.22947   0.00000  Uiso   1.00
H416   H     0.57975   0.36918   0.26897   0.00000  Uiso   1.00
H417   H     0.42334   0.61294   0.40996   0.00000  Uiso   1.00
H418   H     0.37728   0.64311   0.37972   0.00000  Uiso   1.00
N419   N     0.33569   0.51390   0.07039   0.00000  Uiso   1.00
N420   N     0.52619   0.41648   0.38379   0.00000  Uiso   1.00
N421   N     0.65151   0.41750   0.49876   0.00000  Uiso   1.00
N422   N     0.37979   0.55779   0.18833   0.00000  Uiso   1.00
N423   N     0.62655   0.44131   0.31468   0.00000  Uiso   1.00
N424   N     0.40548   0.64855   0.29490   0.00000  Uiso   1.00
N425   N     0.46142   0.54485   0.11720   0.00000  Uiso   1.00
N426   N     0.61889   0.43161   0.11565   0.00000  Uiso   1.00
N427   N     0.60397   0.38368   0.43389   0.00000  Uiso   1.00
N428   N     0.65983   0.54988   0.49881   0.00000  Uiso   1.00
O429   O     0.50000   0.50000   0.25000   0.00000  Uiso   1.00
O430   O     0.49027   0.45726   0.16625   0.00000  Uiso   1.00
O431   O     0.46020   0.53979   0.33749   0.00000  Uiso   1.00
O432   O     0.54421   0.50826   0.15877   0.00000  Uiso   1.00
O433   O     0.50532   0.49468   0.33749   0.00000  Uiso   1.00
O434   O     0.51182   0.41434   0.27820   0.00000  Uiso   1.00
O435   O     0.47914   0.59469   0.26767   0.00000  Uiso   1.00
O436   O     0.40785   0.46584   0.23607   0.00000  Uiso   1.00
O437   O     0.60119   0.52512   0.21805   0.00000  Uiso   1.00
O438   O     0.40323   0.52293   0.27820   0.00000  Uiso   1.00
O439   O     0.58773   0.48610   0.26767   0.00000  Uiso   1.00
O440   O     0.47133   0.40236   0.23607   0.00000  Uiso   1.00
O441   O     0.53771   0.58860   0.21805   0.00000  Uiso   1.00
Zn442  Zn    0.52577   0.47423   0.28277   0.00000  Uiso   1.00
Zn443  Zn    0.46792   0.45711   0.22257   0.00000  Uiso   1.00
Zn444  Zn    0.54500   0.52997   0.21188   0.00000  Uiso   1.00
Zn445  Zn    0.46131   0.53868   0.28277   0.00000  Uiso   1.00
C446   C     0.71946   0.49317   0.25873   0.00000  Uiso   1.00
C447   C     0.85729   0.44987   0.45616   0.00000  Uiso   1.00
C448   C     0.88413   0.43629   0.47546   0.00000  Uiso   1.00
C449   C     0.94766   0.50694   0.24141   0.00000  Uiso   1.00
C450   C     0.87968   0.44897   0.01677   0.00000  Uiso   1.00
C451   C     0.84336   0.46982   0.03926   0.00000  Uiso   1.00
C452   C     0.90953   0.44122   0.03675   0.00000  Uiso   1.00
C453   C     0.90028   0.44947   0.07849   0.00000  Uiso   1.00
C454   C     0.83905   0.48372   0.08023   0.00000  Uiso   1.00
C455   C     0.99337   0.51028   0.23896   0.00000  Uiso   1.00
C456   C     0.67441   0.49001   0.26250   0.00000  Uiso   1.00
C457   C     0.75255   0.53223   0.42198   0.00000  Uiso   1.00
C458   C     0.84943   0.65599   0.24081   0.00000  Uiso   1.00
C459   C     0.81738   0.34589   0.26120   0.00000  Uiso   1.00
C460   C     0.82280   0.38963   0.25852   0.00000  Uiso   1.00
C461   C     0.84357   0.61100   0.24153   0.00000  Uiso   1.00
C462   C     0.85486   0.47874   0.14376   0.00000  Uiso   1.00
C463   C     0.81097   0.52024   0.35660   0.00000  Uiso   1.00
C464   C     0.79406   0.52141   0.40069   0.00000  Uiso   1.00
C465   C     0.86448   0.46978   0.10016   0.00000  Uiso   1.00
C466   C     0.73554   0.52605   0.46272   0.00000  Uiso   1.00
C467   C     0.70235   0.50760   0.04908   0.00000  Uiso   1.00
C468   C     0.81809   0.50588   0.42076   0.00000  Uiso   1.00
C469   C     0.95132   0.42788   0.01540   0.00000  Uiso   1.00
C470   C     0.68963   0.53666   0.21074   0.00000  Uiso   1.00
C471   C     0.98102   0.46295   0.29149   0.00000  Uiso   1.00
C472   C     0.89195   0.34149   0.21741   0.00000  Uiso   1.00
C473   C     0.90405   0.33408   0.17567   0.00000  Uiso   1.00
C474   C     0.94518   0.34901   0.15362   0.00000  Uiso   1.00
C475   C     0.97437   0.37165   0.17303   0.00000  Uiso   1.00
C476   C     0.96255   0.37915   0.21455   0.00000  Uiso   1.00
C477   C     0.92154   0.36399   0.23677   0.00000  Uiso   1.00
C478   C     0.77373   0.66207   0.28004   0.00000  Uiso   1.00
C479   C     0.80057   0.49539   0.45991   0.00000  Uiso   1.00
C480   C     0.81423   0.51766   0.10080   0.00000  Uiso   1.00
C481   C     0.92909   0.43932   0.09917   0.00000  Uiso   1.00
C482   C     0.91389   0.40705   0.45251   0.00000  Uiso   1.00
C483   C     0.69343   0.53921   0.48312   0.00000  Uiso   1.00
C484   C     0.72616   0.55008   0.40225   0.00000  Uiso   1.00
C485   C     0.73210   0.59292   0.39907   0.00000  Uiso   1.00
C486   C     0.70605   0.61005   0.38201   0.00000  Uiso   1.00
C487   C     0.67394   0.58457   0.36819   0.00000  Uiso   1.00
C488   C     0.66769   0.54193   0.37157   0.00000  Uiso   1.00
C489   C     0.69374   0.52463   0.38850   0.00000  Uiso   1.00
C490   C     0.75937   0.50737   0.48226   0.00000  Uiso   1.00
C491   C     0.85853   0.43135   0.41582   0.00000  Uiso   1.00
C492   C     0.82474   0.47526   0.47794   0.00000  Uiso   1.00
C493   C     0.81348   0.47789   0.01974   0.00000  Uiso   1.00
C494   C     0.77125   0.48544   0.04080   0.00000  Uiso   1.00
C495   C     0.74427   0.49979   0.02303   0.00000  Uiso   1.00
H496   H     0.85133   0.50228   0.40519   0.00000  Uiso   1.00
H497   H     0.98708   0.59789   0.35506   0.00000  Uiso   1.00
H498   H     0.97580   0.52239   0.36131   0.00000  Uiso   1.00
H499   H     0.68849   0.49161   0.39123   0.00000  Uiso   1.00
H500   H     0.75821   0.47874   0.07145   0.00000  Uiso   1.00
H501   H     0.88180   0.64965   0.16032   0.00000  Uiso   1.00
H502   H     0.95444   0.34299   0.12146   0.00000  Uiso   1.00
H503   H     0.67286   0.38324   0.15590   0.00000  Uiso   1.00
H504   H     0.98542   0.39621   0.22947   0.00000  Uiso   1.00
H505   H     0.91308   0.36918   0.26897   0.00000  Uiso   1.00
H506   H     0.75668   0.61294   0.40996   0.00000  Uiso   1.00
H507   H     0.71061   0.64311   0.37972   0.00000  Uiso   1.00
N508   N     0.66902   0.51390   0.07039   0.00000  Uiso   1.00
N509   N     0.85952   0.41648   0.38379   0.00000  Uiso   1.00
N510   N     0.98485   0.41750   0.49876   0.00000  Uiso   1.00
N511   N     0.71312   0.55779   0.18833   0.00000  Uiso   1.00
N512   N     0.95988   0.44131   0.31468   0.00000  Uiso   1.00
N513   N     0.73881   0.64855   0.29490   0.00000  Uiso   1.00
N514   N     0.79476   0.54485   0.11720   0.00000  Uiso   1.00
N515   N     0.95222   0.43161   0.11565   0.00000  Uiso   1.00
N516   N     0.93730   0.38368   0.43389   0.00000  Uiso   1.00
N517   N     0.99316   0.54988   0.49881   0.00000  Uiso   1.00
O518   O     0.83333   0.50000   0.25000   0.00000  Uiso   1.00
O519   O     0.82360   0.45726   0.16625   0.00000  Uiso   1.00
O520   O     0.79354   0.53979   0.33749   0.00000  Uiso   1.00
O521   O     0.87755   0.50826   0.15877   0.00000  Uiso   1.00
O522   O     0.83865   0.49468   0.33749   0.00000  Uiso   1.00
O523   O     0.84515   0.41434   0.27820   0.00000  Uiso   1.00
O524   O     0.81247   0.59469   0.26767   0.00000  Uiso   1.00
O525   O     0.74119   0.46584   0.23607   0.00000  Uiso   1.00
O526   O     0.93452   0.52512   0.21805   0.00000  Uiso   1.00
O527   O     0.73656   0.52293   0.27820   0.00000  Uiso   1.00
O528   O     0.92106   0.48610   0.26767   0.00000  Uiso   1.00
O529   O     0.80467   0.40236   0.23607   0.00000  Uiso   1.00
O530   O     0.87104   0.58860   0.21805   0.00000  Uiso   1.00
Zn531  Zn    0.85910   0.47423   0.28277   0.00000  Uiso   1.00
Zn532  Zn    0.80125   0.45711   0.22257   0.00000  Uiso   1.00
Zn533  Zn    0.87833   0.52997   0.21188   0.00000  Uiso   1.00
Zn534  Zn    0.79465   0.53868   0.28277   0.00000  Uiso   1.00
C535   C     0.05279   0.82650   0.25873   0.00000  Uiso   1.00
C536   C     0.19063   0.78320   0.45616   0.00000  Uiso   1.00
C537   C     0.21746   0.76962   0.47546   0.00000  Uiso   1.00
C538   C     0.28100   0.84028   0.24141   0.00000  Uiso   1.00
C539   C     0.21301   0.78231   0.01677   0.00000  Uiso   1.00
C540   C     0.17669   0.80316   0.03926   0.00000  Uiso   1.00
C541   C     0.24287   0.77456   0.03675   0.00000  Uiso   1.00
C542   C     0.23362   0.78281   0.07849   0.00000  Uiso   1.00
C543   C     0.17238   0.81706   0.08023   0.00000  Uiso   1.00
C544   C     0.32671   0.84361   0.23896   0.00000  Uiso   1.00
C545   C     0.00775   0.82334   0.26250   0.00000  Uiso   1.00
C546   C     0.08589   0.86557   0.42198   0.00000  Uiso   1.00
C547   C     0.18277   0.98933   0.24081   0.00000  Uiso   1.00
C548   C     0.15071   0.67922   0.26120   0.00000  Uiso   1.00
C549   C     0.15613   0.72297   0.25852   0.00000  Uiso   1.00
C550   C     0.17691   0.94433   0.24153   0.00000  Uiso   1.00
C551   C     0.18819   0.81208   0.14376   0.00000  Uiso   1.00
C552   C     0.14431   0.85358   0.35660   0.00000  Uiso   1.00
C553   C     0.12739   0.85474   0.40069   0.00000  Uiso   1.00
C554   C     0.19782   0.80311   0.10016   0.00000  Uiso   1.00
C555   C     0.06887   0.85938   0.46272   0.00000  Uiso   1.00
C556   C     0.03569   0.84093   0.04908   0.00000  Uiso   1.00
C557   C     0.15142   0.83921   0.42076   0.00000  Uiso   1.00
C558   C     0.28466   0.76121   0.01540   0.00000  Uiso   1.00
C559   C     0.02296   0.86999   0.21074   0.00000  Uiso   1.00
C560   C     0.31435   0.79628   0.29149   0.00000  Uiso   1.00
C561   C     0.22528   0.67482   0.21741   0.00000  Uiso   1.00
C562   C     0.23738   0.66741   0.17567   0.00000  Uiso   1.00
C563   C     0.27851   0.68234   0.15362   0.00000  Uiso   1.00
C564   C     0.30770   0.70498   0.17303   0.00000  Uiso   1.00
C565   C     0.29588   0.71248   0.21455   0.00000  Uiso   1.00
C566   C     0.25487   0.69732   0.23677   0.00000  Uiso   1.00
C567   C     0.10706   0.99541   0.28004   0.00000  Uiso   1.00
C568   C     0.13390   0.82872   0.45991   0.00000  Uiso   1.00
C569   C     0.14757   0.85099   0.10080   0.00000  Uiso   1.00
C570   C     0.26243   0.77266   0.09917   0.00000  Uiso   1.00
C571   C     0.24722   0.74039   0.45251   0.00000  Uiso   1.00
C572   C     0.02676   0.87255   0.48312   0.00000  Uiso   1.00
C573   C     0.05949   0.88341   0.40225   0.00000  Uiso   1.00
C574   C     0.06543   0.92625   0.39907   0.00000  Uiso   1.00
C575   C     0.03938   0.94338   0.38201   0.00000  Uiso   1.00
C576   C     0.00727   0.91790   0.36819   0.00000  Uiso   1.00
C577   C     0.00103   0.87527   0.37157   0.00000  Uiso   1.00
C578   C     0.02707   0.85796   0.38850   0.00000  Uiso   1.00
C579   C     0.09270   0.84070   0.48226   0.00000  Uiso   1.00
C580   C     0.19186   0.76468   0.41582   0.00000  Uiso   1.00
C581   C     0.15807   0.80859   0.47794   0.00000  Uiso   1.00
C582   C     0.14682   0.81122   0.01974   0.00000  Uiso   1.00
C583   C     0.10459   0.81877   0.04080   0.00000  Uiso   1.00
C584   C     0.07760   0.83312   0.02303   0.00000  Uiso   1.00
H585   H     0.18466   0.83562   0.40519   0.00000  Uiso   1.00
H586   H     0.32041   0.93123   0.35506   0.00000  Uiso   1.00
H587   H     0.30914   0.85572   0.36131   0.00000  Uiso   1.00
H588   H     0.02182   0.82494   0.39123   0.00000  Uiso   1.00
H589   H     0.09154   0.81208   0.07145   0.00000  Uiso   1.00
H590   H     0.21513   0.98298   0.16032   0.00000  Uiso   1.00
H591   H     0.28778   0.67632   0.12146   0.00000  Uiso   1.00
H592   H     0.00619   0.71657   0.15590   0.00000  Uiso   1.00
H593   H     0.31876   0.72955   0.22947   0.00000  Uiso   1.00
H594   H     0.24641   0.70252   0.26897   0.00000  Uiso   1.00
H595   H     0.09001   0.94627   0.40996   0.00000  Uiso   1.00
H596   H     0.04395   0.97644   0.37972   0.00000  Uiso   1.00
N597   N     0.00235   0.84723   0.07039   0.00000  Uiso   1.00
N598   N     0.19286   0.74981   0.38379   0.00000  Uiso   1.00
N599   N     0.31818   0.75083   0.49876   0.00000  Uiso   1.00
N600   N     0.04645   0.89112   0.18833   0.00000  Uiso   1.00
N601   N     0.29322   0.77465   0.31468   0.00000  Uiso   1.00
N602   N     0.07214   0.98188   0.29490   0.00000  Uiso   1.00
N603   N     0.12809   0.87819   0.11720   0.00000  Uiso   1.00
N604   N     0.28555   0.76494   0.11565   0.00000  Uiso   1.00
N605   N     0.27064   0.71701   0.43389   0.00000  Uiso   1.00
N606   N     0.32649   0.88321   0.49881   0.00000  Uiso   1.00
O607   O     0.16667   0.83333   0.25000   0.00000  Uiso   1.00
O608   O     0.15693   0.79060   0.16625   0.00000  Uiso   1.00
O609   O     0.12687   0.87313   0.33749   0.00000  Uiso   1.00
O610   O     0.21088   0.84159   0.15877   0.00000  Uiso   1.00
O611   O     0.17198   0.82802   0.33749   0.00000  Uiso   1.00
O612   O     0.17849   0.74768   0.27820   0.00000  Uiso   1.00
O613   O     0.14581   0.92803   0.26767   0.00000  Uiso   1.00
O614   O     0.07452   0.79917   0.23607   0.00000  Uiso   1.00
O615   O     0.26785   0.85845   0.21805   0.00000  Uiso   1.00
O616   O     0.06990   0.85627   0.27820   0.00000  Uiso   1.00
O617   O     0.25440   0.81944   0.26767   0.00000  Uiso   1.00
O618   O     0.13800   0.73570   0.23607   0.00000  Uiso   1.00
O619   O     0.20437   0.92193   0.21805   0.00000  Uiso   1.00
Zn620  Zn    0.19244   0.80756   0.28277   0.00000  Uiso   1.00
Zn621  Zn    0.13459   0.79044   0.22257   0.00000  Uiso   1.00
Zn622  Zn    0.21166   0.86331   0.21188   0.00000  Uiso   1.00
Zn623  Zn    0.12798   0.87202   0.28277   0.00000  Uiso   1.00
C624   C     0.38612   0.82650   0.25873   0.00000  Uiso   1.00
C625   C     0.52396   0.78320   0.45616   0.00000  Uiso   1.00
C626   C     0.55080   0.76962   0.47546   0.00000  Uiso   1.00
C627   C     0.61433   0.84028   0.24141   0.00000  Uiso   1.00
C628   C     0.54635   0.78231   0.01677   0.00000  Uiso   1.00
C629   C     0.51002   0.80316   0.03926   0.00000  Uiso   1.00
C630   C     0.57620   0.77456   0.03675   0.00000  Uiso   1.00
C631   C     0.56695   0.78281   0.07849   0.00000  Uiso   1.00
C632   C     0.50571   0.81706   0.08023   0.00000  Uiso   1.00
C633   C     0.66004   0.84361   0.23896   0.00000  Uiso   1.00
C634   C     0.34108   0.82334   0.26250   0.00000  Uiso   1.00
C635   C     0.41922   0.86557   0.42198   0.00000  Uiso   1.00
C636   C     0.51610   0.98933   0.24081   0.00000  Uiso   1.00
C637   C     0.48405   0.67922   0.26120   0.00000  Uiso   1.00
C638   C     0.48946   0.72297   0.25852   0.00000  Uiso   1.00
C639   C     0.51024   0.94433   0.24153   0.00000  Uiso   1.00
C640   C     0.52152   0.81208   0.14376   0.00000  Uiso   1.00
C641   C     0.47764   0.85358   0.35660   0.00000  Uiso   1.00
C642   C     0.46073   0.85474   0.40069   0.00000  Uiso   1.00
C643   C     0.53115   0.80311   0.10016   0.00000  Uiso   1.00
C644   C     0.40220   0.85938   0.46272   0.00000  Uiso   1.00
C645   C     0.36902   0.84093   0.04908   0.00000  Uiso   1.00
C646   C     0.48476   0.83921   0.42076   0.00000  Uiso   1.00
C647   C     0.61799   0.76121   0.01540   0.00000  Uiso   1.00
C648   C     0.35629   0.86999   0.21074   0.00000  Uiso   1.00
C649   C     0.64769   0.79628   0.29149   0.00000  Uiso   1.00
C650   C     0.55862   0.67482   0.21741   0.00000  Uiso   1.00
C651   C     0.57071   0.66741   0.17567   0.00000  Uiso   1.00
C652   C     0.61184   0.68234   0.15362   0.00000  Uiso   1.00
C653   C     0.64103   0.70498   0.17303   0.00000  Uiso   1.00
C654   C     0.62922   0.71248   0.21455   0.00000  Uiso   1.00
C655   C     0.58821   0.69732   0.23677   0.00000  Uiso   1.00
C656   C     0.44040   0.99541   0.28004   0.00000  Uiso   1.00
C657   C     0.46723   0.82872   0.45991   0.00000  Uiso   1.00
C658   C     0.48090   0.85099   0.10080   0.00000  Uiso   1.00
C659   C     0.59576   0.77266   0.09917   0.00000  Uiso   1.00
C660   C     0.58055   0.74039   0.45251   0.00000  Uiso   1.00
C661   C     0.36010   0.87255   0.48312   0.00000  Uiso   1.00
C662   C     0.39283   0.88341   0.40225   0.00000  Uiso   1.00
C663   C     0.39876   0.92625   0.39907   0.00000  Uiso   1.00
C664   C     0.37272   0.94338   0.38201   0.00000  Uiso   1.00
C665   C     0.34060   0.91790   0.36819   0.00000  Uiso   1.00
C666   C     0.33436   0.87527   0.37157   0.00000  Uiso   1.00
C667   C     0.36041   0.85796   0.38850   0.00000  Uiso   1.00
C668   C     0.42604   0.84070   0.48226   0.00000  Uiso   1.00
C669   C     0.52519   0.76468   0.41582   0.00000  Uiso   1.00
C670   C     0.49141   0.80859   0.47794   0.00000  Uiso   1.00
C671   C     0.48015   0.81122   0.01974   0.00000  Uiso   1.00
C672   C     0.43792   0.81877   0.04080   0.00000  Uiso   1.00
C673   C     0.41094   0.83312   0.02303   0.00000  Uiso   1.00
H674   H     0.51800   0.83562   0.40519   0.00000  Uiso   1.00
H675   H     0.65374   0.93123   0.35506   0.00000  Uiso   1.00
H676   H     0.64247   0.85572   0.36131   0.00000  Uiso   1.00
H677   H     0.35516   0.82494   0.39123   0.00000  Uiso   1.00
H678   H     0.42487   0.81208   0.07145   0.00000  Uiso   1.00
H679   H     0.54847   0.98298   0.16032   0.00000  Uiso   1.00
H680   H     0.62111   0.67632   0.12146   0.00000  Uiso   1.00
H681   H     0.33953   0.71657   0.15590   0.00000  Uiso   1.00
H682   H     0.65209   0.72955   0.22947   0.00000  Uiso   1.00
H683   H     0.57975   0.70252   0.26897   0.00000  Uiso   1.00
H684   H     0.42334   0.94627   0.40996   0.00000  Uiso   1.00
H685   H     0.37728   0.97644   0.37972   0.00000  Uiso   1.00
N686   N     0.33569   0.84723   0.07039   0.00000  Uiso   1.00
N687   N     0.52619   0.74981   0.38379   0.00000  Uiso   1.00
N688   N     0.65151   0.75083   0.49876   0.00000  Uiso   1.00
N689   N     0.37979   0.89112   0.18833   0.00000  Uiso   1.00
N690   N     0.62655   0.77465   0.31468   0.00000  Uiso   1.00
N691   N     0.40548   0.98188   0.29490   0.00000  Uiso   1.00
N692   N     0.46142   0.87819   0.11720   0.00000  Uiso   1.00
N693   N     0.61889   0.76494   0.11565   0.00000  Uiso   1.00
N694   N     0.60397   0.71701   0.43389   0.00000  Uiso   1.00
N695   N     0.65983   0.88321   0.49881   0.00000  Uiso   1.00
O696   O     0.50000   0.83333   0.25000   0.00000  Uiso   1.00
O697   O     0.49027   0.79060   0.16625   0.00000  Uiso   1.00
O698   O     0.46020   0.87313   0.33749   0.00000  Uiso   1.00
O699   O     0.54421   0.84159   0.15877   0.00000  Uiso   1.00
O700   O     0.50532   0.82802   0.33749   0.00000  Uiso   1.00
O701   O     0.51182   0.74768   0.27820   0.00000  Uiso   1.00
O702   O     0.47914   0.92803   0.26767   0.00000  Uiso   1.00
O703   O     0.40785   0.79917   0.23607   0.00000  Uiso   1.00
O704   O     0.60119   0.85845   0.21805   0.00000  Uiso   1.00
O705   O     0.40323   0.85627   0.27820   0.00000  Uiso   1.00
O706   O     0.58773   0.81944   0.26767   0.00000  Uiso   1.00
O707   O     0.47133   0.73570   0.23607   0.00000  Uiso   1.00
O708   O     0.53771   0.92193   0.21805   0.00000  Uiso   1.00
Zn709  Zn    0.52577   0.80756   0.28277   0.00000  Uiso   1.00
Zn710  Zn    0.46792   0.79044   0.22257   0.00000  Uiso   1.00
Zn711  Zn    0.54500   0.86331   0.21188   0.00000  Uiso   1.00
Zn712  Zn    0.46131   0.87202   0.28277   0.00000  Uiso   1.00
C713   C     0.71946   0.82650   0.25873   0.00000  Uiso   1.00
C714   C     0.85729   0.78320   0.45616   0.00000  Uiso   1.00
C715   C     0.88413   0.76962   0.47546   0.00000  Uiso   1.00
C716   C     0.94766   0.84028   0.24141   0.00000  Uiso   1.00
C717   C     0.87968   0.78231   0.01677   0.00000  Uiso   1.00
C718   C     0.84336   0.80316   0.03926   0.00000  Uiso   1.00
C719   C     0.90953   0.77456   0.03675   0.00000  Uiso   1.00
C720   C     0.90028   0.78281   0.07849   0.00000  Uiso   1.00
C721   C     0.83905   0.81706   0.08023   0.00000  Uiso   1.00
C722   C     0.99337   0.84361   0.23896   0.00000  Uiso   1.00
C723   C     0.67441   0.82334   0.26250   0.00000  Uiso   1.00
C724   C     0.75255   0.86557   0.42198   0.00000  Uiso   1.00
C725   C     0.84943   0.98933   0.24081   0.00000  Uiso   1.00
C726   C     0.81738   0.67922   0.26120   0.00000  Uiso   1.00
C727   C     0.82280   0.72297   0.25852   0.00000  Uiso   1.00
C728   C     0.84357   0.94433   0.24153   0.00000  Uiso   1.00
C729   C     0.85486   0.81208   0.14376   0.00000  Uiso   1.00
C730   C     0.81097   0.85358   0.35660   0.00000  Uiso   1.00
C731   C     0.79406   0.85474   0.40069   0.00000  Uiso   1.00
C732   C     0.86448   0.80311   0.10016   0.00000  Uiso   1.00
C733   C     0.73554   0.85938   0.46272   0.00000  Uiso   1.00
C734   C     0.70235   0.84093   0.04908   0.00000  Uiso   1.00
C735   C     0.81809   0.83921   0.42076   0.00000  Uiso   1.00
C736   C     0.95132   0.76121   0.01540   0.00000  Uiso   1.00
C737   C     0.68963   0.86999   0.21074   0.00000  Uiso   1.00
C738   C     0.98102   0.79628   0.29149   0.00000  Uiso   1.00
C739   C     0.89195   0.67482   0.21741   0.00000  Uiso   1.00
C740   C     0.90405   0.66741   0.17567   0.00000  Uiso   1.00
C741   C     0.94518   0.68234   0.15362   0.00000  Uiso   1.00
C742   C     0.97437   0.70498   0.17303   0.00000  Uiso   1.00
C743   C     0.96255   0.71248   0.21455   0.00000  Uiso   1.00
C744   C     0.92154   0.69732   0.23677   0.00000  Uiso   1.00
C745   C     0.77373   0.99541   0.28004   0.00000  Uiso   1.00
C746   C     0.80057   0.82872   0.45991   0.00000  Uiso   1.00
C747   C     0.81423   0.85099   0.10080   0.00000  Uiso   1.00
C748   C     0.92909   0.77266   0.09917   0.00000  Uiso   1.00
C749   C     0.91389   0.74039   0.45251   0.00000  Uiso   1.00
C750   C     0.69343   0.87255   0.48312   0.00000  Uiso   1.00
C751   C     0.72616   0.88341   0.40225   0.00000  Uiso   1.00
C752   C     0.73210   0.92625   0.39907   0.00000  Uiso   1.00
C753   C     0.70605   0.94338   0.38201   0.00000  Uiso   1.00
C754   C     0.67394   0.91790   0.36819   0.00000  Uiso   1.00
C755   C     0.66769   0.87527   0.37157   0.00000  Uiso   1.00
C756   C     0.69374   0.85796   0.38850   0.00000  Uiso   1.00
C757   C     0.75937   0.84070   0.48226   0.00000  Uiso   1.00
C758   C     0.85853   0.76468   0.41582   0.00000  Uiso   1.00
C759   C     0.82474   0.80859   0.47794   0.00000  Uiso   1.00
C760   C     0.81348   0.81122   0.01974   0.00000  Uiso   1.00
C761   C     0.77125   0.81877   0.04080   0.00000  Uiso   1.00
C762   C     0.74427   0.83312   0.02303   0.00000  Uiso   1.00
H763   H     0.85133   0.83562   0.40519   0.00000  Uiso   1.00
H764   H     0.98708   0.93123   0.35506   0.00000  Uiso   1.00
H765   H     0.97580   0.85572   0.36131   0.00000  Uiso   1.00
H766   H     0.68849   0.82494   0.39123   0.00000  Uiso   1.00
H767   H     0.75821   0.81208   0.07145   0.00000  Uiso   1.00
H768   H     0.88180   0.98298   0.16032   0.00000  Uiso   1.00
H769   H     0.95444   0.67632   0.12146   0.00000  Uiso   1.00
H770   H     0.67286   0.71657   0.15590   0.00000  Uiso   1.00
H771   H     0.98542   0.72955   0.22947   0.00000  Uiso   1.00
H772   H     0.91308   0.70252   0.26897   0.00000  Uiso   1.00
H773   H     0.75668   0.94627   0.40996   0.00000  Uiso   1.00
H774   H     0.71061   0.97644   0.37972   0.00000  Uiso   1.00
N775   N     0.66902   0.84723   0.07039   0.00000  Uiso   1.00
N776   N     0.85952   0.74981   0.38379   0.00000  Uiso   1.00
N777   N     0.98485   0.75083   0.49876   0.00000  Uiso   1.00
N778   N     0.71312   0.89112   0.18833   0.00000  Uiso   1.00
N779   N     0.95988   0.77465   0.31468   0.00000  Uiso   1.00
N780   N     0.73881   0.98188   0.29490   0.00000  Uiso   1.00
N781   N     0.79476   0.87819   0.11720   0.00000  Uiso   1.00
N782   N     0.95222   0.76494   0.11565   0.00000  Uiso   1.00
N783   N     0.93730   0.71701   0.43389   0.00000  Uiso   1.00
N784   N     0.99316   0.88321   0.49881   0.00000  Uiso   1.00
O785   O     0.83333   0.83333   0.25000   0.00000  Uiso   1.00
O786   O     0.82360   0.79060   0.16625   0.00000  Uiso   1.00
O787   O     0.79354   0.87313   0.33749   0.00000  Uiso   1.00
O788   O     0.87755   0.84159   0.15877   0.00000  Uiso   1.00
O789   O     0.83865   0.82802   0.33749   0.00000  Uiso   1.00
O790   O     0.84515   0.74768   0.27820   0.00000  Uiso   1.00
O791   O     0.81247   0.92803   0.26767   0.00000  Uiso   1.00
O792   O     0.74119   0.79917   0.23607   0.00000  Uiso   1.00
O793   O     0.93452   0.85845   0.21805   0.00000  Uiso   1.00
O794   O     0.73656   0.85627   0.27820   0.00000  Uiso   1.00
O795   O     0.92106   0.81944   0.26767   0.00000  Uiso   1.00
O796   O     0.80467   0.73570   0.23607   0.00000  Uiso   1.00
O797   O     0.87104   0.92193   0.21805   0.00000  Uiso   1.00
Zn798  Zn    0.85910   0.80756   0.28277   0.00000  Uiso   1.00
Zn799  Zn    0.80125   0.79044   0.22257   0.00000  Uiso   1.00
Zn800  Zn    0.87833   0.86331   0.21188   0.00000  Uiso   1.00
Zn801  Zn    0.79465   0.87202   0.28277   0.00000  Uiso   1.00
C802   C     0.05279   0.15983   0.75873   0.00000  Uiso   1.00
C803   C     0.19063   0.11654   0.95616   0.00000  Uiso   1.00
C804   C     0.21746   0.10295   0.97546   0.00000  Uiso   1.00
C805   C     0.28100   0.17361   0.74141   0.00000  Uiso   1.00
C806   C     0.21301   0.11564   0.51677   0.00000  Uiso   1.00
C807   C     0.17669   0.13649   0.53926   0.00000  Uiso   1.00
C808   C     0.24287   0.10789   0.53675   0.00000  Uiso   1.00
C809   C     0.23362   0.11614   0.57849   0.00000  Uiso   1.00
C810   C     0.17238   0.15039   0.58023   0.00000  Uiso   1.00
C811   C     0.32671   0.17695   0.73896   0.00000  Uiso   1.00
C812   C     0.00775   0.15667   0.76250   0.00000  Uiso   1.00
C813   C     0.08589   0.19890   0.92198   0.00000  Uiso   1.00
C814   C     0.18277   0.32266   0.74081   0.00000  Uiso   1.00
C815   C     0.15071   0.01255   0.76120   0.00000  Uiso   1.00
C816   C     0.15613   0.05630   0.75852   0.00000  Uiso   1.00
C817   C     0.17691   0.27767   0.74153   0.00000  Uiso   1.00
C818   C     0.18819   0.14541   0.64376   0.00000  Uiso   1.00
C819   C     0.14431   0.18691   0.85660   0.00000  Uiso   1.00
C820   C     0.12739   0.18808   0.90069   0.00000  Uiso   1.00
C821   C     0.19782   0.13645   0.60016   0.00000  Uiso   1.00
C822   C     0.06887   0.19272   0.96272   0.00000  Uiso   1.00
C823   C     0.03569   0.17426   0.54908   0.00000  Uiso   1.00
C824   C     0.15142   0.17254   0.92076   0.00000  Uiso   1.00
C825   C     0.28466   0.09454   0.51540   0.00000  Uiso   1.00
C826   C     0.02296   0.20332   0.71074   0.00000  Uiso   1.00
C827   C     0.31435   0.12961   0.79149   0.00000  Uiso   1.00
C828   C     0.22528   0.00816   0.71741   0.00000  Uiso   1.00
C829   C     0.23738   0.00074   0.67567   0.00000  Uiso   1.00
C830   C     0.27851   0.01567   0.65362   0.00000  Uiso   1.00
C831   C     0.30770   0.03832   0.67303   0.00000  Uiso   1.00
C832   C     0.29588   0.04581   0.71455   0.00000  Uiso   1.00
C833   C     0.25487   0.03065   0.73677   0.00000  Uiso   1.00
C834   C     0.10706   0.32874   0.78004   0.00000  Uiso   1.00
C835   C     0.13390   0.16206   0.95991   0.00000  Uiso   1.00
C836   C     0.14757   0.18433   0.60080   0.00000  Uiso   1.00
C837   C     0.26243   0.10599   0.59917   0.00000  Uiso   1.00
C838   C     0.24722   0.07372   0.95251   0.00000  Uiso   1.00
C839   C     0.02676   0.20588   0.98312   0.00000  Uiso   1.00
C840   C     0.05949   0.21674   0.90225   0.00000  Uiso   1.00
C841   C     0.06543   0.25958   0.89907   0.00000  Uiso   1.00
C842   C     0.03938   0.27671   0.88201   0.00000  Uiso   1.00
C843   C     0.00727   0.25123   0.86819   0.00000  Uiso   1.00
C844   C     0.00103   0.20860   0.87157   0.00000  Uiso   1.00
C845   C     0.02707   0.19130   0.88850   0.00000  Uiso   1.00
C846   C     0.09270   0.17404   0.98226   0.00000  Uiso   1.00
C847   C     0.19186   0.09802   0.91582   0.00000  Uiso   1.00
C848   C     0.15807   0.14193   0.97794   0.00000  Uiso   1.00
C849   C     0.14682   0.14455   0.51974   0.00000  Uiso   1.00
C850   C     0.10459   0.15210   0.54080   0.00000  Uiso   1.00
C851   C     0.07760   0.16645   0.52303   0.00000  Uiso   1.00
H852   H     0.18466   0.16895   0.90519   0.00000  Uiso   1.00
H853   H     0.32041   0.26456   0.85506   0.00000  Uiso   1.00
H854   H     0.30914   0.18906   0.86131   0.00000  Uiso   1.00
H855   H     0.02182   0.15827   0.89123   0.00000  Uiso   1.00
H856   H     0.09154   0.14541   0.57145   0.00000  Uiso   1.00
H857   H     0.21513   0.31632   0.66032   0.00000  Uiso   1.00
H858   H     0.28778   0.00965   0.62146   0.00000  Uiso   1.00
H859   H     0.00619   0.04990   0.65590   0.00000  Uiso   1.00
H860   H     0.31876   0.06288   0.72947   0.00000  Uiso   1.00
H861   H     0.24641   0.03585   0.76897   0.00000  Uiso   1.00
H862   H     0.09001   0.27960   0.90996   0.00000  Uiso   1.00
H863   H     0.04395   0.30978   0.87972   0.00000  Uiso   1.00
N864   N     0.00235   0.18057   0.57039   0.00000  Uiso   1.00
N865   N     0.19286   0.08314   0.88379   0.00000  Uiso   1.00
N866   N     0.31818   0.08417   0.99876   0.00000  Uiso   1.00
N867   N     0.04645   0.22446   0.68833   0.00000  Uiso   1.00
N868   N     0.29322   0.10798   0.81468   0.00000  Uiso   1.00
N869   N     0.07214   0.31521   0.79490   0.00000  Uiso   1.00
N870   N     0.12809   0.21152   0.61720   0.00000  Uiso   1.00
N871   N     0.28555   0.09827   0.61565   0.00000  Uiso   1.00
N872   N     0.27064   0.05034   0.93389   0.00000  Uiso   1.00
N873   N     0.32649   0.21654   0.99881   0.00000  Uiso   1.00
O874   O     0.16667   0.16667   0.75000   0.00000  Uiso   1.00
O875   O     0.15693   0.12393   0.66625   0.00000  Uiso   1.00
O876   O     0.12687   0.20646   0.83749   0.00000  Uiso   1.00
O877   O     0.21088   0.17493   0.65877   0.00000  Uiso   1.00
O878   O     0.17198   0.16135   0.83749   0.00000  Uiso   1.00
O879   O     0.17849   0.08101   0.77820   0.00000  Uiso   1.00
O880   O     0.14581   0.26136   0.76767   0.00000  Uiso   1.00
O881   O     0.07452   0.13251   0.73607   0.00000  Uiso   1.00
O882   O     0.26785   0.19179   0.71805   0.00000  Uiso   1.00
O883   O     0.06990   0.18960   0.77820   0.00000  Uiso   1.00
O884   O     0.25440   0.15277   0.76767   0.00000  Uiso   1.00
O885   O     0.13800   0.06903   0.73607   0.00000  Uiso   1.00
O886   O     0.20437   0.25527   0.71805   0.00000  Uiso   1.00
Zn887  Zn    0.19244   0.14090   0.78277   0.00000  Uiso   1.00
Zn888  Zn    0.13459   0.12378   0.72257   0.00000  Uiso   1.00
Zn889  Zn    0.21166   0.19664   0.71188   0.00000  Uiso   1.00
Zn890  Zn    0.12798   0.20535   0.78277   0.00000  Uiso   1.00
C891   C     0.38612   0.15983   0.75873   0.00000  Uiso   1.00
C892   C     0.52396   0.11654   0.95616   0.00000  Uiso   1.00
C893   C     0.55080   0.10295   0.97546   0.00000  Uiso   1.00
C894   C     0.61433   0.17361   0.74141   0.00000  Uiso   1.00
C895   C     0.54635   0.11564   0.51677   0.00000  Uiso   1.00
C896   C     0.51002   0.13649   0.53926   0.00000  Uiso   1.00
C897   C     0.57620   0.10789   0.53675   0.00000  Uiso   1.00
C898   C     0.56695   0.11614   0.57849   0.00000  Uiso   1.00
C899   C     0.50571   0.15039   0.58023   0.00000  Uiso   1.00
C900   C     0.66004   0.17695   0.73896   0.00000  Uiso   1.00
C901   C     0.34108   0.15667   0.76250   0.00000  Uiso   1.00
C902   C     0.41922   0.19890   0.92198   0.00000  Uiso   1.00
C903   C     0.51610   0.32266   0.74081   0.00000  Uiso   1.00
C904   C     0.48405   0.01255   0.76120   0.00000  Uiso   1.00
C905   C     0.48946   0.05630   0.75852   0.00000  Uiso   1.00
C906   C     0.51024   0.27767   0.74153   0.00000  Uiso   1.00
C907   C     0.52152   0.14541   0.64376   0.00000  Uiso   1.00
C908   C     0.47764   0.18691   0.85660   0.00000  Uiso   1.00
C909   C     0.46073   0.18808   0.90069   0.00000  Uiso   1.00
C910   C     0.53115   0.13645   0.60016   0.00000  Uiso   1.00
C911   C     0.40220   0.19272   0.96272   0.00000  Uiso   1.00
C912   C     0.36902   0.17426   0.54908   0.00000  Uiso   1.00
C913   C     0.48476   0.17254   0.92076   0.00000  Uiso   1.00
C914   C     0.61799   0.09454   0.51540   0.00000  Uiso   1.00
C915   C     0.35629   0.20332   0.71074   0.00000  Uiso   1.00
C916   C     0.64769   0.12961   0.79149   0.00000  Uiso   1.00
C917   C     0.55862   0.00816   0.71741   0.00000  Uiso   1.00
C918   C     0.57071   0.00074   0.67567   0.00000  Uiso   1.00
C919   C     0.61184   0.01567   0.65362   0.00000  Uiso   1.00
C920   C     0.64103   0.03832   0.67303   0.00000  Uiso   1.00
C921   C     0.62922   0.04581   0.71455   0.00000  Uiso   1.00
C922   C     0.58821   0.03065   0.73677   0.00000  Uiso   1.00
C923   C     0.44040   0.32874   0.78004   0.00000  Uiso   1.00
C924   C     0.46723   0.16206   0.95991   0.00000  Uiso   1.00
C925   C     0.48090   0.18433   0.60080   0.00000  Uiso   1.00
C926   C     0.59576   0.10599   0.59917   0.00000  Uiso   1.00
C927   C     0.58055   0.07372   0.95251   0.00000  Uiso   1.00
C928   C     0.36010   0.20588   0.98312   0.00000  Uiso   1.00
C929   C     0.39283   0.21674   0.90225   0.00000  Uiso   1.00
C930   C     0.39876   0.25958   0.89907   0.00000  Uiso   1.00
C931   C     0.37272   0.27671   0.88201   0.00000  Uiso   1.00
C932   C     0.34060   0.25123   0.86819   0.00000  Uiso   1.00
C933   C     0.33436   0.20860   0.87157   0.00000  Uiso   1.00
C934   C     0.36041   0.19130   0.88850   0.00000  Uiso   1.00
C935   C     0.42604   0.17404   0.98226   0.00000  Uiso   1.00
C936   C     0.52519   0.09802   0.91582   0.00000  Uiso   1.00
C937   C     0.49141   0.14193   0.97794   0.00000  Uiso   1.00
C938   C     0.48015   0.14455   0.51974   0.00000  Uiso   1.00
C939   C     0.43792   0.15210   0.54080   0.00000  Uiso   1.00
C940   C     0.41094   0.16645   0.52303   0.00000  Uiso   1.00
H941   H     0.51800   0.16895   0.90519   0.00000  Uiso   1.00
H942   H     0.65374   0.26456   0.85506   0.00000  Uiso   1.00
H943   H     0.64247   0.18906   0.86131   0.00000  Uiso   1.00
H944   H     0.35516   0.15827   0.89123   0.00000  Uiso   1.00
H945   H     0.42487   0.14541   0.57145   0.00000  Uiso   1.00
H946   H     0.54847   0.31632   0.66032   0.00000  Uiso   1.00
H947   H     0.62111   0.00965   0.62146   0.00000  Uiso   1.00
H948   H     0.33953   0.04990   0.65590   0.00000  Uiso   1.00
H949   H     0.65209   0.06288   0.72947   0.00000  Uiso   1.00
H950   H     0.57975   0.03585   0.76897   0.00000  Uiso   1.00
H951   H     0.42334   0.27960   0.90996   0.00000  Uiso   1.00
H952   H     0.37728   0.30978   0.87972   0.00000  Uiso   1.00
N953   N     0.33569   0.18057   0.57039   0.00000  Uiso   1.00
N954   N     0.52619   0.08314   0.88379   0.00000  Uiso   1.00
N955   N     0.65151   0.08417   0.99876   0.00000  Uiso   1.00
N956   N     0.37979   0.22446   0.68833   0.00000  Uiso   1.00
N957   N     0.62655   0.10798   0.81468   0.00000  Uiso   1.00
N958   N     0.40548   0.31521   0.79490   0.00000  Uiso   1.00
N959   N     0.46142   0.21152   0.61720   0.00000  Uiso   1.00
N960   N     0.61889   0.09827   0.61565   0.00000  Uiso   1.00
N961   N     0.60397   0.05034   0.93389   0.00000  Uiso   1.00
N962   N     0.65983   0.21654   0.99881   0.00000  Uiso   1.00
O963   O     0.50000   0.16667   0.75000   0.00000  Uiso   1.00
O964   O     0.49027   0.12393   0.66625   0.00000  Uiso   1.00
O965   O     0.46020   0.20646   0.83749   0.00000  Uiso   1.00
O966   O     0.54421   0.17493   0.65877   0.00000  Uiso   1.00
O967   O     0.50532   0.16135   0.83749   0.00000  Uiso   1.00
O968   O     0.51182   0.08101   0.77820   0.00000  Uiso   1.00
O969   O     0.47914   0.26136   0.76767   0.00000  Uiso   1.00
O970   O     0.40785   0.13251   0.73607   0.00000  Uiso   1.00
O971   O     0.60119   0.19179   0.71805   0.00000  Uiso   1.00
O972   O     0.40323   0.18960   0.77820   0.00000  Uiso   1.00
O973   O     0.58773   0.15277   0.76767   0.00000  Uiso   1.00
O974   O     0.47133   0.06903   0.73607   0.00000  Uiso   1.00
O975   O     0.53771   0.25527   0.71805   0.00000  Uiso   1.00
Zn976  Zn    0.52577   0.14090   0.78277   0.00000  Uiso   1.00
Zn977  Zn    0.46792   0.12378   0.72257   0.00000  Uiso   1.00
Zn978  Zn    0.54500   0.19664   0.71188   0.00000  Uiso   1.00
Zn979  Zn    0.46131   0.20535   0.78277   0.00000  Uiso   1.00
C980   C     0.71946   0.15983   0.75873   0.00000  Uiso   1.00
C981   C     0.85729   0.11654   0.95616   0.00000  Uiso   1.00
C982   C     0.88413   0.10295   0.97546   0.00000  Uiso   1.00
C983   C     0.94766   0.17361   0.74141   0.00000  Uiso   1.00
C984   C     0.87968   0.11564   0.51677   0.00000  Uiso   1.00
C985   C     0.84336   0.13649   0.53926   0.00000  Uiso   1.00
C986   C     0.90953   0.10789   0.53675   0.00000  Uiso   1.00
C987   C     0.90028   0.11614   0.57849   0.00000  Uiso   1.00
C988   C     0.83905   0.15039   0.58023   0.00000  Uiso   1.00
C989   C     0.99337   0.17695   0.73896   0.00000  Uiso   1.00
C990   C     0.67441   0.15667   0.76250   0.00000  Uiso   1.00
C991   C     0.75255   0.19890   0.92198   0.00000  Uiso   1.00
C992   C     0.84943   0.32266   0.74081   0.00000  Uiso   1.00
C993   C     0.81738   0.01255   0.76120   0.00000  Uiso   1.00
C994   C     0.82280   0.05630   0.75852   0.00000  Uiso   1.00
C995   C     0.84357   0.27767   0.74153   0.00000  Uiso   1.00
C996   C     0.85486   0.14541   0.64376   0.00000  Uiso   1.00
C997   C     0.81097   0.18691   0.85660   0.00000  Uiso   1.00
C998   C     0.79406   0.18808   0.90069   0.00000  Uiso   1.00
C999   C     0.86448   0.13645   0.60016   0.00000  Uiso   1.00
C1000  C     0.73554   0.19272   0.96272   0.00000  Uiso   1.00
C1001  C     0.70235   0.17426   0.54908   0.00000  Uiso   1.00
C1002  C     0.81809   0.17254   0.92076   0.00000  Uiso   1.00
C1003  C     0.95132   0.09454   0.51540   0.00000  Uiso   1.00
C1004  C     0.68963   0.20332   0.71074   0.00000  Uiso   1.00
C1005  C     0.98102   0.12961   0.79149   0.00000  Uiso   1.00
C1006  C     0.89195   0.00816   0.71741   0.00000  Uiso   1.00
C1007  C     0.90405   0.00074   0.67567   0.00000  Uiso   1.00
C1008  C     0.94518   0.01567   0.65362   0.00000  Uiso   1.00
C1009  C     0.97437   0.03832   0.67303   0.00000  Uiso   1.00
C1010  C     0.96255   0.04581   0.71455   0.00000  Uiso   1.00
C1011  C     0.92154   0.03065   0.73677   0.00000  Uiso   1.00
C1012  C     0.77373   0.32874   0.78004   0.00000  Uiso   1.00
C1013  C     0.80057   0.16206   0.95991   0.00000  Uiso   1.00
C1014  C     0.81423   0.18433   0.60080   0.00000  Uiso   1.00
C1015  C     0.92909   0.10599   0.59917   0.00000  Uiso   1.00
C1016  C     0.91389   0.07372   0.95251   0.00000  Uiso   1.00
C1017  C     0.69343   0.20588   0.98312   0.00000  Uiso   1.00
C1018  C     0.72616   0.21674   0.90225   0.00000  Uiso   1.00
C1019  C     0.73210   0.25958   0.89907   0.00000  Uiso   1.00
C1020  C     0.70605   0.27671   0.88201   0.00000  Uiso   1.00
C1021  C     0.67394   0.25123   0.86819   0.00000  Uiso   1.00
C1022  C     0.66769   0.20860   0.87157   0.00000  Uiso   1.00
C1023  C     0.69374   0.19130   0.88850   0.00000  Uiso   1.00
C1024  C     0.75937   0.17404   0.98226   0.00000  Uiso   1.00
C1025  C     0.85853   0.09802   0.91582   0.00000  Uiso   1.00
C1026  C     0.82474   0.14193   0.97794   0.00000  Uiso   1.00
C1027  C     0.81348   0.14455   0.51974   0.00000  Uiso   1.00
C1028  C     0.77125   0.15210   0.54080   0.00000  Uiso   1.00
C1029  C     0.74427   0.16645   0.52303   0.00000  Uiso   1.00
H1030  H     0.85133   0.16895   0.90519   0.00000  Uiso   1.00
H1031  H     0.98708   0.26456   0.85506   0.00000  Uiso   1.00
H1032  H     0.97580   0.18906   0.86131   0.00000  Uiso   1.00
H1033  H     0.68849   0.15827   0.89123   0.00000  Uiso   1.00
H1034  H     0.75821   0.14541   0.57145   0.00000  Uiso   1.00
H1035  H     0.88180   0.31632   0.66032   0.00000  Uiso   1.00
H1036  H     0.95444   0.00965   0.62146   0.00000  Uiso   1.00
H1037  H     0.67286   0.04990   0.65590   0.00000  Uiso   1.00
H1038  H     0.98542   0.06288   0.72947   0.00000  Uiso   1.00
H1039  H     0.91308   0.03585   0.76897   0.00000  Uiso   1.00
H1040  H     0.75668   0.27960   0.90996   0.00000  Uiso   1.00
H1041  H     0.71061   0.30978   0.87972   0.00000  Uiso   1.00
N1042  N     0.66902   0.18057   0.57039   0.00000  Uiso   1.00
N1043  N     0.85952   0.08314   0.88379   0.00000  Uiso   1.00
N1044  N     0.98485   0.08417   0.99876   0.00000  Uiso   1.00
N1045  N     0.71312   0.22446   0.68833   0.00000  Uiso   1.00
N1046  N     0.95988   0.10798   0.81468   0.00000  Uiso   1.00
N1047  N     0.73881   0.31521   0.79490   0.00000  Uiso   1.00
N1048  N     0.79476   0.21152   0.61720   0.00000  Uiso   1.00
N1049  N     0.95222   0.09827   0.61565   0.00000  Uiso   1.00
N1050  N     0.93730   0.05034   0.93389   0.00000  Uiso   1.00
N1051  N     0.99316   0.21654   0.99881   0.00000  Uiso   1.00
O1052  O     0.83333   0.16667   0.75000   0.00000  Uiso   1.00
O1053  O     0.82360   0.12393   0.66625   0.00000  Uiso   1.00
O1054  O     0.79354   0.20646   0.83749   0.00000  Uiso   1.00
O1055  O     0.87755   0.17493   0.65877   0.00000  Uiso   1.00
O1056  O     0.83865   0.16135   0.83749   0.00000  Uiso   1.00
O1057  O     0.84515   0.08101   0.77820   0.00000  Uiso   1.00
O1058  O     0.81247   0.26136   0.76767   0.00000  Uiso   1.00
O1059  O     0.74119   0.13251   0.73607   0.00000  Uiso   1.00
O1060  O     0.93452   0.19179   0.71805   0.00000  Uiso   1.00
O1061  O     0.73656   0.18960   0.77820   0.00000  Uiso   1.00
O1062  O     0.92106   0.15277   0.76767   0.00000  Uiso   1.00
O1063  O     0.80467   0.06903   0.73607   0.00000  Uiso   1.00
O1064  O     0.87104   0.25527   0.71805   0.00000  Uiso   1.00
Zn1065 Zn    0.85910   0.14090   0.78277   0.00000  Uiso   1.00
Zn1066 Zn    0.80125   0.12378   0.72257   0.00000  Uiso   1.00
Zn1067 Zn    0.87833   0.19664   0.71188   0.00000  Uiso   1.00
Zn1068 Zn    0.79465   0.20535   0.78277   0.00000  Uiso   1.00
C1069  C     0.05279   0.49317   0.75873   0.00000  Uiso   1.00
C1070  C     0.19063   0.44987   0.95616   0.00000  Uiso   1.00
C1071  C     0.21746   0.43629   0.97546   0.00000  Uiso   1.00
C1072  C     0.28100   0.50694   0.74141   0.00000  Uiso   1.00
C1073  C     0.21301   0.44897   0.51677   0.00000  Uiso   1.00
C1074  C     0.17669   0.46982   0.53926   0.00000  Uiso   1.00
C1075  C     0.24287   0.44122   0.53675   0.00000  Uiso   1.00
C1076  C     0.23362   0.44947   0.57849   0.00000  Uiso   1.00
C1077  C     0.17238   0.48372   0.58023   0.00000  Uiso   1.00
C1078  C     0.32671   0.51028   0.73896   0.00000  Uiso   1.00
C1079  C     0.00775   0.49001   0.76250   0.00000  Uiso   1.00
C1080  C     0.08589   0.53223   0.92198   0.00000  Uiso   1.00
C1081  C     0.18277   0.65599   0.74081   0.00000  Uiso   1.00
C1082  C     0.15071   0.34589   0.76120   0.00000  Uiso   1.00
C1083  C     0.15613   0.38963   0.75852   0.00000  Uiso   1.00
C1084  C     0.17691   0.61100   0.74153   0.00000  Uiso   1.00
C1085  C     0.18819   0.47874   0.64376   0.00000  Uiso   1.00
C1086  C     0.14431   0.52024   0.85660   0.00000  Uiso   1.00
C1087  C     0.12739   0.52141   0.90069   0.00000  Uiso   1.00
C1088  C     0.19782   0.46978   0.60016   0.00000  Uiso   1.00
C1089  C     0.06887   0.52605   0.96272   0.00000  Uiso   1.00
C1090  C     0.03569   0.50760   0.54908   0.00000  Uiso   1.00
C1091  C     0.15142   0.50588   0.92076   0.00000  Uiso   1.00
C1092  C     0.28466   0.42788   0.51540   0.00000  Uiso   1.00
C1093  C     0.02296   0.53666   0.71074   0.00000  Uiso   1.00
C1094  C     0.31435   0.46295   0.79149   0.00000  Uiso   1.00
C1095  C     0.22528   0.34149   0.71741   0.00000  Uiso   1.00
C1096  C     0.23738   0.33408   0.67567   0.00000  Uiso   1.00
C1097  C     0.27851   0.34901   0.65362   0.00000  Uiso   1.00
C1098  C     0.30770   0.37165   0.67303   0.00000  Uiso   1.00
C1099  C     0.29588   0.37915   0.71455   0.00000  Uiso   1.00
C1100  C     0.25487   0.36399   0.73677   0.00000  Uiso   1.00
C1101  C     0.10706   0.66207   0.78004   0.00000  Uiso   1.00
C1102  C     0.13390   0.49539   0.95991   0.00000  Uiso   1.00
C1103  C     0.14757   0.51766   0.60080   0.00000  Uiso   1.00
C1104  C     0.26243   0.43932   0.59917   0.00000  Uiso   1.00
C1105  C     0.24722   0.40705   0.95251   0.00000  Uiso   1.00
C1106  C     0.02676   0.53921   0.98312   0.00000  Uiso   1.00
C1107  C     0.05949   0.55008   0.90225   0.00000  Uiso   1.00
C1108  C     0.06543   0.59292   0.89907   0.00000  Uiso   1.00
C1109  C     0.03938   0.61005   0.88201   0.00000  Uiso   1.00
C1110  C     0.00727   0.58457   0.86819   0.00000  Uiso   1.00
C1111  C     0.00103   0.54193   0.87157   0.00000  Uiso   1.00
C1112  C     0.02707   0.52463   0.88850   0.00000  Uiso   1.00
C1113  C     0.09270   0.50737   0.98226   0.00000  Uiso   1.00
C1114  C     0.19186   0.43135   0.91582   0.00000  Uiso   1.00
C1115  C     0.15807   0.47526   0.97794   0.00000  Uiso   1.00
C1116  C     0.14682   0.47789   0.51974   0.00000  Uiso   1.00
C1117  C     0.10459   0.48544   0.54080   0.00000  Uiso   1.00
C1118  C     0.07760   0.49979   0.52303   0.00000  Uiso   1.00
H1119  H     0.18466   0.50228   0.90519   0.00000  Uiso   1.00
H1120  H     0.32041   0.59789   0.85506   0.00000  Uiso   1.00
H1121  H     0.30914   0.52239   0.86131   0.00000  Uiso   1.00
H1122  H     0.02182   0.49161   0.89123   0.00000  Uiso   1.00
H1123  H     0.09154   0.47874   0.57145   0.00000  Uiso   1.00
H1124  H     0.21513   0.64965   0.66032   0.00000  Uiso   1.00
H1125  H     0.28778   0.34299   0.62146   0.00000  Uiso   1.00
H1126  H     0.00619   0.38324   0.65590   0.00000  Uiso   1.00
H1127  H     0.31876   0.39621   0.72947   0.00000  Uiso   1.00
H1128  H     0.24641   0.36918   0.76897   0.00000  Uiso   1.00
H1129  H     0.09001   0.61294   0.90996   0.00000  Uiso   1.00
H1130  H     0.04395   0.64311   0.87972   0.00000  Uiso   1.00
N1131  N     0.00235   0.51390   0.57039   0.00000  Uiso   1.00
N1132  N     0.19286   0.41648   0.88379   0.00000  Uiso   1.00
N1133  N     0.31818   0.41750   0.99876   0.00000  Uiso   1.00
N1134  N     0.04645   0.55779   0.68833   0.00000  Uiso   1.00
N1135  N     0.29322   0.44131   0.81468   0.00000  Uiso   1.00
N1136  N     0.07214   0.64855   0.79490   0.00000  Uiso   1.00
N1137  N     0.12809   0.54485   0.61720   0.00000  Uiso   1.00
N1138  N     0.28555   0.43161   0.61565   0.00000  Uiso   1.00
N1139  N     0.27064   0.38368   0.93389   0.00000  Uiso   1.00
N1140  N     0.32649   0.54988   0.99881   0.00000  Uiso   1.00
O1141  O     0.16667   0.50000   0.75000   0.00000  Uiso   1.00
O1142  O     0.15693   0.45726   0.66625   0.00000  Uiso   1.00
O1143  O     0.12687   0.53979   0.83749   0.00000  Uiso   1.00
O1144  O     0.21088   0.50826   0.65877   0.00000  Uiso   1.00
O1145  O     0.17198   0.49468   0.83749   0.00000  Uiso   1.00
O1146  O     0.17849   0.41434   0.77820   0.00000  Uiso   1.00
O1147  O     0.14581   0.59469   0.76767   0.00000  Uiso   1.00
O1148  O     0.07452   0.46584   0.73607   0.00000  Uiso   1.00
O1149  O     0.26785   0.52512   0.71805   0.00000  Uiso   1.00
O1150  O     0.06990   0.52293   0.77820   0.00000  Uiso   1.00
O1151  O     0.25440   0.48610   0.76767   0.00000  Uiso   1.00
O1152  O     0.13800   0.40236   0.73607   0.00000  Uiso   1.00
O1153  O     0.20437   0.58860   0.71805   0.00000  Uiso   1.00
Zn1154 Zn    0.19244   0.47423   0.78277   0.00000  Uiso   1.00
Zn1155 Zn    0.13459   0.45711   0.72257   0.00000  Uiso   1.00
Zn1156 Zn    0.21166   0.52997   0.71188   0.00000  Uiso   1.00
Zn1157 Zn    0.12798   0.53868   0.78277   0.00000  Uiso   1.00
C1158  C     0.38612   0.49317   0.75873   0.00000  Uiso   1.00
C1159  C     0.52396   0.44987   0.95616   0.00000  Uiso   1.00
C1160  C     0.55080   0.43629   0.97546   0.00000  Uiso   1.00
C1161  C     0.61433   0.50694   0.74141   0.00000  Uiso   1.00
C1162  C     0.54635   0.44897   0.51677   0.00000  Uiso   1.00
C1163  C     0.51002   0.46982   0.53926   0.00000  Uiso   1.00
C1164  C     0.57620   0.44122   0.53675   0.00000  Uiso   1.00
C1165  C     0.56695   0.44947   0.57849   0.00000  Uiso   1.00
C1166  C     0.50571   0.48372   0.58023   0.00000  Uiso   1.00
C1167  C     0.66004   0.51028   0.73896   0.00000  Uiso   1.00
C1168  C     0.34108   0.49001   0.76250   0.00000  Uiso   1.00
C1169  C     0.41922   0.53223   0.92198   0.00000  Uiso   1.00
C1170  C     0.51610   0.65599   0.74081   0.00000  Uiso   1.00
C1171  C     0.48405   0.34589   0.76120   0.00000  Uiso   1.00
C1172  C     0.48946   0.38963   0.75852   0.00000  Uiso   1.00
C1173  C     0.51024   0.61100   0.74153   0.00000  Uiso   1.00
C1174  C     0.52152   0.47874   0.64376   0.00000  Uiso   1.00
C1175  C     0.47764   0.52024   0.85660   0.00000  Uiso   1.00
C1176  C     0.46073   0.52141   0.90069   0.00000  Uiso   1.00
C1177  C     0.53115   0.46978   0.60016   0.00000  Uiso   1.00
C1178  C     0.40220   0.52605   0.96272   0.00000  Uiso   1.00
C1179  C     0.36902   0.50760   0.54908   0.00000  Uiso   1.00
C1180  C     0.48476   0.50588   0.92076   0.00000  Uiso   1.00
C1181  C     0.61799   0.42788   0.51540   0.00000  Uiso   1.00
C1182  C     0.35629   0.53666   0.71074   0.00000  Uiso   1.00
C1183  C     0.64769   0.46295   0.79149   0.00000  Uiso   1.00
C1184  C     0.55862   0.34149   0.71741   0.00000  Uiso   1.00
C1185  C     0.57071   0.33408   0.67567   0.00000  Uiso   1.00
C1186  C     0.61184   0.34901   0.65362   0.00000  Uiso   1.00
C1187  C     0.64103   0.37165   0.67303   0.00000  Uiso   1.00
C1188  C     0.62922   0.37915   0.71455   0.00000  Uiso   1.00
C1189  C     0.58821   0.36399   0.73677   0.00000  Uiso   1.00
C1190  C     0.44040   0.66207   0.78004   0.00000  Uiso   1.00
C1191  C     0.46723   0.49539   0.95991   0.00000  Uiso   1.00
C1192  C     0.48090   0.51766   0.60080   0.00000  Uiso   1.00
C1193  C     0.59576   0.43932   0.59917   0.00000  Uiso   1.00
C1194  C     0.58055   0.40705   0.95251   0.00000  Uiso   1.00
C1195  C     0.36010   0.53921   0.98312   0.00000  Uiso   1.00
C1196  C     0.39283   0.55008   0.90225   0.00000  Uiso   1.00
C1197  C     0.39876   0.59292   0.89907   0.00000  Uiso   1.00
C1198  C     0.37272   0.61005   0.88201   0.00000  Uiso   1.00
C1199  C     0.34060   0.58457   0.86819   0.00000  Uiso   1.00
C1200  C     0.33436   0.54193   0.87157   0.00000  Uiso   1.00
C1201  C     0.36041   0.52463   0.88850   0.00000  Uiso   1.00
C1202  C     0.42604   0.50737   0.98226   0.00000  Uiso   1.00
C1203  C     0.52519   0.43135   0.91582   0.00000  Uiso   1.00
C1204  C     0.49141   0.47526   0.97794   0.00000  Uiso   1.00
C1205  C     0.48015   0.47789   0.51974   0.00000  Uiso   1.00
C1206  C     0.43792   0.48544   0.54080   0.00000  Uiso   1.00
C1207  C     0.41094   0.49979   0.52303   0.00000  Uiso   1.00
H1208  H     0.51800   0.50228   0.90519   0.00000  Uiso   1.00
H1209  H     0.65374   0.59789   0.85506   0.00000  Uiso   1.00
H1210  H     0.64247   0.52239   0.86131   0.00000  Uiso   1.00
H1211  H     0.35516   0.49161   0.89123   0.00000  Uiso   1.00
H1212  H     0.42487   0.47874   0.57145   0.00000  Uiso   1.00
H1213  H     0.54847   0.64965   0.66032   0.00000  Uiso   1.00
H1214  H     0.62111   0.34299   0.62146   0.00000  Uiso   1.00
H1215  H     0.33953   0.38324   0.65590   0.00000  Uiso   1.00
H1216  H     0.65209   0.39621   0.72947   0.00000  Uiso   1.00
H1217  H     0.57975   0.36918   0.76897   0.00000  Uiso   1.00
H1218  H     0.42334   0.61294   0.90996   0.00000  Uiso   1.00
H1219  H     0.37728   0.64311   0.87972   0.00000  Uiso   1.00
N1220  N     0.33569   0.51390   0.57039   0.00000  Uiso   1.00
N1221  N     0.52619   0.41648   0.88379   0.00000  Uiso   1.00
N1222  N     0.65151   0.41750   0.99876   0.00000  Uiso   1.00
N1223  N     0.37979   0.55779   0.68833   0.00000  Uiso   1.00
N1224  N     0.62655   0.44131   0.81468   0.00000  Uiso   1.00
N1225  N     0.40548   0.64855   0.79490   0.00000  Uiso   1.00
N1226  N     0.46142   0.54485   0.61720   0.00000  Uiso   1.00
N1227  N     0.61889   0.43161   0.61565   0.00000  Uiso   1.00
N1228  N     0.60397   0.38368   0.93389   0.00000  Uiso   1.00
N1229  N     0.65983   0.54988   0.99881   0.00000  Uiso   1.00
O1230  O     0.50000   0.50000   0.75000   0.00000  Uiso   1.00
O1231  O     0.49027   0.45726   0.66625   0.00000  Uiso   1.00
O1232  O     0.46020   0.53979   0.83749   0.00000  Uiso   1.00
O1233  O     0.54421   0.50826   0.65877   0.00000  Uiso   1.00
O1234  O     0.50532   0.49468   0.83749   0.00000  Uiso   1.00
O1235  O     0.51182   0.41434   0.77820   0.00000  Uiso   1.00
O1236  O     0.47914   0.59469   0.76767   0.00000  Uiso   1.00
O1237  O     0.40785   0.46584   0.73607   0.00000  Uiso   1.00
O1238  O     0.60119   0.52512   0.71805   0.00000  Uiso   1.00
O1239  O     0.40323   0.52293   0.77820   0.00000  Uiso   1.00
O1240  O     0.58773   0.48610   0.76767   0.00000  Uiso   1.00
O1241  O     0.47133   0.40236   0.73607   0.00000  Uiso   1.00
O1242  O     0.53771   0.58860   0.71805   0.00000  Uiso   1.00
Zn1243 Zn    0.52577   0.47423   0.78277   0.00000  Uiso   1.00
Zn1244 Zn    0.46792   0.45711   0.72257   0.00000  Uiso   1.00
Zn1245 Zn    0.54500   0.52997   0.71188   0.00000  Uiso   1.00
Zn1246 Zn    0.46131   0.53868   0.78277   0.00000  Uiso   1.00
C1247  C     0.71946   0.49317   0.75873   0.00000  Uiso   1.00
C1248  C     0.85729   0.44987   0.95616   0.00000  Uiso   1.00
C1249  C     0.88413   0.43629   0.97546   0.00000  Uiso   1.00
C1250  C     0.94766   0.50694   0.74141   0.00000  Uiso   1.00
C1251  C     0.87968   0.44897   0.51677   0.00000  Uiso   1.00
C1252  C     0.84336   0.46982   0.53926   0.00000  Uiso   1.00
C1253  C     0.90953   0.44122   0.53675   0.00000  Uiso   1.00
C1254  C     0.90028   0.44947   0.57849   0.00000  Uiso   1.00
C1255  C     0.83905   0.48372   0.58023   0.00000  Uiso   1.00
C1256  C     0.99337   0.51028   0.73896   0.00000  Uiso   1.00
C1257  C     0.67441   0.49001   0.76250   0.00000  Uiso   1.00
C1258  C     0.75255   0.53223   0.92198   0.00000  Uiso   1.00
C1259  C     0.84943   0.65599   0.74081   0.00000  Uiso   1.00
C1260  C     0.81738   0.34589   0.76120   0.00000  Uiso   1.00
C1261  C     0.82280   0.38963   0.75852   0.00000  Uiso   1.00
C1262  C     0.84357   0.61100   0.74153   0.00000  Uiso   1.00
C1263  C     0.85486   0.47874   0.64376   0.00000  Uiso   1.00
C1264  C     0.81097   0.52024   0.85660   0.00000  Uiso   1.00
C1265  C     0.79406   0.52141   0.90069   0.00000  Uiso   1.00
C1266  C     0.86448   0.46978   0.60016   0.00000  Uiso   1.00
C1267  C     0.73554   0.52605   0.96272   0.00000  Uiso   1.00
C1268  C     0.70235   0.50760   0.54908   0.00000  Uiso   1.00
C1269  C     0.81809   0.50588   0.92076   0.00000  Uiso   1.00
C1270  C     0.95132   0.42788   0.51540   0.00000  Uiso   1.00
C1271  C     0.68963   0.53666   0.71074   0.00000  Uiso   1.00
C1272  C     0.98102   0.46295   0.79149   0.00000  Uiso   1.00
C1273  C     0.89195   0.34149   0.71741   0.00000  Uiso   1.00
C1274  C     0.90405   0.33408   0.67567   0.00000  Uiso   1.00
C1275  C     0.94518   0.34901   0.65362   0.00000  Uiso   1.00
C1276  C     0.97437   0.37165   0.67303   0.00000  Uiso   1.00
C1277  C     0.96255   0.37915   0.71455   0.00000  Uiso   1.00
C1278  C     0.92154   0.36399   0.73677   0.00000  Uiso   1.00
C1279  C     0.77373   0.66207   0.78004   0.00000  Uiso   1.00
C1280  C     0.80057   0.49539   0.95991   0.00000  Uiso   1.00
C1281  C     0.81423   0.51766   0.60080   0.00000  Uiso   1.00
C1282  C     0.92909   0.43932   0.59917   0.00000  Uiso   1.00
C1283  C     0.91389   0.40705   0.95251   0.00000  Uiso   1.00
C1284  C     0.69343   0.53921   0.98312   0.00000  Uiso   1.00
C1285  C     0.72616   0.55008   0.90225   0.00000  Uiso   1.00
C1286  C     0.73210   0.59292   0.89907   0.00000  Uiso   1.00
C1287  C     0.70605   0.61005   0.88201   0.00000  Uiso   1.00
C1288  C     0.67394   0.58457   0.86819   0.00000  Uiso   1.00
C1289  C     0.66769   0.54193   0.87157   0.00000  Uiso   1.00
C1290  C     0.69374   0.52463   0.88850   0.00000  Uiso   1.00
C1291  C     0.75937   0.50737   0.98226   0.00000  Uiso   1.00
C1292  C     0.85853   0.43135   0.91582   0.00000  Uiso   1.00
C1293  C     0.82474   0.47526   0.97794   0.00000  Uiso   1.00
C1294  C     0.81348   0.47789   0.51974   0.00000  Uiso   1.00
C1295  C     0.77125   0.48544   0.54080   0.00000  Uiso   1.00
C1296  C     0.74427   0.49979   0.52303   0.00000  Uiso   1.00
H1297  H     0.85133   0.50228   0.90519   0.00000  Uiso   1.00
H1298  H     0.98708   0.59789   0.85506   0.00000  Uiso   1.00
H1299  H     0.97580   0.52239   0.86131   0.00000  Uiso   1.00
H1300  H     0.68849   0.49161   0.89123   0.00000  Uiso   1.00
H1301  H     0.75821   0.47874   0.57145   0.00000  Uiso   1.00
H1302  H     0.88180   0.64965   0.66032   0.00000  Uiso   1.00
H1303  H     0.95444   0.34299   0.62146   0.00000  Uiso   1.00
H1304  H     0.67286   0.38324   0.65590   0.00000  Uiso   1.00
H1305  H     0.98542   0.39621   0.72947   0.00000  Uiso   1.00
H1306  H     0.91308   0.36918   0.76897   0.00000  Uiso   1.00
H1307  H     0.75668   0.61294   0.90996   0.00000  Uiso   1.00
H1308  H     0.71061   0.64311   0.87972   0.00000  Uiso   1.00
N1309  N     0.66902   0.51390   0.57039   0.00000  Uiso   1.00
N1310  N     0.85952   0.41648   0.88379   0.00000  Uiso   1.00
N1311  N     0.98485   0.41750   0.99876   0.00000  Uiso   1.00
N1312  N     0.71312   0.55779   0.68833   0.00000  Uiso   1.00
N1313  N     0.95988   0.44131   0.81468   0.00000  Uiso   1.00
N1314  N     0.73881   0.64855   0.79490   0.00000  Uiso   1.00
N1315  N     0.79476   0.54485   0.61720   0.00000  Uiso   1.00
N1316  N     0.95222   0.43161   0.61565   0.00000  Uiso   1.00
N1317  N     0.93730   0.38368   0.93389   0.00000  Uiso   1.00
N1318  N     0.99316   0.54988   0.99881   0.00000  Uiso   1.00
O1319  O     0.83333   0.50000   0.75000   0.00000  Uiso   1.00
O1320  O     0.82360   0.45726   0.66625   0.00000  Uiso   1.00
O1321  O     0.79354   0.53979   0.83749   0.00000  Uiso   1.00
O1322  O     0.87755   0.50826   0.65877   0.00000  Uiso   1.00
O1323  O     0.83865   0.49468   0.83749   0.00000  Uiso   1.00
O1324  O     0.84515   0.41434   0.77820   0.00000  Uiso   1.00
O1325  O     0.81247   0.59469   0.76767   0.00000  Uiso   1.00
O1326  O     0.74119   0.46584   0.73607   0.00000  Uiso   1.00
O1327  O     0.93452   0.52512   0.71805   0.00000  Uiso   1.00
O1328  O     0.73656   0.52293   0.77820   0.00000  Uiso   1.00
O1329  O     0.92106   0.48610   0.76767   0.00000  Uiso   1.00
O1330  O     0.80467   0.40236   0.73607   0.00000  Uiso   1.00
O1331  O     0.87104   0.58860   0.71805   0.00000  Uiso   1.00
Zn1332 Zn    0.85910   0.47423   0.78277   0.00000  Uiso   1.00
Zn1333 Zn    0.80125   0.45711   0.72257   0.00000  Uiso   1.00
Zn1334 Zn    0.87833   0.52997   0.71188   0.00000  Uiso   1.00
Zn1335 Zn    0.79465   0.53868   0.78277   0.00000  Uiso   1.00
C1336  C     0.05279   0.82650   0.75873   0.00000  Uiso   1.00
C1337  C     0.19063   0.78320   0.95616   0.00000  Uiso   1.00
C1338  C     0.21746   0.76962   0.97546   0.00000  Uiso   1.00
C1339  C     0.28100   0.84028   0.74141   0.00000  Uiso   1.00
C1340  C     0.21301   0.78231   0.51677   0.00000  Uiso   1.00
C1341  C     0.17669   0.80316   0.53926   0.00000  Uiso   1.00
C1342  C     0.24287   0.77456   0.53675   0.00000  Uiso   1.00
C1343  C     0.23362   0.78281   0.57849   0.00000  Uiso   1.00
C1344  C     0.17238   0.81706   0.58023   0.00000  Uiso   1.00
C1345  C     0.32671   0.84361   0.73896   0.00000  Uiso   1.00
C1346  C     0.00775   0.82334   0.76250   0.00000  Uiso   1.00
C1347  C     0.08589   0.86557   0.92198   0.00000  Uiso   1.00
C1348  C     0.18277   0.98933   0.74081   0.00000  Uiso   1.00
C1349  C     0.15071   0.67922   0.76120   0.00000  Uiso   1.00
C1350  C     0.15613   0.72297   0.75852   0.00000  Uiso   1.00
C1351  C     0.17691   0.94433   0.74153   0.00000  Uiso   1.00
C1352  C     0.18819   0.81208   0.64376   0.00000  Uiso   1.00
C1353  C     0.14431   0.85358   0.85660   0.00000  Uiso   1.00
C1354  C     0.12739   0.85474   0.90069   0.00000  Uiso   1.00
C1355  C     0.19782   0.80311   0.60016   0.00000  Uiso   1.00
C1356  C     0.06887   0.85938   0.96272   0.00000  Uiso   1.00
C1357  C     0.03569   0.84093   0.54908   0.00000  Uiso   1.00
C1358  C     0.15142   0.83921   0.92076   0.00000  Uiso   1.00
C1359  C     0.28466   0.76121   0.51540   0.00000  Uiso   1.00
C1360  C     0.02296   0.86999   0.71074   0.00000  Uiso   1.00
C1361  C     0.31435   0.79628   0.79149   0.00000  Uiso   1.00
C1362  C     0.22528   0.67482   0.71741   0.00000  Uiso   1.00
C1363  C     0.23738   0.66741   0.67567   0.00000  Uiso   1.00
C1364  C     0.27851   0.68234   0.65362   0.00000  Uiso   1.00
C1365  C     0.30770   0.70498   0.67303   0.00000  Uiso   1.00
C1366  C     0.29588   0.71248   0.71455   0.00000  Uiso   1.00
C1367  C     0.25487   0.69732   0.73677   0.00000  Uiso   1.00
C1368  C     0.10706   0.99541   0.78004   0.00000  Uiso   1.00
C1369  C     0.13390   0.82872   0.95991   0.00000  Uiso   1.00
C1370  C     0.14757   0.85099   0.60080   0.00000  Uiso   1.00
C1371  C     0.26243   0.77266   0.59917   0.00000  Uiso   1.00
C1372  C     0.24722   0.74039   0.95251   0.00000  Uiso   1.00
C1373  C     0.02676   0.87255   0.98312   0.00000  Uiso   1.00
C1374  C     0.05949   0.88341   0.90225   0.00000  Uiso   1.00
C1375  C     0.06543   0.92625   0.89907   0.00000  Uiso   1.00
C1376  C     0.03938   0.94338   0.88201   0.00000  Uiso   1.00
C1377  C     0.00727   0.91790   0.86819   0.00000  Uiso   1.00
C1378  C     0.00103   0.87527   0.87157   0.00000  Uiso   1.00
C1379  C     0.02707   0.85796   0.88850   0.00000  Uiso   1.00
C1380  C     0.09270   0.84070   0.98226   0.00000  Uiso   1.00
C1381  C     0.19186   0.76468   0.91582   0.00000  Uiso   1.00
C1382  C     0.15807   0.80859   0.97794   0.00000  Uiso   1.00
C1383  C     0.14682   0.81122   0.51974   0.00000  Uiso   1.00
C1384  C     0.10459   0.81877   0.54080   0.00000  Uiso   1.00
C1385  C     0.07760   0.83312   0.52303   0.00000  Uiso   1.00
H1386  H     0.18466   0.83562   0.90519   0.00000  Uiso   1.00
H1387  H     0.32041   0.93123   0.85506   0.00000  Uiso   1.00
H1388  H     0.30914   0.85572   0.86131   0.00000  Uiso   1.00
H1389  H     0.02182   0.82494   0.89123   0.00000  Uiso   1.00
H1390  H     0.09154   0.81208   0.57145   0.00000  Uiso   1.00
H1391  H     0.21513   0.98298   0.66032   0.00000  Uiso   1.00
H1392  H     0.28778   0.67632   0.62146   0.00000  Uiso   1.00
H1393  H     0.00619   0.71657   0.65590   0.00000  Uiso   1.00
H1394  H     0.31876   0.72955   0.72947   0.00000  Uiso   1.00
H1395  H     0.24641   0.70252   0.76897   0.00000  Uiso   1.00
H1396  H     0.09001   0.94627   0.90996   0.00000  Uiso   1.00
H1397  H     0.04395   0.97644   0.87972   0.00000  Uiso   1.00
N1398  N     0.00235   0.84723   0.57039   0.00000  Uiso   1.00
N1399  N     0.19286   0.74981   0.88379   0.00000  Uiso   1.00
N1400  N     0.31818   0.75083   0.99876   0.00000  Uiso   1.00
N1401  N     0.04645   0.89112   0.68833   0.00000  Uiso   1.00
N1402  N     0.29322   0.77465   0.81468   0.00000  Uiso   1.00
N1403  N     0.07214   0.98188   0.79490   0.00000  Uiso   1.00
N1404  N     0.12809   0.87819   0.61720   0.00000  Uiso   1.00
N1405  N     0.28555   0.76494   0.61565   0.00000  Uiso   1.00
N1406  N     0.27064   0.71701   0.93389   0.00000  Uiso   1.00
N1407  N     0.32649   0.88321   0.99881   0.00000  Uiso   1.00
O1408  O     0.16667   0.83333   0.75000   0.00000  Uiso   1.00
O1409  O     0.15693   0.79060   0.66625   0.00000  Uiso   1.00
O1410  O     0.12687   0.87313   0.83749   0.00000  Uiso   1.00
O1411  O     0.21088   0.84159   0.65877   0.00000  Uiso   1.00
O1412  O     0.17198   0.82802   0.83749   0.00000  Uiso   1.00
O1413  O     0.17849   0.74768   0.77820   0.00000  Uiso   1.00
O1414  O     0.14581   0.92803   0.76767   0.00000  Uiso   1.00
O1415  O     0.07452   0.79917   0.73607   0.00000  Uiso   1.00
O1416  O     0.26785   0.85845   0.71805   0.00000  Uiso   1.00
O1417  O     0.06990   0.85627   0.77820   0.00000  Uiso   1.00
O1418  O     0.25440   0.81944   0.76767   0.00000  Uiso   1.00
O1419  O     0.13800   0.73570   0.73607   0.00000  Uiso   1.00
O1420  O     0.20437   0.92193   0.71805   0.00000  Uiso   1.00
Zn1421 Zn    0.19244   0.80756   0.78277   0.00000  Uiso   1.00
Zn1422 Zn    0.13459   0.79044   0.72257   0.00000  Uiso   1.00
Zn1423 Zn    0.21166   0.86331   0.71188   0.00000  Uiso   1.00
Zn1424 Zn    0.12798   0.87202   0.78277   0.00000  Uiso   1.00
C1425  C     0.38612   0.82650   0.75873   0.00000  Uiso   1.00
C1426  C     0.52396   0.78320   0.95616   0.00000  Uiso   1.00
C1427  C     0.55080   0.76962   0.97546   0.00000  Uiso   1.00
C1428  C     0.61433   0.84028   0.74141   0.00000  Uiso   1.00
C1429  C     0.54635   0.78231   0.51677   0.00000  Uiso   1.00
C1430  C     0.51002   0.80316   0.53926   0.00000  Uiso   1.00
C1431  C     0.57620   0.77456   0.53675   0.00000  Uiso   1.00
C1432  C     0.56695   0.78281   0.57849   0.00000  Uiso   1.00
C1433  C     0.50571   0.81706   0.58023   0.00000  Uiso   1.00
C1434  C     0.66004   0.84361   0.73896   0.00000  Uiso   1.00
C1435  C     0.34108   0.82334   0.76250   0.00000  Uiso   1.00
C1436  C     0.41922   0.86557   0.92198   0.00000  Uiso   1.00
C1437  C     0.51610   0.98933   0.74081   0.00000  Uiso   1.00
C1438  C     0.48405   0.67922   0.76120   0.00000  Uiso   1.00
C1439  C     0.48946   0.72297   0.75852   0.00000  Uiso   1.00
C1440  C     0.51024   0.94433   0.74153   0.00000  Uiso   1.00
C1441  C     0.52152   0.81208   0.64376   0.00000  Uiso   1.00
C1442  C     0.47764   0.85358   0.85660   0.00000  Uiso   1.00
C1443  C     0.46073   0.85474   0.90069   0.00000  Uiso   1.00
C1444  C     0.53115   0.80311   0.60016   0.00000  Uiso   1.00
C1445  C     0.40220   0.85938   0.96272   0.00000  Uiso   1.00
C1446  C     0.36902   0.84093   0.54908   0.00000  Uiso   1.00
C1447  C     0.48476   0.83921   0.92076   0.00000  Uiso   1.00
C1448  C     0.61799   0.76121   0.51540   0.00000  Uiso   1.00
C1449  C     0.35629   0.86999   0.71074   0.00000  Uiso   1.00
C1450  C     0.64769   0.79628   0.79149   0.00000  Uiso   1.00
C1451  C     0.55862   0.67482   0.71741   0.00000  Uiso   1.00
C1452  C     0.57071   0.66741   0.67567   0.00000  Uiso   1.00
C1453  C     0.61184   0.68234   0.65362   0.00000  Uiso   1.00
C1454  C     0.64103   0.70498   0.67303   0.00000  Uiso   1.00
C1455  C     0.62922   0.71248   0.71455   0.00000  Uiso   1.00
C1456  C     0.58821   0.69732   0.73677   0.00000  Uiso   1.00
C1457  C     0.44040   0.99541   0.78004   0.00000  Uiso   1.00
C1458  C     0.46723   0.82872   0.95991   0.00000  Uiso   1.00
C1459  C     0.48090   0.85099   0.60080   0.00000  Uiso   1.00
C1460  C     0.59576   0.77266   0.59917   0.00000  Uiso   1.00
C1461  C     0.58055   0.74039   0.95251   0.00000  Uiso   1.00
C1462  C     0.36010   0.87255   0.98312   0.00000  Uiso   1.00
C1463  C     0.39283   0.88341   0.90225   0.00000  Uiso   1.00
C1464  C     0.39876   0.92625   0.89907   0.00000  Uiso   1.00
C1465  C     0.37272   0.94338   0.88201   0.00000  Uiso   1.00
C1466  C     0.34060   0.91790   0.86819   0.00000  Uiso   1.00
C1467  C     0.33436   0.87527   0.87157   0.00000  Uiso   1.00
C1468  C     0.36041   0.85796   0.88850   0.00000  Uiso   1.00
C1469  C     0.42604   0.84070   0.98226   0.00000  Uiso   1.00
C1470  C     0.52519   0.76468   0.91582   0.00000  Uiso   1.00
C1471  C     0.49141   0.80859   0.97794   0.00000  Uiso   1.00
C1472  C     0.48015   0.81122   0.51974   0.00000  Uiso   1.00
C1473  C     0.43792   0.81877   0.54080   0.00000  Uiso   1.00
C1474  C     0.41094   0.83312   0.52303   0.00000  Uiso   1.00
H1475  H     0.51800   0.83562   0.90519   0.00000  Uiso   1.00
H1476  H     0.65374   0.93123   0.85506   0.00000  Uiso   1.00
H1477  H     0.64247   0.85572   0.86131   0.00000  Uiso   1.00
H1478  H     0.35516   0.82494   0.89123   0.00000  Uiso   1.00
H1479  H     0.42487   0.81208   0.57145   0.00000  Uiso   1.00
H1480  H     0.54847   0.98298   0.66032   0.00000  Uiso   1.00
H1481  H     0.62111   0.67632   0.62146   0.00000  Uiso   1.00
H1482  H     0.33953   0.71657   0.65590   0.00000  Uiso   1.00
H1483  H     0.65209   0.72955   0.72947   0.00000  Uiso   1.00
H1484  H     0.57975   0.70252   0.76897   0.00000  Uiso   1.00
H1485  H     0.42334   0.94627   0.90996   0.00000  Uiso   1.00
H1486  H     0.37728   0.97644   0.87972   0.00000  Uiso   1.00
N1487  N     0.33569   0.84723   0.57039   0.00000  Uiso   1.00
N1488  N     0.52619   0.74981   0.88379   0.00000  Uiso   1.00
N1489  N     0.65151   0.75083   0.99876   0.00000  Uiso   1.00
N1490  N     0.37979   0.89112   0.68833   0.00000  Uiso   1.00
N1491  N     0.62655   0.77465   0.81468   0.00000  Uiso   1.00
N1492  N     0.40548   0.98188   0.79490   0.00000  Uiso   1.00
N1493  N     0.46142   0.87819   0.61720   0.00000  Uiso   1.00
N1494  N     0.61889   0.76494   0.61565   0.00000  Uiso   1.00
N1495  N     0.60397   0.71701   0.93389   0.00000  Uiso   1.00
N1496  N     0.65983   0.88321   0.99881   0.00000  Uiso   1.00
O1497  O     0.50000   0.83333   0.75000   0.00000  Uiso   1.00
O1498  O     0.49027   0.79060   0.66625   0.00000  Uiso   1.00
O1499  O     0.46020   0.87313   0.83749   0.00000  Uiso   1.00
O1500  O     0.54421   0.84159   0.65877   0.00000  Uiso   1.00
O1501  O     0.50532   0.82802   0.83749   0.00000  Uiso   1.00
O1502  O     0.51182   0.74768   0.77820   0.00000  Uiso   1.00
O1503  O     0.47914   0.92803   0.76767   0.00000  Uiso   1.00
O1504  O     0.40785   0.79917   0.73607   0.00000  Uiso   1.00
O1505  O     0.60119   0.85845   0.71805   0.00000  Uiso   1.00
O1506  O     0.40323   0.85627   0.77820   0.00000  Uiso   1.00
O1507  O     0.58773   0.81944   0.76767   0.00000  Uiso   1.00
O1508  O     0.47133   0.73570   0.73607   0.00000  Uiso   1.00
O1509  O     0.53771   0.92193   0.71805   0.00000  Uiso   1.00
Zn1510 Zn    0.52577   0.80756   0.78277   0.00000  Uiso   1.00
Zn1511 Zn    0.46792   0.79044   0.72257   0.00000  Uiso   1.00
Zn1512 Zn    0.54500   0.86331   0.71188   0.00000  Uiso   1.00
Zn1513 Zn    0.46131   0.87202   0.78277   0.00000  Uiso   1.00
C1514  C     0.71946   0.82650   0.75873   0.00000  Uiso   1.00
C1515  C     0.85729   0.78320   0.95616   0.00000  Uiso   1.00
C1516  C     0.88413   0.76962   0.97546   0.00000  Uiso   1.00
C1517  C     0.94766   0.84028   0.74141   0.00000  Uiso   1.00
C1518  C     0.87968   0.78231   0.51677   0.00000  Uiso   1.00
C1519  C     0.84336   0.80316   0.53926   0.00000  Uiso   1.00
C1520  C     0.90953   0.77456   0.53675   0.00000  Uiso   1.00
C1521  C     0.90028   0.78281   0.57849   0.00000  Uiso   1.00
C1522  C     0.83905   0.81706   0.58023   0.00000  Uiso   1.00
C1523  C     0.99337   0.84361   0.73896   0.00000  Uiso   1.00
C1524  C     0.67441   0.82334   0.76250   0.00000  Uiso   1.00
C1525  C     0.75255   0.86557   0.92198   0.00000  Uiso   1.00
C1526  C     0.84943   0.98933   0.74081   0.00000  Uiso   1.00
C1527  C     0.81738   0.67922   0.76120   0.00000  Uiso   1.00
C1528  C     0.82280   0.72297   0.75852   0.00000  Uiso   1.00
C1529  C     0.84357   0.94433   0.74153   0.00000  Uiso   1.00
C1530  C     0.85486   0.81208   0.64376   0.00000  Uiso   1.00
C1531  C     0.81097   0.85358   0.85660   0.00000  Uiso   1.00
C1532  C     0.79406   0.85474   0.90069   0.00000  Uiso   1.00
C1533  C     0.86448   0.80311   0.60016   0.00000  Uiso   1.00
C1534  C     0.73554   0.85938   0.96272   0.00000  Uiso   1.00
C1535  C     0.70235   0.84093   0.54908   0.00000  Uiso   1.00
C1536  C     0.81809   0.83921   0.92076   0.00000  Uiso   1.00
C1537  C     0.95132   0.76121   0.51540   0.00000  Uiso   1.00
C1538  C     0.68963   0.86999   0.71074   0.00000  Uiso   1.00
C1539  C     0.98102   0.79628   0.79149   0.00000  Uiso   1.00
C1540  C     0.89195   0.67482   0.71741   0.00000  Uiso   1.00
C1541  C     0.90405   0.66741   0.67567   0.00000  Uiso   1.00
C1542  C     0.94518   0.68234   0.65362   0.00000  Uiso   1.00
C1543  C     0.97437   0.70498   0.67303   0.00000  Uiso   1.00
C1544  C     0.96255   0.71248   0.71455   0.00000  Uiso   1.00
C1545  C     0.92154   0.69732   0.73677   0.00000  Uiso   1.00
C1546  C     0.77373   0.99541   0.78004   0.00000  Uiso   1.00
C1547  C     0.80057   0.82872   0.95991   0.00000  Uiso   1.00
C1548  C     0.81423   0.85099   0.60080   0.00000  Uiso   1.00
C1549  C     0.92909   0.77266   0.59917   0.00000  Uiso   1.00
C1550  C     0.91389   0.74039   0.95251   0.00000  Uiso   1.00
C1551  C     0.69343   0.87255   0.98312   0.00000  Uiso   1.00
C1552  C     0.72616   0.88341   0.90225   0.00000  Uiso   1.00
C1553  C     0.73210   0.92625   0.89907   0.00000  Uiso   1.00
C1554  C     0.70605   0.94338   0.88201   0.00000  Uiso   1.00
C1555  C     0.67394   0.91790   0.86819   0.00000  Uiso   1.00
C1556  C     0.66769   0.87527   0.87157   0.00000  Uiso   1.00
C1557  C     0.69374   0.85796   0.88850   0.00000  Uiso   1.00
C1558  C     0.75937   0.84070   0.98226   0.00000  Uiso   1.00
C1559  C     0.85853   0.76468   0.91582   0.00000  Uiso   1.00
C1560  C     0.82474   0.80859   0.97794   0.00000  Uiso   1.00
C1561  C     0.81348   0.81122   0.51974   0.00000  Uiso   1.00
C1562  C     0.77125   0.81877   0.54080   0.00000  Uiso   1.00
C1563  C     0.74427   0.83312   0.52303   0.00000  Uiso   1.00
H1564  H     0.85133   0.83562   0.90519   0.00000  Uiso   1.00
H1565  H     0.98708   0.93123   0.85506   0.00000  Uiso   1.00
H1566  H     0.97580   0.85572   0.86131   0.00000  Uiso   1.00
H1567  H     0.68849   0.82494   0.89123   0.00000  Uiso   1.00
H1568  H     0.75821   0.81208   0.57145   0.00000  Uiso   1.00
H1569  H     0.88180   0.98298   0.66032   0.00000  Uiso   1.00
H1570  H     0.95444   0.67632   0.62146   0.00000  Uiso   1.00
H1571  H     0.67286   0.71657   0.65590   0.00000  Uiso   1.00
H1572  H     0.98542   0.72955   0.72947   0.00000  Uiso   1.00
H1573  H     0.91308   0.70252   0.76897   0.00000  Uiso   1.00
H1574  H     0.75668   0.94627   0.90996   0.00000  Uiso   1.00
H1575  H     0.71061   0.97644   0.87972   0.00000  Uiso   1.00
N1576  N     0.66902   0.84723   0.57039   0.00000  Uiso   1.00
N1577  N     0.85952   0.74981   0.88379   0.00000  Uiso   1.00
N1578  N     0.98485   0.75083   0.99876   0.00000  Uiso   1.00
N1579  N     0.71312   0.89112   0.68833   0.00000  Uiso   1.00
N1580  N     0.95988   0.77465   0.81468   0.00000  Uiso   1.00
N1581  N     0.73881   0.98188   0.79490   0.00000  Uiso   1.00
N1582  N     0.79476   0.87819   0.61720   0.00000  Uiso   1.00
N1583  N     0.95222   0.76494   0.61565   0.00000  Uiso   1.00
N1584  N     0.93730   0.71701   0.93389   0.00000  Uiso   1.00
N1585  N     0.99316   0.88321   0.99881   0.00000  Uiso   1.00
O1586  O     0.83333   0.83333   0.75000   0.00000  Uiso   1.00
O1587  O     0.82360   0.79060   0.66625   0.00000  Uiso   1.00
O1588  O     0.79354   0.87313   0.83749   0.00000  Uiso   1.00
O1589  O     0.87755   0.84159   0.65877   0.00000  Uiso   1.00
O1590  O     0.83865   0.82802   0.83749   0.00000  Uiso   1.00
O1591  O     0.84515   0.74768   0.77820   0.00000  Uiso   1.00
O1592  O     0.81247   0.92803   0.76767   0.00000  Uiso   1.00
O1593  O     0.74119   0.79917   0.73607   0.00000  Uiso   1.00
O1594  O     0.93452   0.85845   0.71805   0.00000  Uiso   1.00
O1595  O     0.73656   0.85627   0.77820   0.00000  Uiso   1.00
O1596  O     0.92106   0.81944   0.76767   0.00000  Uiso   1.00
O1597  O     0.80467   0.73570   0.73607   0.00000  Uiso   1.00
O1598  O     0.87104   0.92193   0.71805   0.00000  Uiso   1.00
Zn1599 Zn    0.85910   0.80756   0.78277   0.00000  Uiso   1.00
Zn1600 Zn    0.80125   0.79044   0.72257   0.00000  Uiso   1.00
Zn1601 Zn    0.87833   0.86331   0.71188   0.00000  Uiso   1.00
Zn1602 Zn    0.79465   0.87202   0.78277   0.00000  Uiso   1.00
loop_
_geom_bond_atom_site_label_1
_geom_bond_atom_site_label_2
_geom_bond_distance
_geom_bond_site_symmetry_2
_ccdc_geom_bond_type
C1     C11     1.430   .     S
C1     O82     1.265   .     A
C1     O80     1.263   .     A
C2     C46     1.456   .     S
C2     C47     1.421   .     A
C2     C3      1.413   .     A
C3     C37     1.454   .     S
C3     C806    1.428   .     S
C4     O81     1.286   .     A
C4     C10     1.461   .     S
C4     O83     1.271   .     A
C5     C6      1.429   .     A
C5     C7      1.433   .     A
C5     C804    1.428   1_554 S
C6     C9      1.424   .     A
C6     C48     1.426   .     A
C7     C8      1.409   .     A
C7     C24     1.453   .     S
C8     C20     1.401   .     A
C8     C36     1.452   .     S
C9     C20     1.398   .     A
C9     C35     1.454   .     S
C10    C100    1.358   .     S
C10    C114    1.452   .     S
C11    C188    1.358   1_455 S
C11    C204    1.451   1_455 S
C12    C21     1.416   .     A
C12    C39     1.485   .     S
C12    C19     1.416   .     A
C13    C16     1.460   .     S
C13    C281    1.355   .     S
C13    C294    1.487   .     S
C14    C15     1.430   .     S
C14    C547    1.355   1_545 S
C14    C567    1.451   1_545 S
C15    O78     1.276   .     A
C15    O84     1.268   .     A
C16    O85     1.272   .     A
C16    O79     1.265   .     A
C17    C20     1.473   .     S
C17    O76     1.276   .     A
C17    O74     1.281   .     A
C18    O75     1.288   .     A
C18    C19     1.489   .     S
C18    O77     1.297   .     A
C19    C23     1.393   .     A
C21    C38     1.453   .     S
C21    C45     1.431   .     A
C22    N63     1.157   .     T
C22    C50     1.446   .     S
C23    H51     1.081   .     S
C23    C34     1.405   .     A
C24    N866    1.158   1_554 S
C25    N66     1.157   .     T
C25    C188    1.452   1_455 S
C26    N67     1.158   .     T
C26    C100    1.451   .     S
C27    C32     1.405   .     A
C27    C28     1.404   .     A
C27    C547    1.487   1_545 S
C28    C29     1.398   .     A
C28    H590    1.083   1_545 S
C29    C30     1.398   .     A
C29    H57     1.082   .     S
C30    C31     1.397   .     A
C30    H147    1.082   .     S
C31    H59     1.081   .     S
C31    C32     1.399   .     A
C32    H60     1.083   .     S
C33    N68     1.157   .     T
C33    C281    1.451   .     S
C34    C45     1.428   .     A
C34    C47     1.431   .     A
C35    N69     1.157   .     T
C36    N70     1.157   .     T
C37    N71     1.158   .     T
C38    N250    1.158   1_455 S
C39    C40     1.404   .     A
C39    C44     1.404   .     A
C40    H61     1.083   .     S
C40    C41     1.398   .     A
C41    C42     1.398   .     A
C41    H62     1.082   .     S
C42    C43     1.398   .     A
C42    H230    1.082   1_455 S
C43    C44     1.398   .     A
C43    H231    1.081   1_455 S
C44    H54     1.083   .     S
C45    C851    1.425   .     S
C46    N64     1.158   .     T
C47    C849    1.406   .     S
C48    C49     1.404   .     A
C48    C848    1.406   1_554 S
C49    H55     1.083   .     S
C49    C50     1.392   .     A
C50    C846    1.425   1_554 S
H52    C131    1.082   .     S
H53    C132    1.081   .     S
H56    C295    1.083   .     S
H58    C208    1.082   1_455 S
N65    C825    1.158   .     S
N72    C127    1.158   .     S
O73    Zn87    1.940   .     S
O73    Zn88    1.931   .     S
O73    Zn89    1.935   .     S
O73    Zn86    1.962   .     S
O74    Zn87    1.908   .     S
O75    Zn89    1.919   .     S
O76    Zn88    1.913   .     S
O77    Zn86    1.905   .     S
O78    Zn86    1.939   .     S
O79    Zn89    1.942   .     S
O80    Zn87    1.938   .     S
O81    Zn88    1.948   .     S
O82    Zn89    1.940   .     S
O83    Zn86    1.932   .     S
O84    Zn87    1.950   .     S
O85    Zn88    1.944   .     S
C90    C100    1.430   .     S
C90    O171    1.265   .     A
C90    O169    1.263   .     A
C91    C135    1.456   .     S
C91    C136    1.421   .     A
C91    C92     1.413   .     A
C92    C126    1.454   .     S
C92    C895    1.428   .     S
C93    O170    1.286   .     A
C93    C99     1.461   .     S
C93    O172    1.271   .     A
C94    C95     1.429   .     A
C94    C96     1.433   .     A
C94    C893    1.428   1_554 S
C95    C98     1.424   .     A
C95    C137    1.426   .     A
C96    C97     1.409   .     A
C96    C113    1.453   .     S
C97    C109    1.401   .     A
C97    C125    1.452   .     S
C98    C109    1.398   .     A
C98    C124    1.454   .     S
C99    C189    1.358   .     S
C99    C203    1.452   .     S
C101   C110    1.416   .     A
C101   C128    1.485   .     S
C101   C108    1.416   .     A
C102   C105    1.460   .     S
C102   C370    1.355   .     S
C102   C383    1.487   .     S
C103   C104    1.430   .     S
C103   C636    1.355   1_545 S
C103   C656    1.451   1_545 S
C104   O167    1.276   .     A
C104   O173    1.268   .     A
C105   O174    1.272   .     A
C105   O168    1.265   .     A
C106   C109    1.473   .     S
C106   O165    1.276   .     A
C106   O163    1.281   .     A
C107   O164    1.288   .     A
C107   C108    1.489   .     S
C107   O166    1.297   .     A
C108   C112    1.393   .     A
C110   C127    1.453   .     S
C110   C134    1.431   .     A
C111   N152    1.157   .     T
C111   C139    1.446   .     S
C112   H140    1.081   .     S
C112   C123    1.405   .     A
C113   N955    1.158   1_554 S
C114   N155    1.157   .     T
C115   N156    1.158   .     T
C115   C189    1.451   .     S
C116   C121    1.405   .     A
C116   C117    1.404   .     A
C116   C636    1.487   1_545 S
C117   C118    1.398   .     A
C117   H679    1.083   1_545 S
C118   C119    1.398   .     A
C118   H146    1.082   .     S
C119   C120    1.397   .     A
C119   H236    1.082   .     S
C120   H148    1.081   .     S
C120   C121    1.399   .     A
C121   H149    1.083   .     S
C122   N157    1.157   .     T
C122   C370    1.451   .     S
C123   C134    1.428   .     A
C123   C136    1.431   .     A
C124   N158    1.157   .     T
C125   N159    1.157   .     T
C126   N160    1.158   .     T
C128   C129    1.404   .     A
C128   C133    1.404   .     A
C129   H150    1.083   .     S
C129   C130    1.398   .     A
C130   C131    1.398   .     A
C130   H151    1.082   .     S
C131   C132    1.398   .     A
C132   C133    1.398   .     A
C133   H143    1.083   .     S
C134   C940    1.425   .     S
C135   N153    1.158   .     T
C136   C938    1.406   .     S
C137   C138    1.404   .     A
C137   C937    1.406   1_554 S
C138   H144    1.083   .     S
C138   C139    1.392   .     A
C139   C935    1.425   1_554 S
H141   C220    1.082   .     S
H142   C221    1.081   .     S
H145   C384    1.083   .     S
N154   C914    1.158   .     S
N161   C216    1.158   .     S
O162   Zn176   1.940   .     S
O162   Zn177   1.931   .     S
O162   Zn178   1.935   .     S
O162   Zn175   1.962   .     S
O163   Zn176   1.908   .     S
O164   Zn178   1.919   .     S
O165   Zn177   1.913   .     S
O166   Zn175   1.905   .     S
O167   Zn175   1.939   .     S
O168   Zn178   1.942   .     S
O169   Zn176   1.938   .     S
O170   Zn177   1.948   .     S
O171   Zn178   1.940   .     S
O172   Zn175   1.932   .     S
O173   Zn176   1.950   .     S
O174   Zn177   1.944   .     S
C179   C189    1.430   .     S
C179   O260    1.265   .     A
C179   O258    1.263   .     A
C180   C224    1.456   .     S
C180   C225    1.421   .     A
C180   C181    1.413   .     A
C181   C215    1.454   .     S
C181   C984    1.428   .     S
C182   O259    1.286   .     A
C182   C188    1.461   .     S
C182   O261    1.271   .     A
C183   C184    1.429   .     A
C183   C185    1.433   .     A
C183   C982    1.428   1_554 S
C184   C187    1.424   .     A
C184   C226    1.426   .     A
C185   C186    1.409   .     A
C185   C202    1.453   .     S
C186   C198    1.401   .     A
C186   C214    1.452   .     S
C187   C198    1.398   .     A
C187   C213    1.454   .     S
C188   C11     1.358   1_655 S
C188   C25     1.452   1_655 S
C190   C199    1.416   .     A
C190   C217    1.485   .     S
C190   C197    1.416   .     A
C191   C194    1.460   .     S
C191   C459    1.355   .     S
C191   C472    1.487   .     S
C192   C193    1.430   .     S
C192   C725    1.355   1_545 S
C192   C745    1.451   1_545 S
C193   O256    1.276   .     A
C193   O262    1.268   .     A
C194   O263    1.272   .     A
C194   O257    1.265   .     A
C195   C198    1.473   .     S
C195   O254    1.276   .     A
C195   O252    1.281   .     A
C196   O253    1.288   .     A
C196   C197    1.489   .     S
C196   O255    1.297   .     A
C197   C201    1.393   .     A
C199   C216    1.453   .     S
C199   C223    1.431   .     A
C200   N241    1.157   .     T
C200   C228    1.446   .     S
C201   H229    1.081   .     S
C201   C212    1.405   .     A
C202   N1044   1.158   1_554 S
C203   N244    1.157   .     T
C204   N245    1.158   .     T
C204   C11     1.451   1_655 S
C205   C210    1.405   .     A
C205   C206    1.404   .     A
C205   C725    1.487   1_545 S
C206   C207    1.398   .     A
C206   H768    1.083   1_545 S
C207   C208    1.398   .     A
C207   H235    1.082   .     S
C208   C209    1.397   .     A
C208   H58     1.082   1_655 S
C209   H237    1.081   .     S
C209   C210    1.399   .     A
C210   H238    1.083   .     S
C211   N246    1.157   .     T
C211   C459    1.451   .     S
C212   C223    1.428   .     A
C212   C225    1.431   .     A
C213   N247    1.157   .     T
C214   N248    1.157   .     T
C215   N249    1.158   .     T
C217   C218    1.404   .     A
C217   C222    1.404   .     A
C218   H239    1.083   .     S
C218   C219    1.398   .     A
C219   C220    1.398   .     A
C219   H240    1.082   .     S
C220   C221    1.398   .     A
C221   C222    1.398   .     A
C222   H232    1.083   .     S
C223   C1029   1.425   .     S
C224   N242    1.158   .     T
C225   C1027   1.406   .     S
C226   C227    1.404   .     A
C226   C1026   1.406   1_554 S
C227   H233    1.083   .     S
C227   C228    1.392   .     A
C228   C1024   1.425   1_554 S
H230   C42     1.082   1_655 S
H231   C43     1.081   1_655 S
H234   C473    1.083   .     S
N243   C1003   1.158   .     S
N250   C38     1.158   1_655 S
O251   Zn265   1.940   .     S
O251   Zn266   1.931   .     S
O251   Zn267   1.935   .     S
O251   Zn264   1.962   .     S
O252   Zn265   1.908   .     S
O253   Zn267   1.919   .     S
O254   Zn266   1.913   .     S
O255   Zn264   1.905   .     S
O256   Zn264   1.939   .     S
O257   Zn267   1.942   .     S
O258   Zn265   1.938   .     S
O259   Zn266   1.948   .     S
O260   Zn267   1.940   .     S
O261   Zn264   1.932   .     S
O262   Zn265   1.950   .     S
O263   Zn266   1.944   .     S
C268   C278    1.430   .     S
C268   O349    1.265   .     A
C268   O347    1.263   .     A
C269   C313    1.456   .     S
C269   C314    1.421   .     A
C269   C270    1.413   .     A
C270   C304    1.454   .     S
C270   C1073   1.428   .     S
C271   O348    1.286   .     A
C271   C277    1.461   .     S
C271   O350    1.271   .     A
C272   C273    1.429   .     A
C272   C274    1.433   .     A
C272   C1071   1.428   1_554 S
C273   C276    1.424   .     A
C273   C315    1.426   .     A
C274   C275    1.409   .     A
C274   C291    1.453   .     S
C275   C287    1.401   .     A
C275   C303    1.452   .     S
C276   C287    1.398   .     A
C276   C302    1.454   .     S
C277   C367    1.358   .     S
C277   C381    1.452   .     S
C278   C455    1.358   1_455 S
C278   C471    1.451   1_455 S
C279   C288    1.416   .     A
C279   C306    1.485   .     S
C279   C286    1.416   .     A
C280   C283    1.460   .     S
C280   C548    1.355   .     S
C280   C561    1.487   .     S
C281   C282    1.430   .     S
C282   O345    1.276   .     A
C282   O351    1.268   .     A
C283   O352    1.272   .     A
C283   O346    1.265   .     A
C284   C287    1.473   .     S
C284   O343    1.276   .     A
C284   O341    1.281   .     A
C285   O342    1.288   .     A
C285   C286    1.489   .     S
C285   O344    1.297   .     A
C286   C290    1.393   .     A
C288   C305    1.453   .     S
C288   C312    1.431   .     A
C289   N330    1.157   .     T
C289   C317    1.446   .     S
C290   H318    1.081   .     S
C290   C301    1.405   .     A
C291   N1133   1.158   1_554 S
C292   N333    1.157   .     T
C292   C455    1.452   1_455 S
C293   N334    1.158   .     T
C293   C367    1.451   .     S
C294   C299    1.405   .     A
C294   C295    1.404   .     A
C295   C296    1.398   .     A
C296   C297    1.398   .     A
C296   H324    1.082   .     S
C297   C298    1.397   .     A
C297   H414    1.082   .     S
C298   H326    1.081   .     S
C298   C299    1.399   .     A
C299   H327    1.083   .     S
C300   N335    1.157   .     T
C300   C548    1.451   .     S
C301   C312    1.428   .     A
C301   C314    1.431   .     A
C302   N336    1.157   .     T
C303   N337    1.157   .     T
C304   N338    1.158   .     T
C305   N517    1.158   1_455 S
C306   C307    1.404   .     A
C306   C311    1.404   .     A
C307   H328    1.083   .     S
C307   C308    1.398   .     A
C308   C309    1.398   .     A
C308   H329    1.082   .     S
C309   C310    1.398   .     A
C309   H497    1.082   1_455 S
C310   C311    1.398   .     A
C310   H498    1.081   1_455 S
C311   H321    1.083   .     S
C312   C1118   1.425   .     S
C313   N331    1.158   .     T
C314   C1116   1.406   .     S
C315   C316    1.404   .     A
C315   C1115   1.406   1_554 S
C316   H322    1.083   .     S
C316   C317    1.392   .     A
C317   C1113   1.425   1_554 S
H319   C398    1.082   .     S
H320   C399    1.081   .     S
H323   C562    1.083   .     S
H325   C475    1.082   1_455 S
N332   C1092   1.158   .     S
N339   C394    1.158   .     S
O340   Zn354   1.940   .     S
O340   Zn355   1.931   .     S
O340   Zn356   1.935   .     S
O340   Zn353   1.962   .     S
O341   Zn354   1.908   .     S
O342   Zn356   1.919   .     S
O343   Zn355   1.913   .     S
O344   Zn353   1.905   .     S
O345   Zn353   1.939   .     S
O346   Zn356   1.942   .     S
O347   Zn354   1.938   .     S
O348   Zn355   1.948   .     S
O349   Zn356   1.940   .     S
O350   Zn353   1.932   .     S
O351   Zn354   1.950   .     S
O352   Zn355   1.944   .     S
C357   C367    1.430   .     S
C357   O438    1.265   .     A
C357   O436    1.263   .     A
C358   C402    1.456   .     S
C358   C403    1.421   .     A
C358   C359    1.413   .     A
C359   C393    1.454   .     S
C359   C1162   1.428   .     S
C360   O437    1.286   .     A
C360   C366    1.461   .     S
C360   O439    1.271   .     A
C361   C362    1.429   .     A
C361   C363    1.433   .     A
C361   C1160   1.428   1_554 S
C362   C365    1.424   .     A
C362   C404    1.426   .     A
C363   C364    1.409   .     A
C363   C380    1.453   .     S
C364   C376    1.401   .     A
C364   C392    1.452   .     S
C365   C376    1.398   .     A
C365   C391    1.454   .     S
C366   C456    1.358   .     S
C366   C470    1.452   .     S
C368   C377    1.416   .     A
C368   C395    1.485   .     S
C368   C375    1.416   .     A
C369   C372    1.460   .     S
C369   C637    1.355   .     S
C369   C650    1.487   .     S
C370   C371    1.430   .     S
C371   O434    1.276   .     A
C371   O440    1.268   .     A
C372   O441    1.272   .     A
C372   O435    1.265   .     A
C373   C376    1.473   .     S
C373   O432    1.276   .     A
C373   O430    1.281   .     A
C374   O431    1.288   .     A
C374   C375    1.489   .     S
C374   O433    1.297   .     A
C375   C379    1.393   .     A
C377   C394    1.453   .     S
C377   C401    1.431   .     A
C378   N419    1.157   .     T
C378   C406    1.446   .     S
C379   H407    1.081   .     S
C379   C390    1.405   .     A
C380   N1222   1.158   1_554 S
C381   N422    1.157   .     T
C382   N423    1.158   .     T
C382   C456    1.451   .     S
C383   C388    1.405   .     A
C383   C384    1.404   .     A
C384   C385    1.398   .     A
C385   C386    1.398   .     A
C385   H413    1.082   .     S
C386   C387    1.397   .     A
C386   H503    1.082   .     S
C387   H415    1.081   .     S
C387   C388    1.399   .     A
C388   H416    1.083   .     S
C389   N424    1.157   .     T
C389   C637    1.451   .     S
C390   C401    1.428   .     A
C390   C403    1.431   .     A
C391   N425    1.157   .     T
C392   N426    1.157   .     T
C393   N427    1.158   .     T
C395   C396    1.404   .     A
C395   C400    1.404   .     A
C396   H417    1.083   .     S
C396   C397    1.398   .     A
C397   C398    1.398   .     A
C397   H418    1.082   .     S
C398   C399    1.398   .     A
C399   C400    1.398   .     A
C400   H410    1.083   .     S
C401   C1207   1.425   .     S
C402   N420    1.158   .     T
C403   C1205   1.406   .     S
C404   C405    1.404   .     A
C404   C1204   1.406   1_554 S
C405   H411    1.083   .     S
C405   C406    1.392   .     A
C406   C1202   1.425   1_554 S
H408   C487    1.082   .     S
H409   C488    1.081   .     S
H412   C651    1.083   .     S
N421   C1181   1.158   .     S
N428   C483    1.158   .     S
O429   Zn443   1.940   .     S
O429   Zn444   1.931   .     S
O429   Zn445   1.935   .     S
O429   Zn442   1.962   .     S
O430   Zn443   1.908   .     S
O431   Zn445   1.919   .     S
O432   Zn444   1.913   .     S
O433   Zn442   1.905   .     S
O434   Zn442   1.939   .     S
O435   Zn445   1.942   .     S
O436   Zn443   1.938   .     S
O437   Zn444   1.948   .     S
O438   Zn445   1.940   .     S
O439   Zn442   1.932   .     S
O440   Zn443   1.950   .     S
O441   Zn444   1.944   .     S
C446   C456    1.430   .     S
C446   O527    1.265   .     A
C446   O525    1.263   .     A
C447   C491    1.456   .     S
C447   C492    1.421   .     A
C447   C448    1.413   .     A
C448   C482    1.454   .     S
C448   C1251   1.428   .     S
C449   O526    1.286   .     A
C449   C455    1.461   .     S
C449   O528    1.271   .     A
C450   C451    1.429   .     A
C450   C452    1.433   .     A
C450   C1249   1.428   1_554 S
C451   C454    1.424   .     A
C451   C493    1.426   .     A
C452   C453    1.409   .     A
C452   C469    1.453   .     S
C453   C465    1.401   .     A
C453   C481    1.452   .     S
C454   C465    1.398   .     A
C454   C480    1.454   .     S
C455   C278    1.358   1_655 S
C455   C292    1.452   1_655 S
C457   C466    1.416   .     A
C457   C484    1.485   .     S
C457   C464    1.416   .     A
C458   C461    1.460   .     S
C458   C726    1.355   .     S
C458   C739    1.487   .     S
C459   C460    1.430   .     S
C460   O523    1.276   .     A
C460   O529    1.268   .     A
C461   O530    1.272   .     A
C461   O524    1.265   .     A
C462   C465    1.473   .     S
C462   O521    1.276   .     A
C462   O519    1.281   .     A
C463   O520    1.288   .     A
C463   C464    1.489   .     S
C463   O522    1.297   .     A
C464   C468    1.393   .     A
C466   C483    1.453   .     S
C466   C490    1.431   .     A
C467   N508    1.157   .     T
C467   C495    1.446   .     S
C468   H496    1.081   .     S
C468   C479    1.405   .     A
C469   N1311   1.158   1_554 S
C470   N511    1.157   .     T
C471   N512    1.158   .     T
C471   C278    1.451   1_655 S
C472   C477    1.405   .     A
C472   C473    1.404   .     A
C473   C474    1.398   .     A
C474   C475    1.398   .     A
C474   H502    1.082   .     S
C475   C476    1.397   .     A
C475   H325    1.082   1_655 S
C476   H504    1.081   .     S
C476   C477    1.399   .     A
C477   H505    1.083   .     S
C478   N513    1.157   .     T
C478   C726    1.451   .     S
C479   C490    1.428   .     A
C479   C492    1.431   .     A
C480   N514    1.157   .     T
C481   N515    1.157   .     T
C482   N516    1.158   .     T
C484   C485    1.404   .     A
C484   C489    1.404   .     A
C485   H506    1.083   .     S
C485   C486    1.398   .     A
C486   C487    1.398   .     A
C486   H507    1.082   .     S
C487   C488    1.398   .     A
C488   C489    1.398   .     A
C489   H499    1.083   .     S
C490   C1296   1.425   .     S
C491   N509    1.158   .     T
C492   C1294   1.406   .     S
C493   C494    1.404   .     A
C493   C1293   1.406   1_554 S
C494   H500    1.083   .     S
C494   C495    1.392   .     A
C495   C1291   1.425   1_554 S
H497   C309    1.082   1_655 S
H498   C310    1.081   1_655 S
H501   C740    1.083   .     S
N510   C1270   1.158   .     S
N517   C305    1.158   1_655 S
O518   Zn532   1.940   .     S
O518   Zn533   1.931   .     S
O518   Zn534   1.935   .     S
O518   Zn531   1.962   .     S
O519   Zn532   1.908   .     S
O520   Zn534   1.919   .     S
O521   Zn533   1.913   .     S
O522   Zn531   1.905   .     S
O523   Zn531   1.939   .     S
O524   Zn534   1.942   .     S
O525   Zn532   1.938   .     S
O526   Zn533   1.948   .     S
O527   Zn534   1.940   .     S
O528   Zn531   1.932   .     S
O529   Zn532   1.950   .     S
O530   Zn533   1.944   .     S
C535   C545    1.430   .     S
C535   O616    1.265   .     A
C535   O614    1.263   .     A
C536   C580    1.456   .     S
C536   C581    1.421   .     A
C536   C537    1.413   .     A
C537   C571    1.454   .     S
C537   C1340   1.428   .     S
C538   O615    1.286   .     A
C538   C544    1.461   .     S
C538   O617    1.271   .     A
C539   C540    1.429   .     A
C539   C541    1.433   .     A
C539   C1338   1.428   1_554 S
C540   C543    1.424   .     A
C540   C582    1.426   .     A
C541   C542    1.409   .     A
C541   C558    1.453   .     S
C542   C554    1.401   .     A
C542   C570    1.452   .     S
C543   C554    1.398   .     A
C543   C569    1.454   .     S
C544   C634    1.358   .     S
C544   C648    1.452   .     S
C545   C722    1.358   1_455 S
C545   C738    1.451   1_455 S
C546   C555    1.416   .     A
C546   C573    1.485   .     S
C546   C553    1.416   .     A
C547   C550    1.460   .     S
C547   C14     1.355   1_565 S
C547   C27     1.487   1_565 S
C548   C549    1.430   .     S
C549   O612    1.276   .     A
C549   O618    1.268   .     A
C550   O619    1.272   .     A
C550   O613    1.265   .     A
C551   C554    1.473   .     S
C551   O610    1.276   .     A
C551   O608    1.281   .     A
C552   O609    1.288   .     A
C552   C553    1.489   .     S
C552   O611    1.297   .     A
C553   C557    1.393   .     A
C555   C572    1.453   .     S
C555   C579    1.431   .     A
C556   N597    1.157   .     T
C556   C584    1.446   .     S
C557   H585    1.081   .     S
C557   C568    1.405   .     A
C558   N1400   1.158   1_554 S
C559   N600    1.157   .     T
C559   C722    1.452   1_455 S
C560   N601    1.158   .     T
C560   C634    1.451   .     S
C561   C566    1.405   .     A
C561   C562    1.404   .     A
C562   C563    1.398   .     A
C563   C564    1.398   .     A
C563   H591    1.082   .     S
C564   C565    1.397   .     A
C564   H681    1.082   .     S
C565   H593    1.081   .     S
C565   C566    1.399   .     A
C566   H594    1.083   .     S
C567   N602    1.157   .     T
C567   C14     1.451   1_565 S
C568   C579    1.428   .     A
C568   C581    1.431   .     A
C569   N603    1.157   .     T
C570   N604    1.157   .     T
C571   N605    1.158   .     T
C572   N784    1.158   1_455 S
C573   C574    1.404   .     A
C573   C578    1.404   .     A
C574   H595    1.083   .     S
C574   C575    1.398   .     A
C575   C576    1.398   .     A
C575   H596    1.082   .     S
C576   C577    1.398   .     A
C576   H764    1.082   1_455 S
C577   C578    1.398   .     A
C577   H765    1.081   1_455 S
C578   H588    1.083   .     S
C579   C1385   1.425   .     S
C580   N598    1.158   .     T
C581   C1383   1.406   .     S
C582   C583    1.404   .     A
C582   C1382   1.406   1_554 S
C583   H589    1.083   .     S
C583   C584    1.392   .     A
C584   C1380   1.425   1_554 S
H586   C665    1.082   .     S
H587   C666    1.081   .     S
H590   C28     1.083   1_565 S
H592   C742    1.082   1_455 S
N599   C1359   1.158   .     S
N606   C661    1.158   .     S
O607   Zn621   1.940   .     S
O607   Zn622   1.931   .     S
O607   Zn623   1.935   .     S
O607   Zn620   1.962   .     S
O608   Zn621   1.908   .     S
O609   Zn623   1.919   .     S
O610   Zn622   1.913   .     S
O611   Zn620   1.905   .     S
O612   Zn620   1.939   .     S
O613   Zn623   1.942   .     S
O614   Zn621   1.938   .     S
O615   Zn622   1.948   .     S
O616   Zn623   1.940   .     S
O617   Zn620   1.932   .     S
O618   Zn621   1.950   .     S
O619   Zn622   1.944   .     S
C624   C634    1.430   .     S
C624   O705    1.265   .     A
C624   O703    1.263   .     A
C625   C669    1.456   .     S
C625   C670    1.421   .     A
C625   C626    1.413   .     A
C626   C660    1.454   .     S
C626   C1429   1.428   .     S
C627   O704    1.286   .     A
C627   C633    1.461   .     S
C627   O706    1.271   .     A
C628   C629    1.429   .     A
C628   C630    1.433   .     A
C628   C1427   1.428   1_554 S
C629   C632    1.424   .     A
C629   C671    1.426   .     A
C630   C631    1.409   .     A
C630   C647    1.453   .     S
C631   C643    1.401   .     A
C631   C659    1.452   .     S
C632   C643    1.398   .     A
C632   C658    1.454   .     S
C633   C723    1.358   .     S
C633   C737    1.452   .     S
C635   C644    1.416   .     A
C635   C662    1.485   .     S
C635   C642    1.416   .     A
C636   C639    1.460   .     S
C636   C103    1.355   1_565 S
C636   C116    1.487   1_565 S
C637   C638    1.430   .     S
C638   O701    1.276   .     A
C638   O707    1.268   .     A
C639   O708    1.272   .     A
C639   O702    1.265   .     A
C640   C643    1.473   .     S
C640   O699    1.276   .     A
C640   O697    1.281   .     A
C641   O698    1.288   .     A
C641   C642    1.489   .     S
C641   O700    1.297   .     A
C642   C646    1.393   .     A
C644   C661    1.453   .     S
C644   C668    1.431   .     A
C645   N686    1.157   .     T
C645   C673    1.446   .     S
C646   H674    1.081   .     S
C646   C657    1.405   .     A
C647   N1489   1.158   1_554 S
C648   N689    1.157   .     T
C649   N690    1.158   .     T
C649   C723    1.451   .     S
C650   C655    1.405   .     A
C650   C651    1.404   .     A
C651   C652    1.398   .     A
C652   C653    1.398   .     A
C652   H680    1.082   .     S
C653   C654    1.397   .     A
C653   H770    1.082   .     S
C654   H682    1.081   .     S
C654   C655    1.399   .     A
C655   H683    1.083   .     S
C656   N691    1.157   .     T
C656   C103    1.451   1_565 S
C657   C668    1.428   .     A
C657   C670    1.431   .     A
C658   N692    1.157   .     T
C659   N693    1.157   .     T
C660   N694    1.158   .     T
C662   C663    1.404   .     A
C662   C667    1.404   .     A
C663   H684    1.083   .     S
C663   C664    1.398   .     A
C664   C665    1.398   .     A
C664   H685    1.082   .     S
C665   C666    1.398   .     A
C666   C667    1.398   .     A
C667   H677    1.083   .     S
C668   C1474   1.425   .     S
C669   N687    1.158   .     T
C670   C1472   1.406   .     S
C671   C672    1.404   .     A
C671   C1471   1.406   1_554 S
C672   H678    1.083   .     S
C672   C673    1.392   .     A
C673   C1469   1.425   1_554 S
H675   C754    1.082   .     S
H676   C755    1.081   .     S
H679   C117    1.083   1_565 S
N688   C1448   1.158   .     S
N695   C750    1.158   .     S
O696   Zn710   1.940   .     S
O696   Zn711   1.931   .     S
O696   Zn712   1.935   .     S
O696   Zn709   1.962   .     S
O697   Zn710   1.908   .     S
O698   Zn712   1.919   .     S
O699   Zn711   1.913   .     S
O700   Zn709   1.905   .     S
O701   Zn709   1.939   .     S
O702   Zn712   1.942   .     S
O703   Zn710   1.938   .     S
O704   Zn711   1.948   .     S
O705   Zn712   1.940   .     S
O706   Zn709   1.932   .     S
O707   Zn710   1.950   .     S
O708   Zn711   1.944   .     S
C713   C723    1.430   .     S
C713   O794    1.265   .     A
C713   O792    1.263   .     A
C714   C758    1.456   .     S
C714   C759    1.421   .     A
C714   C715    1.413   .     A
C715   C749    1.454   .     S
C715   C1518   1.428   .     S
C716   O793    1.286   .     A
C716   C722    1.461   .     S
C716   O795    1.271   .     A
C717   C718    1.429   .     A
C717   C719    1.433   .     A
C717   C1516   1.428   1_554 S
C718   C721    1.424   .     A
C718   C760    1.426   .     A
C719   C720    1.409   .     A
C719   C736    1.453   .     S
C720   C732    1.401   .     A
C720   C748    1.452   .     S
C721   C732    1.398   .     A
C721   C747    1.454   .     S
C722   C545    1.358   1_655 S
C722   C559    1.452   1_655 S
C724   C733    1.416   .     A
C724   C751    1.485   .     S
C724   C731    1.416   .     A
C725   C728    1.460   .     S
C725   C192    1.355   1_565 S
C725   C205    1.487   1_565 S
C726   C727    1.430   .     S
C727   O790    1.276   .     A
C727   O796    1.268   .     A
C728   O797    1.272   .     A
C728   O791    1.265   .     A
C729   C732    1.473   .     S
C729   O788    1.276   .     A
C729   O786    1.281   .     A
C730   O787    1.288   .     A
C730   C731    1.489   .     S
C730   O789    1.297   .     A
C731   C735    1.393   .     A
C733   C750    1.453   .     S
C733   C757    1.431   .     A
C734   N775    1.157   .     T
C734   C762    1.446   .     S
C735   H763    1.081   .     S
C735   C746    1.405   .     A
C736   N1578   1.158   1_554 S
C737   N778    1.157   .     T
C738   N779    1.158   .     T
C738   C545    1.451   1_655 S
C739   C744    1.405   .     A
C739   C740    1.404   .     A
C740   C741    1.398   .     A
C741   C742    1.398   .     A
C741   H769    1.082   .     S
C742   C743    1.397   .     A
C742   H592    1.082   1_655 S
C743   H771    1.081   .     S
C743   C744    1.399   .     A
C744   H772    1.083   .     S
C745   N780    1.157   .     T
C745   C192    1.451   1_565 S
C746   C757    1.428   .     A
C746   C759    1.431   .     A
C747   N781    1.157   .     T
C748   N782    1.157   .     T
C749   N783    1.158   .     T
C751   C752    1.404   .     A
C751   C756    1.404   .     A
C752   H773    1.083   .     S
C752   C753    1.398   .     A
C753   C754    1.398   .     A
C753   H774    1.082   .     S
C754   C755    1.398   .     A
C755   C756    1.398   .     A
C756   H766    1.083   .     S
C757   C1563   1.425   .     S
C758   N776    1.158   .     T
C759   C1561   1.406   .     S
C760   C761    1.404   .     A
C760   C1560   1.406   1_554 S
C761   H767    1.083   .     S
C761   C762    1.392   .     A
C762   C1558   1.425   1_554 S
H764   C576    1.082   1_655 S
H765   C577    1.081   1_655 S
H768   C206    1.083   1_565 S
N777   C1537   1.158   .     S
N784   C572    1.158   1_655 S
O785   Zn799   1.940   .     S
O785   Zn800   1.931   .     S
O785   Zn801   1.935   .     S
O785   Zn798   1.962   .     S
O786   Zn799   1.908   .     S
O787   Zn801   1.919   .     S
O788   Zn800   1.913   .     S
O789   Zn798   1.905   .     S
O790   Zn798   1.939   .     S
O791   Zn801   1.942   .     S
O792   Zn799   1.938   .     S
O793   Zn800   1.948   .     S
O794   Zn801   1.940   .     S
O795   Zn798   1.932   .     S
O796   Zn799   1.950   .     S
O797   Zn800   1.944   .     S
C802   C812    1.430   .     S
C802   O883    1.265   .     A
C802   O881    1.263   .     A
C803   C847    1.456   .     S
C803   C848    1.421   .     A
C803   C804    1.413   .     A
C804   C838    1.454   .     S
C804   C5      1.428   1_556 S
C805   O882    1.286   .     A
C805   C811    1.461   .     S
C805   O884    1.271   .     A
C806   C807    1.429   .     A
C806   C808    1.433   .     A
C807   C810    1.424   .     A
C807   C849    1.426   .     A
C808   C809    1.409   .     A
C808   C825    1.453   .     S
C809   C821    1.401   .     A
C809   C837    1.452   .     S
C810   C821    1.398   .     A
C810   C836    1.454   .     S
C811   C901    1.358   .     S
C811   C915    1.452   .     S
C812   C989    1.358   1_455 S
C812   C1005   1.451   1_455 S
C813   C822    1.416   .     A
C813   C840    1.485   .     S
C813   C820    1.416   .     A
C814   C817    1.460   .     S
C814   C1082   1.355   .     S
C814   C1095   1.487   .     S
C815   C816    1.430   .     S
C815   C1348   1.355   1_545 S
C815   C1368   1.451   1_545 S
C816   O879    1.276   .     A
C816   O885    1.268   .     A
C817   O886    1.272   .     A
C817   O880    1.265   .     A
C818   C821    1.473   .     S
C818   O877    1.276   .     A
C818   O875    1.281   .     A
C819   O876    1.288   .     A
C819   C820    1.489   .     S
C819   O878    1.297   .     A
C820   C824    1.393   .     A
C822   C839    1.453   .     S
C822   C846    1.431   .     A
C823   N864    1.157   .     T
C823   C851    1.446   .     S
C824   H852    1.081   .     S
C824   C835    1.405   .     A
C826   N867    1.157   .     T
C826   C989    1.452   1_455 S
C827   N868    1.158   .     T
C827   C901    1.451   .     S
C828   C833    1.405   .     A
C828   C829    1.404   .     A
C828   C1348   1.487   1_545 S
C829   C830    1.398   .     A
C829   H1391   1.083   1_545 S
C830   C831    1.398   .     A
C830   H858    1.082   .     S
C831   C832    1.397   .     A
C831   H948    1.082   .     S
C832   H860    1.081   .     S
C832   C833    1.399   .     A
C833   H861    1.083   .     S
C834   N869    1.157   .     T
C834   C1082   1.451   .     S
C835   C846    1.428   .     A
C835   C848    1.431   .     A
C836   N870    1.157   .     T
C837   N871    1.157   .     T
C838   N872    1.158   .     T
C839   N1051   1.158   1_455 S
C840   C841    1.404   .     A
C840   C845    1.404   .     A
C841   H862    1.083   .     S
C841   C842    1.398   .     A
C842   C843    1.398   .     A
C842   H863    1.082   .     S
C843   C844    1.398   .     A
C843   H1031   1.082   1_455 S
C844   C845    1.398   .     A
C844   H1032   1.081   1_455 S
C845   H855    1.083   .     S
C846   C50     1.425   1_556 S
C847   N865    1.158   .     T
C848   C48     1.406   1_556 S
C849   C850    1.404   .     A
C850   H856    1.083   .     S
C850   C851    1.392   .     A
H853   C932    1.082   .     S
H854   C933    1.081   .     S
H857   C1096   1.083   .     S
H859   C1009   1.082   1_455 S
N866   C24     1.158   1_556 S
N873   C928    1.158   .     S
O874   Zn888   1.940   .     S
O874   Zn889   1.931   .     S
O874   Zn890   1.935   .     S
O874   Zn887   1.962   .     S
O875   Zn888   1.908   .     S
O876   Zn890   1.919   .     S
O877   Zn889   1.913   .     S
O878   Zn887   1.905   .     S
O879   Zn887   1.939   .     S
O880   Zn890   1.942   .     S
O881   Zn888   1.938   .     S
O882   Zn889   1.948   .     S
O883   Zn890   1.940   .     S
O884   Zn887   1.932   .     S
O885   Zn888   1.950   .     S
O886   Zn889   1.944   .     S
C891   C901    1.430   .     S
C891   O972    1.265   .     A
C891   O970    1.263   .     A
C892   C936    1.456   .     S
C892   C937    1.421   .     A
C892   C893    1.413   .     A
C893   C927    1.454   .     S
C893   C94     1.428   1_556 S
C894   O971    1.286   .     A
C894   C900    1.461   .     S
C894   O973    1.271   .     A
C895   C896    1.429   .     A
C895   C897    1.433   .     A
C896   C899    1.424   .     A
C896   C938    1.426   .     A
C897   C898    1.409   .     A
C897   C914    1.453   .     S
C898   C910    1.401   .     A
C898   C926    1.452   .     S
C899   C910    1.398   .     A
C899   C925    1.454   .     S
C900   C990    1.358   .     S
C900   C1004   1.452   .     S
C902   C911    1.416   .     A
C902   C929    1.485   .     S
C902   C909    1.416   .     A
C903   C906    1.460   .     S
C903   C1171   1.355   .     S
C903   C1184   1.487   .     S
C904   C905    1.430   .     S
C904   C1437   1.355   1_545 S
C904   C1457   1.451   1_545 S
C905   O968    1.276   .     A
C905   O974    1.268   .     A
C906   O975    1.272   .     A
C906   O969    1.265   .     A
C907   C910    1.473   .     S
C907   O966    1.276   .     A
C907   O964    1.281   .     A
C908   O965    1.288   .     A
C908   C909    1.489   .     S
C908   O967    1.297   .     A
C909   C913    1.393   .     A
C911   C928    1.453   .     S
C911   C935    1.431   .     A
C912   N953    1.157   .     T
C912   C940    1.446   .     S
C913   H941    1.081   .     S
C913   C924    1.405   .     A
C915   N956    1.157   .     T
C916   N957    1.158   .     T
C916   C990    1.451   .     S
C917   C922    1.405   .     A
C917   C918    1.404   .     A
C917   C1437   1.487   1_545 S
C918   C919    1.398   .     A
C918   H1480   1.083   1_545 S
C919   C920    1.398   .     A
C919   H947    1.082   .     S
C920   C921    1.397   .     A
C920   H1037   1.082   .     S
C921   H949    1.081   .     S
C921   C922    1.399   .     A
C922   H950    1.083   .     S
C923   N958    1.157   .     T
C923   C1171   1.451   .     S
C924   C935    1.428   .     A
C924   C937    1.431   .     A
C925   N959    1.157   .     T
C926   N960    1.157   .     T
C927   N961    1.158   .     T
C929   C930    1.404   .     A
C929   C934    1.404   .     A
C930   H951    1.083   .     S
C930   C931    1.398   .     A
C931   C932    1.398   .     A
C931   H952    1.082   .     S
C932   C933    1.398   .     A
C933   C934    1.398   .     A
C934   H944    1.083   .     S
C935   C139    1.425   1_556 S
C936   N954    1.158   .     T
C937   C137    1.406   1_556 S
C938   C939    1.404   .     A
C939   H945    1.083   .     S
C939   C940    1.392   .     A
H942   C1021   1.082   .     S
H943   C1022   1.081   .     S
H946   C1185   1.083   .     S
N955   C113    1.158   1_556 S
N962   C1017   1.158   .     S
O963   Zn977   1.940   .     S
O963   Zn978   1.931   .     S
O963   Zn979   1.935   .     S
O963   Zn976   1.962   .     S
O964   Zn977   1.908   .     S
O965   Zn979   1.919   .     S
O966   Zn978   1.913   .     S
O967   Zn976   1.905   .     S
O968   Zn976   1.939   .     S
O969   Zn979   1.942   .     S
O970   Zn977   1.938   .     S
O971   Zn978   1.948   .     S
O972   Zn979   1.940   .     S
O973   Zn976   1.932   .     S
O974   Zn977   1.950   .     S
O975   Zn978   1.944   .     S
C980   C990    1.430   .     S
C980   O1061   1.265   .     A
C980   O1059   1.263   .     A
C981   C1025   1.456   .     S
C981   C1026   1.421   .     A
C981   C982    1.413   .     A
C982   C1016   1.454   .     S
C982   C183    1.428   1_556 S
C983   O1060   1.286   .     A
C983   C989    1.461   .     S
C983   O1062   1.271   .     A
C984   C985    1.429   .     A
C984   C986    1.433   .     A
C985   C988    1.424   .     A
C985   C1027   1.426   .     A
C986   C987    1.409   .     A
C986   C1003   1.453   .     S
C987   C999    1.401   .     A
C987   C1015   1.452   .     S
C988   C999    1.398   .     A
C988   C1014   1.454   .     S
C989   C812    1.358   1_655 S
C989   C826    1.452   1_655 S
C991   C1000   1.416   .     A
C991   C1018   1.485   .     S
C991   C998    1.416   .     A
C992   C995    1.460   .     S
C992   C1260   1.355   .     S
C992   C1273   1.487   .     S
C993   C994    1.430   .     S
C993   C1526   1.355   1_545 S
C993   C1546   1.451   1_545 S
C994   O1057   1.276   .     A
C994   O1063   1.268   .     A
C995   O1064   1.272   .     A
C995   O1058   1.265   .     A
C996   C999    1.473   .     S
C996   O1055   1.276   .     A
C996   O1053   1.281   .     A
C997   O1054   1.288   .     A
C997   C998    1.489   .     S
C997   O1056   1.297   .     A
C998   C1002   1.393   .     A
C1000  C1017   1.453   .     S
C1000  C1024   1.431   .     A
C1001  N1042   1.157   .     T
C1001  C1029   1.446   .     S
C1002  H1030   1.081   .     S
C1002  C1013   1.405   .     A
C1004  N1045   1.157   .     T
C1005  N1046   1.158   .     T
C1005  C812    1.451   1_655 S
C1006  C1011   1.405   .     A
C1006  C1007   1.404   .     A
C1006  C1526   1.487   1_545 S
C1007  C1008   1.398   .     A
C1007  H1569   1.083   1_545 S
C1008  C1009   1.398   .     A
C1008  H1036   1.082   .     S
C1009  C1010   1.397   .     A
C1009  H859    1.082   1_655 S
C1010  H1038   1.081   .     S
C1010  C1011   1.399   .     A
C1011  H1039   1.083   .     S
C1012  N1047   1.157   .     T
C1012  C1260   1.451   .     S
C1013  C1024   1.428   .     A
C1013  C1026   1.431   .     A
C1014  N1048   1.157   .     T
C1015  N1049   1.157   .     T
C1016  N1050   1.158   .     T
C1018  C1019   1.404   .     A
C1018  C1023   1.404   .     A
C1019  H1040   1.083   .     S
C1019  C1020   1.398   .     A
C1020  C1021   1.398   .     A
C1020  H1041   1.082   .     S
C1021  C1022   1.398   .     A
C1022  C1023   1.398   .     A
C1023  H1033   1.083   .     S
C1024  C228    1.425   1_556 S
C1025  N1043   1.158   .     T
C1026  C226    1.406   1_556 S
C1027  C1028   1.404   .     A
C1028  H1034   1.083   .     S
C1028  C1029   1.392   .     A
H1031  C843    1.082   1_655 S
H1032  C844    1.081   1_655 S
H1035  C1274   1.083   .     S
N1044  C202    1.158   1_556 S
N1051  C839    1.158   1_655 S
O1052  Zn1066  1.940   .     S
O1052  Zn1067  1.931   .     S
O1052  Zn1068  1.935   .     S
O1052  Zn1065  1.962   .     S
O1053  Zn1066  1.908   .     S
O1054  Zn1068  1.919   .     S
O1055  Zn1067  1.913   .     S
O1056  Zn1065  1.905   .     S
O1057  Zn1065  1.939   .     S
O1058  Zn1068  1.942   .     S
O1059  Zn1066  1.938   .     S
O1060  Zn1067  1.948   .     S
O1061  Zn1068  1.940   .     S
O1062  Zn1065  1.932   .     S
O1063  Zn1066  1.950   .     S
O1064  Zn1067  1.944   .     S
C1069  C1079   1.430   .     S
C1069  O1150   1.265   .     A
C1069  O1148   1.263   .     A
C1070  C1114   1.456   .     S
C1070  C1115   1.421   .     A
C1070  C1071   1.413   .     A
C1071  C1105   1.454   .     S
C1071  C272    1.428   1_556 S
C1072  O1149   1.286   .     A
C1072  C1078   1.461   .     S
C1072  O1151   1.271   .     A
C1073  C1074   1.429   .     A
C1073  C1075   1.433   .     A
C1074  C1077   1.424   .     A
C1074  C1116   1.426   .     A
C1075  C1076   1.409   .     A
C1075  C1092   1.453   .     S
C1076  C1088   1.401   .     A
C1076  C1104   1.452   .     S
C1077  C1088   1.398   .     A
C1077  C1103   1.454   .     S
C1078  C1168   1.358   .     S
C1078  C1182   1.452   .     S
C1079  C1256   1.358   1_455 S
C1079  C1272   1.451   1_455 S
C1080  C1089   1.416   .     A
C1080  C1107   1.485   .     S
C1080  C1087   1.416   .     A
C1081  C1084   1.460   .     S
C1081  C1349   1.355   .     S
C1081  C1362   1.487   .     S
C1082  C1083   1.430   .     S
C1083  O1146   1.276   .     A
C1083  O1152   1.268   .     A
C1084  O1153   1.272   .     A
C1084  O1147   1.265   .     A
C1085  C1088   1.473   .     S
C1085  O1144   1.276   .     A
C1085  O1142   1.281   .     A
C1086  O1143   1.288   .     A
C1086  C1087   1.489   .     S
C1086  O1145   1.297   .     A
C1087  C1091   1.393   .     A
C1089  C1106   1.453   .     S
C1089  C1113   1.431   .     A
C1090  N1131   1.157   .     T
C1090  C1118   1.446   .     S
C1091  H1119   1.081   .     S
C1091  C1102   1.405   .     A
C1093  N1134   1.157   .     T
C1093  C1256   1.452   1_455 S
C1094  N1135   1.158   .     T
C1094  C1168   1.451   .     S
C1095  C1100   1.405   .     A
C1095  C1096   1.404   .     A
C1096  C1097   1.398   .     A
C1097  C1098   1.398   .     A
C1097  H1125   1.082   .     S
C1098  C1099   1.397   .     A
C1098  H1215   1.082   .     S
C1099  H1127   1.081   .     S
C1099  C1100   1.399   .     A
C1100  H1128   1.083   .     S
C1101  N1136   1.157   .     T
C1101  C1349   1.451   .     S
C1102  C1113   1.428   .     A
C1102  C1115   1.431   .     A
C1103  N1137   1.157   .     T
C1104  N1138   1.157   .     T
C1105  N1139   1.158   .     T
C1106  N1318   1.158   1_455 S
C1107  C1108   1.404   .     A
C1107  C1112   1.404   .     A
C1108  H1129   1.083   .     S
C1108  C1109   1.398   .     A
C1109  C1110   1.398   .     A
C1109  H1130   1.082   .     S
C1110  C1111   1.398   .     A
C1110  H1298   1.082   1_455 S
C1111  C1112   1.398   .     A
C1111  H1299   1.081   1_455 S
C1112  H1122   1.083   .     S
C1113  C317    1.425   1_556 S
C1114  N1132   1.158   .     T
C1115  C315    1.406   1_556 S
C1116  C1117   1.404   .     A
C1117  H1123   1.083   .     S
C1117  C1118   1.392   .     A
H1120  C1199   1.082   .     S
H1121  C1200   1.081   .     S
H1124  C1363   1.083   .     S
H1126  C1276   1.082   1_455 S
N1133  C291    1.158   1_556 S
N1140  C1195   1.158   .     S
O1141  Zn1155  1.940   .     S
O1141  Zn1156  1.931   .     S
O1141  Zn1157  1.935   .     S
O1141  Zn1154  1.962   .     S
O1142  Zn1155  1.908   .     S
O1143  Zn1157  1.919   .     S
O1144  Zn1156  1.913   .     S
O1145  Zn1154  1.905   .     S
O1146  Zn1154  1.939   .     S
O1147  Zn1157  1.942   .     S
O1148  Zn1155  1.938   .     S
O1149  Zn1156  1.948   .     S
O1150  Zn1157  1.940   .     S
O1151  Zn1154  1.932   .     S
O1152  Zn1155  1.950   .     S
O1153  Zn1156  1.944   .     S
C1158  C1168   1.430   .     S
C1158  O1239   1.265   .     A
C1158  O1237   1.263   .     A
C1159  C1203   1.456   .     S
C1159  C1204   1.421   .     A
C1159  C1160   1.413   .     A
C1160  C1194   1.454   .     S
C1160  C361    1.428   1_556 S
C1161  O1238   1.286   .     A
C1161  C1167   1.461   .     S
C1161  O1240   1.271   .     A
C1162  C1163   1.429   .     A
C1162  C1164   1.433   .     A
C1163  C1166   1.424   .     A
C1163  C1205   1.426   .     A
C1164  C1165   1.409   .     A
C1164  C1181   1.453   .     S
C1165  C1177   1.401   .     A
C1165  C1193   1.452   .     S
C1166  C1177   1.398   .     A
C1166  C1192   1.454   .     S
C1167  C1257   1.358   .     S
C1167  C1271   1.452   .     S
C1169  C1178   1.416   .     A
C1169  C1196   1.485   .     S
C1169  C1176   1.416   .     A
C1170  C1173   1.460   .     S
C1170  C1438   1.355   .     S
C1170  C1451   1.487   .     S
C1171  C1172   1.430   .     S
C1172  O1235   1.276   .     A
C1172  O1241   1.268   .     A
C1173  O1242   1.272   .     A
C1173  O1236   1.265   .     A
C1174  C1177   1.473   .     S
C1174  O1233   1.276   .     A
C1174  O1231   1.281   .     A
C1175  O1232   1.288   .     A
C1175  C1176   1.489   .     S
C1175  O1234   1.297   .     A
C1176  C1180   1.393   .     A
C1178  C1195   1.453   .     S
C1178  C1202   1.431   .     A
C1179  N1220   1.157   .     T
C1179  C1207   1.446   .     S
C1180  H1208   1.081   .     S
C1180  C1191   1.405   .     A
C1182  N1223   1.157   .     T
C1183  N1224   1.158   .     T
C1183  C1257   1.451   .     S
C1184  C1189   1.405   .     A
C1184  C1185   1.404   .     A
C1185  C1186   1.398   .     A
C1186  C1187   1.398   .     A
C1186  H1214   1.082   .     S
C1187  C1188   1.397   .     A
C1187  H1304   1.082   .     S
C1188  H1216   1.081   .     S
C1188  C1189   1.399   .     A
C1189  H1217   1.083   .     S
C1190  N1225   1.157   .     T
C1190  C1438   1.451   .     S
C1191  C1202   1.428   .     A
C1191  C1204   1.431   .     A
C1192  N1226   1.157   .     T
C1193  N1227   1.157   .     T
C1194  N1228   1.158   .     T
C1196  C1197   1.404   .     A
C1196  C1201   1.404   .     A
C1197  H1218   1.083   .     S
C1197  C1198   1.398   .     A
C1198  C1199   1.398   .     A
C1198  H1219   1.082   .     S
C1199  C1200   1.398   .     A
C1200  C1201   1.398   .     A
C1201  H1211   1.083   .     S
C1202  C406    1.425   1_556 S
C1203  N1221   1.158   .     T
C1204  C404    1.406   1_556 S
C1205  C1206   1.404   .     A
C1206  H1212   1.083   .     S
C1206  C1207   1.392   .     A
H1209  C1288   1.082   .     S
H1210  C1289   1.081   .     S
H1213  C1452   1.083   .     S
N1222  C380    1.158   1_556 S
N1229  C1284   1.158   .     S
O1230  Zn1244  1.940   .     S
O1230  Zn1245  1.931   .     S
O1230  Zn1246  1.935   .     S
O1230  Zn1243  1.962   .     S
O1231  Zn1244  1.908   .     S
O1232  Zn1246  1.919   .     S
O1233  Zn1245  1.913   .     S
O1234  Zn1243  1.905   .     S
O1235  Zn1243  1.939   .     S
O1236  Zn1246  1.942   .     S
O1237  Zn1244  1.938   .     S
O1238  Zn1245  1.948   .     S
O1239  Zn1246  1.940   .     S
O1240  Zn1243  1.932   .     S
O1241  Zn1244  1.950   .     S
O1242  Zn1245  1.944   .     S
C1247  C1257   1.430   .     S
C1247  O1328   1.265   .     A
C1247  O1326   1.263   .     A
C1248  C1292   1.456   .     S
C1248  C1293   1.421   .     A
C1248  C1249   1.413   .     A
C1249  C1283   1.454   .     S
C1249  C450    1.428   1_556 S
C1250  O1327   1.286   .     A
C1250  C1256   1.461   .     S
C1250  O1329   1.271   .     A
C1251  C1252   1.429   .     A
C1251  C1253   1.433   .     A
C1252  C1255   1.424   .     A
C1252  C1294   1.426   .     A
C1253  C1254   1.409   .     A
C1253  C1270   1.453   .     S
C1254  C1266   1.401   .     A
C1254  C1282   1.452   .     S
C1255  C1266   1.398   .     A
C1255  C1281   1.454   .     S
C1256  C1079   1.358   1_655 S
C1256  C1093   1.452   1_655 S
C1258  C1267   1.416   .     A
C1258  C1285   1.485   .     S
C1258  C1265   1.416   .     A
C1259  C1262   1.460   .     S
C1259  C1527   1.355   .     S
C1259  C1540   1.487   .     S
C1260  C1261   1.430   .     S
C1261  O1324   1.276   .     A
C1261  O1330   1.268   .     A
C1262  O1331   1.272   .     A
C1262  O1325   1.265   .     A
C1263  C1266   1.473   .     S
C1263  O1322   1.276   .     A
C1263  O1320   1.281   .     A
C1264  O1321   1.288   .     A
C1264  C1265   1.489   .     S
C1264  O1323   1.297   .     A
C1265  C1269   1.393   .     A
C1267  C1284   1.453   .     S
C1267  C1291   1.431   .     A
C1268  N1309   1.157   .     T
C1268  C1296   1.446   .     S
C1269  H1297   1.081   .     S
C1269  C1280   1.405   .     A
C1271  N1312   1.157   .     T
C1272  N1313   1.158   .     T
C1272  C1079   1.451   1_655 S
C1273  C1278   1.405   .     A
C1273  C1274   1.404   .     A
C1274  C1275   1.398   .     A
C1275  C1276   1.398   .     A
C1275  H1303   1.082   .     S
C1276  C1277   1.397   .     A
C1276  H1126   1.082   1_655 S
C1277  H1305   1.081   .     S
C1277  C1278   1.399   .     A
C1278  H1306   1.083   .     S
C1279  N1314   1.157   .     T
C1279  C1527   1.451   .     S
C1280  C1291   1.428   .     A
C1280  C1293   1.431   .     A
C1281  N1315   1.157   .     T
C1282  N1316   1.157   .     T
C1283  N1317   1.158   .     T
C1285  C1286   1.404   .     A
C1285  C1290   1.404   .     A
C1286  H1307   1.083   .     S
C1286  C1287   1.398   .     A
C1287  C1288   1.398   .     A
C1287  H1308   1.082   .     S
C1288  C1289   1.398   .     A
C1289  C1290   1.398   .     A
C1290  H1300   1.083   .     S
C1291  C495    1.425   1_556 S
C1292  N1310   1.158   .     T
C1293  C493    1.406   1_556 S
C1294  C1295   1.404   .     A
C1295  H1301   1.083   .     S
C1295  C1296   1.392   .     A
H1298  C1110   1.082   1_655 S
H1299  C1111   1.081   1_655 S
H1302  C1541   1.083   .     S
N1311  C469    1.158   1_556 S
N1318  C1106   1.158   1_655 S
O1319  Zn1333  1.940   .     S
O1319  Zn1334  1.931   .     S
O1319  Zn1335  1.935   .     S
O1319  Zn1332  1.962   .     S
O1320  Zn1333  1.908   .     S
O1321  Zn1335  1.919   .     S
O1322  Zn1334  1.913   .     S
O1323  Zn1332  1.905   .     S
O1324  Zn1332  1.939   .     S
O1325  Zn1335  1.942   .     S
O1326  Zn1333  1.938   .     S
O1327  Zn1334  1.948   .     S
O1328  Zn1335  1.940   .     S
O1329  Zn1332  1.932   .     S
O1330  Zn1333  1.950   .     S
O1331  Zn1334  1.944   .     S
C1336  C1346   1.430   .     S
C1336  O1417   1.265   .     A
C1336  O1415   1.263   .     A
C1337  C1381   1.456   .     S
C1337  C1382   1.421   .     A
C1337  C1338   1.413   .     A
C1338  C1372   1.454   .     S
C1338  C539    1.428   1_556 S
C1339  O1416   1.286   .     A
C1339  C1345   1.461   .     S
C1339  O1418   1.271   .     A
C1340  C1341   1.429   .     A
C1340  C1342   1.433   .     A
C1341  C1344   1.424   .     A
C1341  C1383   1.426   .     A
C1342  C1343   1.409   .     A
C1342  C1359   1.453   .     S
C1343  C1355   1.401   .     A
C1343  C1371   1.452   .     S
C1344  C1355   1.398   .     A
C1344  C1370   1.454   .     S
C1345  C1435   1.358   .     S
C1345  C1449   1.452   .     S
C1346  C1523   1.358   1_455 S
C1346  C1539   1.451   1_455 S
C1347  C1356   1.416   .     A
C1347  C1374   1.485   .     S
C1347  C1354   1.416   .     A
C1348  C1351   1.460   .     S
C1348  C815    1.355   1_565 S
C1348  C828    1.487   1_565 S
C1349  C1350   1.430   .     S
C1350  O1413   1.276   .     A
C1350  O1419   1.268   .     A
C1351  O1420   1.272   .     A
C1351  O1414   1.265   .     A
C1352  C1355   1.473   .     S
C1352  O1411   1.276   .     A
C1352  O1409   1.281   .     A
C1353  O1410   1.288   .     A
C1353  C1354   1.489   .     S
C1353  O1412   1.297   .     A
C1354  C1358   1.393   .     A
C1356  C1373   1.453   .     S
C1356  C1380   1.431   .     A
C1357  N1398   1.157   .     T
C1357  C1385   1.446   .     S
C1358  H1386   1.081   .     S
C1358  C1369   1.405   .     A
C1360  N1401   1.157   .     T
C1360  C1523   1.452   1_455 S
C1361  N1402   1.158   .     T
C1361  C1435   1.451   .     S
C1362  C1367   1.405   .     A
C1362  C1363   1.404   .     A
C1363  C1364   1.398   .     A
C1364  C1365   1.398   .     A
C1364  H1392   1.082   .     S
C1365  C1366   1.397   .     A
C1365  H1482   1.082   .     S
C1366  H1394   1.081   .     S
C1366  C1367   1.399   .     A
C1367  H1395   1.083   .     S
C1368  N1403   1.157   .     T
C1368  C815    1.451   1_565 S
C1369  C1380   1.428   .     A
C1369  C1382   1.431   .     A
C1370  N1404   1.157   .     T
C1371  N1405   1.157   .     T
C1372  N1406   1.158   .     T
C1373  N1585   1.158   1_455 S
C1374  C1375   1.404   .     A
C1374  C1379   1.404   .     A
C1375  H1396   1.083   .     S
C1375  C1376   1.398   .     A
C1376  C1377   1.398   .     A
C1376  H1397   1.082   .     S
C1377  C1378   1.398   .     A
C1377  H1565   1.082   1_455 S
C1378  C1379   1.398   .     A
C1378  H1566   1.081   1_455 S
C1379  H1389   1.083   .     S
C1380  C584    1.425   1_556 S
C1381  N1399   1.158   .     T
C1382  C582    1.406   1_556 S
C1383  C1384   1.404   .     A
C1384  H1390   1.083   .     S
C1384  C1385   1.392   .     A
H1387  C1466   1.082   .     S
H1388  C1467   1.081   .     S
H1391  C829    1.083   1_565 S
H1393  C1543   1.082   1_455 S
N1400  C558    1.158   1_556 S
N1407  C1462   1.158   .     S
O1408  Zn1422  1.940   .     S
O1408  Zn1423  1.931   .     S
O1408  Zn1424  1.935   .     S
O1408  Zn1421  1.962   .     S
O1409  Zn1422  1.908   .     S
O1410  Zn1424  1.919   .     S
O1411  Zn1423  1.913   .     S
O1412  Zn1421  1.905   .     S
O1413  Zn1421  1.939   .     S
O1414  Zn1424  1.942   .     S
O1415  Zn1422  1.938   .     S
O1416  Zn1423  1.948   .     S
O1417  Zn1424  1.940   .     S
O1418  Zn1421  1.932   .     S
O1419  Zn1422  1.950   .     S
O1420  Zn1423  1.944   .     S
C1425  C1435   1.430   .     S
C1425  O1506   1.265   .     A
C1425  O1504   1.263   .     A
C1426  C1470   1.456   .     S
C1426  C1471   1.421   .     A
C1426  C1427   1.413   .     A
C1427  C1461   1.454   .     S
C1427  C628    1.428   1_556 S
C1428  O1505   1.286   .     A
C1428  C1434   1.461   .     S
C1428  O1507   1.271   .     A
C1429  C1430   1.429   .     A
C1429  C1431   1.433   .     A
C1430  C1433   1.424   .     A
C1430  C1472   1.426   .     A
C1431  C1432   1.409   .     A
C1431  C1448   1.453   .     S
C1432  C1444   1.401   .     A
C1432  C1460   1.452   .     S
C1433  C1444   1.398   .     A
C1433  C1459   1.454   .     S
C1434  C1524   1.358   .     S
C1434  C1538   1.452   .     S
C1436  C1445   1.416   .     A
C1436  C1463   1.485   .     S
C1436  C1443   1.416   .     A
C1437  C1440   1.460   .     S
C1437  C904    1.355   1_565 S
C1437  C917    1.487   1_565 S
C1438  C1439   1.430   .     S
C1439  O1502   1.276   .     A
C1439  O1508   1.268   .     A
C1440  O1509   1.272   .     A
C1440  O1503   1.265   .     A
C1441  C1444   1.473   .     S
C1441  O1500   1.276   .     A
C1441  O1498   1.281   .     A
C1442  O1499   1.288   .     A
C1442  C1443   1.489   .     S
C1442  O1501   1.297   .     A
C1443  C1447   1.393   .     A
C1445  C1462   1.453   .     S
C1445  C1469   1.431   .     A
C1446  N1487   1.157   .     T
C1446  C1474   1.446   .     S
C1447  H1475   1.081   .     S
C1447  C1458   1.405   .     A
C1449  N1490   1.157   .     T
C1450  N1491   1.158   .     T
C1450  C1524   1.451   .     S
C1451  C1456   1.405   .     A
C1451  C1452   1.404   .     A
C1452  C1453   1.398   .     A
C1453  C1454   1.398   .     A
C1453  H1481   1.082   .     S
C1454  C1455   1.397   .     A
C1454  H1571   1.082   .     S
C1455  H1483   1.081   .     S
C1455  C1456   1.399   .     A
C1456  H1484   1.083   .     S
C1457  N1492   1.157   .     T
C1457  C904    1.451   1_565 S
C1458  C1469   1.428   .     A
C1458  C1471   1.431   .     A
C1459  N1493   1.157   .     T
C1460  N1494   1.157   .     T
C1461  N1495   1.158   .     T
C1463  C1464   1.404   .     A
C1463  C1468   1.404   .     A
C1464  H1485   1.083   .     S
C1464  C1465   1.398   .     A
C1465  C1466   1.398   .     A
C1465  H1486   1.082   .     S
C1466  C1467   1.398   .     A
C1467  C1468   1.398   .     A
C1468  H1478   1.083   .     S
C1469  C673    1.425   1_556 S
C1470  N1488   1.158   .     T
C1471  C671    1.406   1_556 S
C1472  C1473   1.404   .     A
C1473  H1479   1.083   .     S
C1473  C1474   1.392   .     A
H1476  C1555   1.082   .     S
H1477  C1556   1.081   .     S
H1480  C918    1.083   1_565 S
N1489  C647    1.158   1_556 S
N1496  C1551   1.158   .     S
O1497  Zn1511  1.940   .     S
O1497  Zn1512  1.931   .     S
O1497  Zn1513  1.935   .     S
O1497  Zn1510  1.962   .     S
O1498  Zn1511  1.908   .     S
O1499  Zn1513  1.919   .     S
O1500  Zn1512  1.913   .     S
O1501  Zn1510  1.905   .     S
O1502  Zn1510  1.939   .     S
O1503  Zn1513  1.942   .     S
O1504  Zn1511  1.938   .     S
O1505  Zn1512  1.948   .     S
O1506  Zn1513  1.940   .     S
O1507  Zn1510  1.932   .     S
O1508  Zn1511  1.950   .     S
O1509  Zn1512  1.944   .     S
C1514  C1524   1.430   .     S
C1514  O1595   1.265   .     A
C1514  O1593   1.263   .     A
C1515  C1559   1.456   .     S
C1515  C1560   1.421   .     A
C1515  C1516   1.413   .     A
C1516  C1550   1.454   .     S
C1516  C717    1.428   1_556 S
C1517  O1594   1.286   .     A
C1517  C1523   1.461   .     S
C1517  O1596   1.271   .     A
C1518  C1519   1.429   .     A
C1518  C1520   1.433   .     A
C1519  C1522   1.424   .     A
C1519  C1561   1.426   .     A
C1520  C1521   1.409   .     A
C1520  C1537   1.453   .     S
C1521  C1533   1.401   .     A
C1521  C1549   1.452   .     S
C1522  C1533   1.398   .     A
C1522  C1548   1.454   .     S
C1523  C1346   1.358   1_655 S
C1523  C1360   1.452   1_655 S
C1525  C1534   1.416   .     A
C1525  C1552   1.485   .     S
C1525  C1532   1.416   .     A
C1526  C1529   1.460   .     S
C1526  C993    1.355   1_565 S
C1526  C1006   1.487   1_565 S
C1527  C1528   1.430   .     S
C1528  O1591   1.276   .     A
C1528  O1597   1.268   .     A
C1529  O1598   1.272   .     A
C1529  O1592   1.265   .     A
C1530  C1533   1.473   .     S
C1530  O1589   1.276   .     A
C1530  O1587   1.281   .     A
C1531  O1588   1.288   .     A
C1531  C1532   1.489   .     S
C1531  O1590   1.297   .     A
C1532  C1536   1.393   .     A
C1534  C1551   1.453   .     S
C1534  C1558   1.431   .     A
C1535  N1576   1.157   .     T
C1535  C1563   1.446   .     S
C1536  H1564   1.081   .     S
C1536  C1547   1.405   .     A
C1538  N1579   1.157   .     T
C1539  N1580   1.158   .     T
C1539  C1346   1.451   1_655 S
C1540  C1545   1.405   .     A
C1540  C1541   1.404   .     A
C1541  C1542   1.398   .     A
C1542  C1543   1.398   .     A
C1542  H1570   1.082   .     S
C1543  C1544   1.397   .     A
C1543  H1393   1.082   1_655 S
C1544  H1572   1.081   .     S
C1544  C1545   1.399   .     A
C1545  H1573   1.083   .     S
C1546  N1581   1.157   .     T
C1546  C993    1.451   1_565 S
C1547  C1558   1.428   .     A
C1547  C1560   1.431   .     A
C1548  N1582   1.157   .     T
C1549  N1583   1.157   .     T
C1550  N1584   1.158   .     T
C1552  C1553   1.404   .     A
C1552  C1557   1.404   .     A
C1553  H1574   1.083   .     S
C1553  C1554   1.398   .     A
C1554  C1555   1.398   .     A
C1554  H1575   1.082   .     S
C1555  C1556   1.398   .     A
C1556  C1557   1.398   .     A
C1557  H1567   1.083   .     S
C1558  C762    1.425   1_556 S
C1559  N1577   1.158   .     T
C1560  C760    1.406   1_556 S
C1561  C1562   1.404   .     A
C1562  H1568   1.083   .     S
C1562  C1563   1.392   .     A
H1565  C1377   1.082   1_655 S
H1566  C1378   1.081   1_655 S
H1569  C1007   1.083   1_565 S
N1578  C736    1.158   1_556 S
N1585  C1373   1.158   1_655 S
O1586  Zn1600  1.940   .     S
O1586  Zn1601  1.931   .     S
O1586  Zn1602  1.935   .     S
O1586  Zn1599  1.962   .     S
O1587  Zn1600  1.908   .     S
O1588  Zn1602  1.919   .     S
O1589  Zn1601  1.913   .     S
O1590  Zn1599  1.905   .     S
O1591  Zn1599  1.939   .     S
O1592  Zn1602  1.942   .     S
O1593  Zn1600  1.938   .     S
O1594  Zn1601  1.948   .     S
O1595  Zn1602  1.940   .     S
O1596  Zn1599  1.932   .     S
O1597  Zn1600  1.950   .     S
O1598  Zn1601  1.944   .     S
