data_str_m1_o1_o5_pcu_sym.10
_audit_creation_date              2020-01-03
_audit_creation_method            'Materials Studio'
_symmetry_space_group_name_H-M    'P1'
_symmetry_Int_Tables_number       1
_symmetry_cell_setting            triclinic
loop_
_symmetry_equiv_pos_as_xyz
  x,y,z
_cell_length_a                    36.6219
_cell_length_b                    36.6219
_cell_length_c                    22.4418
_cell_angle_alpha                 90.0002
_cell_angle_beta                  90.0001
_cell_angle_gamma                 89.9946
loop_
_atom_site_label
_atom_site_type_symbol
_atom_site_fract_x
_atom_site_fract_y
_atom_site_fract_z
_atom_site_U_iso_or_equiv
_atom_site_adp_type
_atom_site_occupancy
Br1    Br    0.14708   0.28874   0.28285   0.00000  Uiso   1.00
Br2    Br    0.42217   0.35795   0.12558   0.00000  Uiso   1.00
Br3    Br    0.35683   0.07900   0.87517   0.00000  Uiso   1.00
Br4    Br    0.21126   0.35292   0.28285   0.00000  Uiso   1.00
Br5    Br    0.42062   0.35647   0.87542   0.00000  Uiso   1.00
Br6    Br    0.07782   0.14204   0.12558   0.00000  Uiso   1.00
Br7    Br    0.14317   0.42100   0.87517   0.00000  Uiso   1.00
Br8    Br    0.28874   0.14709   0.28282   0.00000  Uiso   1.00
Br9    Br    0.32900   0.10683   0.62482   0.00000  Uiso   1.00
Br10   Br    0.10292   0.46126   0.21715   0.00000  Uiso   1.00
Br11   Br    0.10647   0.17062   0.62458   0.00000  Uiso   1.00
Br12   Br    0.42100   0.14317   0.87517   0.00000  Uiso   1.00
Br13   Br    0.39205   0.32783   0.37442   0.00000  Uiso   1.00
Br14   Br    0.17100   0.39317   0.62482   0.00000  Uiso   1.00
Br15   Br    0.39709   0.03874   0.21718   0.00000  Uiso   1.00
Br16   Br    0.39353   0.32938   0.62457   0.00000  Uiso   1.00
Br17   Br    0.10796   0.17218   0.37442   0.00000  Uiso   1.00
Br18   Br    0.32783   0.39205   0.37442   0.00000  Uiso   1.00
Br19   Br    0.17062   0.10647   0.62458   0.00000  Uiso   1.00
Br20   Br    0.03874   0.39708   0.21715   0.00000  Uiso   1.00
Br21   Br    0.39317   0.17100   0.62482   0.00000  Uiso   1.00
Br22   Br    0.17218   0.10796   0.37442   0.00000  Uiso   1.00
Br23   Br    0.35795   0.42217   0.12558   0.00000  Uiso   1.00
Br24   Br    0.32938   0.39353   0.62457   0.00000  Uiso   1.00
Br25   Br    0.46126   0.10291   0.21718   0.00000  Uiso   1.00
Br26   Br    0.10683   0.32900   0.62482   0.00000  Uiso   1.00
Br27   Br    0.14353   0.07938   0.87542   0.00000  Uiso   1.00
Br28   Br    0.35291   0.21126   0.28282   0.00000  Uiso   1.00
Br29   Br    0.07900   0.35683   0.87517   0.00000  Uiso   1.00
Br30   Br    0.14204   0.07782   0.12558   0.00000  Uiso   1.00
Br31   Br    0.35647   0.42062   0.87542   0.00000  Uiso   1.00
Br32   Br    0.07938   0.14353   0.87542   0.00000  Uiso   1.00
C33    C     0.00000   0.25000   0.02665   0.00000  Uiso   1.00
C34    C     0.00000   0.25000   0.58989   0.00000  Uiso   1.00
C35    C     0.25000   0.00000   0.41011   0.00000  Uiso   1.00
C36    C     0.25000   0.00000   0.58989   0.00000  Uiso   1.00
C37    C     0.25000   0.00000   0.91011   0.00000  Uiso   1.00
C38    C     0.25000   0.00000   0.08989   0.00000  Uiso   1.00
C39    C     0.00000   0.25000   0.91011   0.00000  Uiso   1.00
C40    C     0.00000   0.25000   0.08989   0.00000  Uiso   1.00
C41    C     0.07003   0.17997   0.25000   0.00000  Uiso   1.00
C42    C     0.42997   0.32003   0.75000   0.00000  Uiso   1.00
C43    C     0.17997   0.42997   0.25000   0.00000  Uiso   1.00
C44    C     0.00000   0.25000   0.97334   0.00000  Uiso   1.00
C45    C     0.32003   0.07003   0.75000   0.00000  Uiso   1.00
C46    C     0.42997   0.32003   0.25000   0.00000  Uiso   1.00
C47    C     0.07003   0.17997   0.75000   0.00000  Uiso   1.00
C48    C     0.32003   0.07003   0.25000   0.00000  Uiso   1.00
C49    C     0.17997   0.42997   0.75000   0.00000  Uiso   1.00
C50    C     0.07003   0.32003   0.75000   0.00000  Uiso   1.00
C51    C     0.42997   0.17997   0.25000   0.00000  Uiso   1.00
C52    C     0.17997   0.07003   0.75000   0.00000  Uiso   1.00
C53    C     0.32003   0.42997   0.25000   0.00000  Uiso   1.00
C54    C     0.42997   0.17997   0.75000   0.00000  Uiso   1.00
C55    C     0.25000   0.00000   0.02665   0.00000  Uiso   1.00
C56    C     0.07003   0.32003   0.25000   0.00000  Uiso   1.00
C57    C     0.32003   0.42997   0.75000   0.00000  Uiso   1.00
C58    C     0.17997   0.07003   0.25000   0.00000  Uiso   1.00
C59    C     0.13449   0.33849   0.26264   0.00000  Uiso   1.00
C60    C     0.39385   0.13316   0.80314   0.00000  Uiso   1.00
C61    C     0.36734   0.39436   0.19715   0.00000  Uiso   1.00
C62    C     0.13332   0.10631   0.80323   0.00000  Uiso   1.00
C63    C     0.36551   0.16151   0.26263   0.00000  Uiso   1.00
C64    C     0.10615   0.36684   0.80314   0.00000  Uiso   1.00
C65    C     0.13266   0.10564   0.19715   0.00000  Uiso   1.00
C66    C     0.25000   0.00000   0.97334   0.00000  Uiso   1.00
C67    C     0.36668   0.39369   0.80323   0.00000  Uiso   1.00
C68    C     0.10631   0.13332   0.80323   0.00000  Uiso   1.00
C69    C     0.39436   0.36734   0.19715   0.00000  Uiso   1.00
C70    C     0.36684   0.10615   0.80314   0.00000  Uiso   1.00
C71    C     0.16151   0.36551   0.26264   0.00000  Uiso   1.00
C72    C     0.39369   0.36668   0.80323   0.00000  Uiso   1.00
C73    C     0.10564   0.13266   0.19715   0.00000  Uiso   1.00
C74    C     0.13316   0.39385   0.80314   0.00000  Uiso   1.00
C75    C     0.33849   0.13449   0.26263   0.00000  Uiso   1.00
C76    C     0.35615   0.11684   0.69686   0.00000  Uiso   1.00
C77    C     0.25000   0.00000   0.52666   0.00000  Uiso   1.00
C78    C     0.11551   0.41151   0.23736   0.00000  Uiso   1.00
C79    C     0.11668   0.14369   0.69677   0.00000  Uiso   1.00
C80    C     0.38266   0.35564   0.30285   0.00000  Uiso   1.00
C81    C     0.14385   0.38316   0.69686   0.00000  Uiso   1.00
C82    C     0.38449   0.08849   0.23737   0.00000  Uiso   1.00
C83    C     0.38332   0.35631   0.69677   0.00000  Uiso   1.00
C84    C     0.11734   0.14436   0.30285   0.00000  Uiso   1.00
C85    C     0.35564   0.38266   0.30285   0.00000  Uiso   1.00
C86    C     0.14369   0.11668   0.69677   0.00000  Uiso   1.00
C87    C     0.08849   0.38449   0.23736   0.00000  Uiso   1.00
C88    C     0.25000   0.00000   0.47335   0.00000  Uiso   1.00
C89    C     0.38316   0.14385   0.69686   0.00000  Uiso   1.00
C90    C     0.14436   0.11734   0.30285   0.00000  Uiso   1.00
C91    C     0.35631   0.38332   0.69677   0.00000  Uiso   1.00
C92    C     0.41151   0.11551   0.23737   0.00000  Uiso   1.00
C93    C     0.11684   0.35615   0.69686   0.00000  Uiso   1.00
C94    C     0.15191   0.40191   0.25000   0.00000  Uiso   1.00
C95    C     0.34809   0.09809   0.75000   0.00000  Uiso   1.00
C96    C     0.40191   0.34809   0.25000   0.00000  Uiso   1.00
C97    C     0.09809   0.15191   0.75000   0.00000  Uiso   1.00
C98    C     0.34809   0.09809   0.25000   0.00000  Uiso   1.00
C99    C     0.00000   0.25000   0.52666   0.00000  Uiso   1.00
C100   C     0.15191   0.40191   0.75000   0.00000  Uiso   1.00
C101   C     0.09809   0.15191   0.25000   0.00000  Uiso   1.00
C102   C     0.40191   0.34809   0.75000   0.00000  Uiso   1.00
C103   C     0.15191   0.09809   0.75000   0.00000  Uiso   1.00
C104   C     0.34809   0.40191   0.25000   0.00000  Uiso   1.00
C105   C     0.40191   0.15191   0.75000   0.00000  Uiso   1.00
C106   C     0.09809   0.34809   0.25000   0.00000  Uiso   1.00
C107   C     0.34809   0.40191   0.75000   0.00000  Uiso   1.00
C108   C     0.15191   0.09809   0.25000   0.00000  Uiso   1.00
C109   C     0.09809   0.34809   0.75000   0.00000  Uiso   1.00
C110   C     0.00000   0.25000   0.47335   0.00000  Uiso   1.00
C111   C     0.40191   0.15191   0.25000   0.00000  Uiso   1.00
C112   C     0.00000   0.25000   0.41011   0.00000  Uiso   1.00
O113   O     0.00000   0.25000   0.25000   0.00000  Uiso   1.00
O114   O     0.00000   0.28036   0.61781   0.00000  Uiso   1.00
O115   O     0.21965   0.00000   0.38219   0.00000  Uiso   1.00
O116   O     0.28036   0.00000   0.61781   0.00000  Uiso   1.00
O117   O     0.25000   0.03036   0.88219   0.00000  Uiso   1.00
O118   O     0.25000   0.46965   0.11781   0.00000  Uiso   1.00
O119   O     0.03036   0.25000   0.88219   0.00000  Uiso   1.00
O120   O     0.46965   0.25000   0.11781   0.00000  Uiso   1.00
O121   O     0.25000   0.46965   0.88219   0.00000  Uiso   1.00
O122   O     0.25000   0.03036   0.11781   0.00000  Uiso   1.00
O123   O     0.46965   0.25000   0.88219   0.00000  Uiso   1.00
O124   O     0.00000   0.25000   0.75000   0.00000  Uiso   1.00
O125   O     0.03036   0.25000   0.11781   0.00000  Uiso   1.00
O126   O     0.04268   0.17693   0.28474   0.00000  Uiso   1.00
O127   O     0.45733   0.32308   0.71526   0.00000  Uiso   1.00
O128   O     0.17693   0.45733   0.28474   0.00000  Uiso   1.00
O129   O     0.32308   0.04268   0.71526   0.00000  Uiso   1.00
O130   O     0.45733   0.32308   0.28474   0.00000  Uiso   1.00
O131   O     0.04268   0.17693   0.71526   0.00000  Uiso   1.00
O132   O     0.32308   0.04268   0.28474   0.00000  Uiso   1.00
O133   O     0.17693   0.45733   0.71526   0.00000  Uiso   1.00
O134   O     0.04268   0.32308   0.71526   0.00000  Uiso   1.00
O135   O     0.25000   0.00000   0.25000   0.00000  Uiso   1.00
O136   O     0.45733   0.17693   0.28474   0.00000  Uiso   1.00
O137   O     0.17693   0.04268   0.71526   0.00000  Uiso   1.00
O138   O     0.32308   0.45733   0.28474   0.00000  Uiso   1.00
O139   O     0.45733   0.17693   0.71526   0.00000  Uiso   1.00
O140   O     0.04268   0.32308   0.28474   0.00000  Uiso   1.00
O141   O     0.32308   0.45733   0.71526   0.00000  Uiso   1.00
O142   O     0.17693   0.04268   0.28474   0.00000  Uiso   1.00
O143   O     0.29268   0.42693   0.78474   0.00000  Uiso   1.00
O144   O     0.20733   0.07308   0.21526   0.00000  Uiso   1.00
O145   O     0.42693   0.20733   0.78474   0.00000  Uiso   1.00
O146   O     0.25000   0.00000   0.75000   0.00000  Uiso   1.00
O147   O     0.07308   0.29268   0.21526   0.00000  Uiso   1.00
O148   O     0.20733   0.07308   0.78474   0.00000  Uiso   1.00
O149   O     0.29268   0.42693   0.21526   0.00000  Uiso   1.00
O150   O     0.07308   0.29268   0.78474   0.00000  Uiso   1.00
O151   O     0.42693   0.20733   0.21526   0.00000  Uiso   1.00
O152   O     0.29268   0.07308   0.21526   0.00000  Uiso   1.00
O153   O     0.20733   0.42693   0.78474   0.00000  Uiso   1.00
O154   O     0.42693   0.29268   0.21526   0.00000  Uiso   1.00
O155   O     0.07308   0.20733   0.78474   0.00000  Uiso   1.00
O156   O     0.20733   0.42693   0.21526   0.00000  Uiso   1.00
O157   O     0.00000   0.28036   0.38219   0.00000  Uiso   1.00
O158   O     0.29268   0.07308   0.78474   0.00000  Uiso   1.00
O159   O     0.07308   0.20733   0.21526   0.00000  Uiso   1.00
O160   O     0.42693   0.29268   0.78474   0.00000  Uiso   1.00
O161   O     0.00000   0.21965   0.61781   0.00000  Uiso   1.00
O162   O     0.28036   0.00000   0.38219   0.00000  Uiso   1.00
O163   O     0.21965   0.00000   0.61781   0.00000  Uiso   1.00
O164   O     0.00000   0.21965   0.38219   0.00000  Uiso   1.00
Zn165  Zn    0.04333   0.25000   0.20067   0.00000  Uiso   1.00
Zn166  Zn    0.20667   0.00000   0.29933   0.00000  Uiso   1.00
Zn167  Zn    0.00000   0.20667   0.70067   0.00000  Uiso   1.00
Zn168  Zn    0.00000   0.29333   0.29933   0.00000  Uiso   1.00
Zn169  Zn    0.20667   0.00000   0.70067   0.00000  Uiso   1.00
Zn170  Zn    0.29333   0.00000   0.29933   0.00000  Uiso   1.00
Zn171  Zn    0.00000   0.29333   0.70067   0.00000  Uiso   1.00
Zn172  Zn    0.00000   0.20667   0.29933   0.00000  Uiso   1.00
Zn173  Zn    0.45667   0.25000   0.79933   0.00000  Uiso   1.00
Zn174  Zn    0.25000   0.45667   0.20067   0.00000  Uiso   1.00
Zn175  Zn    0.25000   0.04333   0.79933   0.00000  Uiso   1.00
Zn176  Zn    0.45667   0.25000   0.20067   0.00000  Uiso   1.00
Zn177  Zn    0.04333   0.25000   0.79933   0.00000  Uiso   1.00
Zn178  Zn    0.25000   0.04333   0.20067   0.00000  Uiso   1.00
Zn179  Zn    0.25000   0.45667   0.79933   0.00000  Uiso   1.00
Zn180  Zn    0.29333   0.00000   0.70067   0.00000  Uiso   1.00
Br181  Br    0.64708   0.28874   0.28285   0.00000  Uiso   1.00
Br182  Br    0.92217   0.35795   0.12558   0.00000  Uiso   1.00
Br183  Br    0.85683   0.07900   0.87517   0.00000  Uiso   1.00
Br184  Br    0.71126   0.35292   0.28285   0.00000  Uiso   1.00
Br185  Br    0.92062   0.35647   0.87542   0.00000  Uiso   1.00
Br186  Br    0.57782   0.14204   0.12558   0.00000  Uiso   1.00
Br187  Br    0.64317   0.42100   0.87517   0.00000  Uiso   1.00
Br188  Br    0.78874   0.14709   0.28282   0.00000  Uiso   1.00
Br189  Br    0.82900   0.10683   0.62482   0.00000  Uiso   1.00
Br190  Br    0.60292   0.46126   0.21715   0.00000  Uiso   1.00
Br191  Br    0.60647   0.17062   0.62458   0.00000  Uiso   1.00
Br192  Br    0.92100   0.14317   0.87517   0.00000  Uiso   1.00
Br193  Br    0.89205   0.32783   0.37442   0.00000  Uiso   1.00
Br194  Br    0.67100   0.39317   0.62482   0.00000  Uiso   1.00
Br195  Br    0.89709   0.03874   0.21718   0.00000  Uiso   1.00
Br196  Br    0.89353   0.32938   0.62457   0.00000  Uiso   1.00
Br197  Br    0.60796   0.17218   0.37442   0.00000  Uiso   1.00
Br198  Br    0.82783   0.39205   0.37442   0.00000  Uiso   1.00
Br199  Br    0.67062   0.10647   0.62458   0.00000  Uiso   1.00
Br200  Br    0.53874   0.39708   0.21715   0.00000  Uiso   1.00
Br201  Br    0.89317   0.17100   0.62482   0.00000  Uiso   1.00
Br202  Br    0.67218   0.10796   0.37442   0.00000  Uiso   1.00
Br203  Br    0.85795   0.42217   0.12558   0.00000  Uiso   1.00
Br204  Br    0.82938   0.39353   0.62457   0.00000  Uiso   1.00
Br205  Br    0.96126   0.10291   0.21718   0.00000  Uiso   1.00
Br206  Br    0.60683   0.32900   0.62482   0.00000  Uiso   1.00
Br207  Br    0.64353   0.07938   0.87542   0.00000  Uiso   1.00
Br208  Br    0.85291   0.21126   0.28282   0.00000  Uiso   1.00
Br209  Br    0.57900   0.35683   0.87517   0.00000  Uiso   1.00
Br210  Br    0.64204   0.07782   0.12558   0.00000  Uiso   1.00
Br211  Br    0.85647   0.42062   0.87542   0.00000  Uiso   1.00
Br212  Br    0.57938   0.14353   0.87542   0.00000  Uiso   1.00
C213   C     0.50000   0.25000   0.02665   0.00000  Uiso   1.00
C214   C     0.50000   0.25000   0.58989   0.00000  Uiso   1.00
C215   C     0.75000   0.00000   0.41011   0.00000  Uiso   1.00
C216   C     0.75000   0.00000   0.58989   0.00000  Uiso   1.00
C217   C     0.75000   0.00000   0.91011   0.00000  Uiso   1.00
C218   C     0.75000   0.00000   0.08989   0.00000  Uiso   1.00
C219   C     0.50000   0.25000   0.91011   0.00000  Uiso   1.00
C220   C     0.50000   0.25000   0.08989   0.00000  Uiso   1.00
C221   C     0.57003   0.17997   0.25000   0.00000  Uiso   1.00
C222   C     0.92997   0.32003   0.75000   0.00000  Uiso   1.00
C223   C     0.67997   0.42997   0.25000   0.00000  Uiso   1.00
C224   C     0.50000   0.25000   0.97334   0.00000  Uiso   1.00
C225   C     0.82003   0.07003   0.75000   0.00000  Uiso   1.00
C226   C     0.92997   0.32003   0.25000   0.00000  Uiso   1.00
C227   C     0.57003   0.17997   0.75000   0.00000  Uiso   1.00
C228   C     0.82003   0.07003   0.25000   0.00000  Uiso   1.00
C229   C     0.67997   0.42997   0.75000   0.00000  Uiso   1.00
C230   C     0.57003   0.32003   0.75000   0.00000  Uiso   1.00
C231   C     0.92997   0.17997   0.25000   0.00000  Uiso   1.00
C232   C     0.67997   0.07003   0.75000   0.00000  Uiso   1.00
C233   C     0.82003   0.42997   0.25000   0.00000  Uiso   1.00
C234   C     0.92997   0.17997   0.75000   0.00000  Uiso   1.00
C235   C     0.75000   0.00000   0.02665   0.00000  Uiso   1.00
C236   C     0.57003   0.32003   0.25000   0.00000  Uiso   1.00
C237   C     0.82003   0.42997   0.75000   0.00000  Uiso   1.00
C238   C     0.67997   0.07003   0.25000   0.00000  Uiso   1.00
C239   C     0.63449   0.33849   0.26264   0.00000  Uiso   1.00
C240   C     0.89385   0.13316   0.80314   0.00000  Uiso   1.00
C241   C     0.86734   0.39436   0.19715   0.00000  Uiso   1.00
C242   C     0.63332   0.10631   0.80323   0.00000  Uiso   1.00
C243   C     0.86551   0.16151   0.26263   0.00000  Uiso   1.00
C244   C     0.60615   0.36684   0.80314   0.00000  Uiso   1.00
C245   C     0.63266   0.10564   0.19715   0.00000  Uiso   1.00
C246   C     0.75000   0.00000   0.97334   0.00000  Uiso   1.00
C247   C     0.86668   0.39369   0.80323   0.00000  Uiso   1.00
C248   C     0.60631   0.13332   0.80323   0.00000  Uiso   1.00
C249   C     0.89436   0.36734   0.19715   0.00000  Uiso   1.00
C250   C     0.86684   0.10615   0.80314   0.00000  Uiso   1.00
C251   C     0.66151   0.36551   0.26264   0.00000  Uiso   1.00
C252   C     0.89369   0.36668   0.80323   0.00000  Uiso   1.00
C253   C     0.60564   0.13266   0.19715   0.00000  Uiso   1.00
C254   C     0.63316   0.39385   0.80314   0.00000  Uiso   1.00
C255   C     0.83849   0.13449   0.26263   0.00000  Uiso   1.00
C256   C     0.85615   0.11684   0.69686   0.00000  Uiso   1.00
C257   C     0.75000   0.00000   0.52666   0.00000  Uiso   1.00
C258   C     0.61551   0.41151   0.23736   0.00000  Uiso   1.00
C259   C     0.61668   0.14369   0.69677   0.00000  Uiso   1.00
C260   C     0.88266   0.35564   0.30285   0.00000  Uiso   1.00
C261   C     0.64385   0.38316   0.69686   0.00000  Uiso   1.00
C262   C     0.88449   0.08849   0.23737   0.00000  Uiso   1.00
C263   C     0.88332   0.35631   0.69677   0.00000  Uiso   1.00
C264   C     0.61734   0.14436   0.30285   0.00000  Uiso   1.00
C265   C     0.85564   0.38266   0.30285   0.00000  Uiso   1.00
C266   C     0.64369   0.11668   0.69677   0.00000  Uiso   1.00
C267   C     0.58849   0.38449   0.23736   0.00000  Uiso   1.00
C268   C     0.75000   0.00000   0.47335   0.00000  Uiso   1.00
C269   C     0.88316   0.14385   0.69686   0.00000  Uiso   1.00
C270   C     0.64436   0.11734   0.30285   0.00000  Uiso   1.00
C271   C     0.85631   0.38332   0.69677   0.00000  Uiso   1.00
C272   C     0.91151   0.11551   0.23737   0.00000  Uiso   1.00
C273   C     0.61684   0.35615   0.69686   0.00000  Uiso   1.00
C274   C     0.65191   0.40191   0.25000   0.00000  Uiso   1.00
C275   C     0.84809   0.09809   0.75000   0.00000  Uiso   1.00
C276   C     0.90191   0.34809   0.25000   0.00000  Uiso   1.00
C277   C     0.59809   0.15191   0.75000   0.00000  Uiso   1.00
C278   C     0.84809   0.09809   0.25000   0.00000  Uiso   1.00
C279   C     0.50000   0.25000   0.52666   0.00000  Uiso   1.00
C280   C     0.65191   0.40191   0.75000   0.00000  Uiso   1.00
C281   C     0.59809   0.15191   0.25000   0.00000  Uiso   1.00
C282   C     0.90191   0.34809   0.75000   0.00000  Uiso   1.00
C283   C     0.65191   0.09809   0.75000   0.00000  Uiso   1.00
C284   C     0.84809   0.40191   0.25000   0.00000  Uiso   1.00
C285   C     0.90191   0.15191   0.75000   0.00000  Uiso   1.00
C286   C     0.59809   0.34809   0.25000   0.00000  Uiso   1.00
C287   C     0.84809   0.40191   0.75000   0.00000  Uiso   1.00
C288   C     0.65191   0.09809   0.25000   0.00000  Uiso   1.00
C289   C     0.59809   0.34809   0.75000   0.00000  Uiso   1.00
C290   C     0.50000   0.25000   0.47335   0.00000  Uiso   1.00
C291   C     0.90191   0.15191   0.25000   0.00000  Uiso   1.00
C292   C     0.50000   0.25000   0.41011   0.00000  Uiso   1.00
O293   O     0.50000   0.25000   0.25000   0.00000  Uiso   1.00
O294   O     0.50000   0.28036   0.61781   0.00000  Uiso   1.00
O295   O     0.71965   0.00000   0.38219   0.00000  Uiso   1.00
O296   O     0.78036   0.00000   0.61781   0.00000  Uiso   1.00
O297   O     0.75000   0.03036   0.88219   0.00000  Uiso   1.00
O298   O     0.75000   0.46965   0.11781   0.00000  Uiso   1.00
O299   O     0.53036   0.25000   0.88219   0.00000  Uiso   1.00
O300   O     0.96965   0.25000   0.11781   0.00000  Uiso   1.00
O301   O     0.75000   0.46965   0.88219   0.00000  Uiso   1.00
O302   O     0.75000   0.03036   0.11781   0.00000  Uiso   1.00
O303   O     0.96965   0.25000   0.88219   0.00000  Uiso   1.00
O304   O     0.50000   0.25000   0.75000   0.00000  Uiso   1.00
O305   O     0.53036   0.25000   0.11781   0.00000  Uiso   1.00
O306   O     0.54268   0.17693   0.28474   0.00000  Uiso   1.00
O307   O     0.95733   0.32308   0.71526   0.00000  Uiso   1.00
O308   O     0.67693   0.45733   0.28474   0.00000  Uiso   1.00
O309   O     0.82308   0.04268   0.71526   0.00000  Uiso   1.00
O310   O     0.95733   0.32308   0.28474   0.00000  Uiso   1.00
O311   O     0.54268   0.17693   0.71526   0.00000  Uiso   1.00
O312   O     0.82308   0.04268   0.28474   0.00000  Uiso   1.00
O313   O     0.67693   0.45733   0.71526   0.00000  Uiso   1.00
O314   O     0.54268   0.32308   0.71526   0.00000  Uiso   1.00
O315   O     0.75000   0.00000   0.25000   0.00000  Uiso   1.00
O316   O     0.95733   0.17693   0.28474   0.00000  Uiso   1.00
O317   O     0.67693   0.04268   0.71526   0.00000  Uiso   1.00
O318   O     0.82308   0.45733   0.28474   0.00000  Uiso   1.00
O319   O     0.95733   0.17693   0.71526   0.00000  Uiso   1.00
O320   O     0.54268   0.32308   0.28474   0.00000  Uiso   1.00
O321   O     0.82308   0.45733   0.71526   0.00000  Uiso   1.00
O322   O     0.67693   0.04268   0.28474   0.00000  Uiso   1.00
O323   O     0.79268   0.42693   0.78474   0.00000  Uiso   1.00
O324   O     0.70733   0.07308   0.21526   0.00000  Uiso   1.00
O325   O     0.92693   0.20733   0.78474   0.00000  Uiso   1.00
O326   O     0.75000   0.00000   0.75000   0.00000  Uiso   1.00
O327   O     0.57308   0.29268   0.21526   0.00000  Uiso   1.00
O328   O     0.70733   0.07308   0.78474   0.00000  Uiso   1.00
O329   O     0.79268   0.42693   0.21526   0.00000  Uiso   1.00
O330   O     0.57308   0.29268   0.78474   0.00000  Uiso   1.00
O331   O     0.92693   0.20733   0.21526   0.00000  Uiso   1.00
O332   O     0.79268   0.07308   0.21526   0.00000  Uiso   1.00
O333   O     0.70733   0.42693   0.78474   0.00000  Uiso   1.00
O334   O     0.92693   0.29268   0.21526   0.00000  Uiso   1.00
O335   O     0.57308   0.20733   0.78474   0.00000  Uiso   1.00
O336   O     0.70733   0.42693   0.21526   0.00000  Uiso   1.00
O337   O     0.50000   0.28036   0.38219   0.00000  Uiso   1.00
O338   O     0.79268   0.07308   0.78474   0.00000  Uiso   1.00
O339   O     0.57308   0.20733   0.21526   0.00000  Uiso   1.00
O340   O     0.92693   0.29268   0.78474   0.00000  Uiso   1.00
O341   O     0.50000   0.21965   0.61781   0.00000  Uiso   1.00
O342   O     0.78036   0.00000   0.38219   0.00000  Uiso   1.00
O343   O     0.71965   0.00000   0.61781   0.00000  Uiso   1.00
O344   O     0.50000   0.21965   0.38219   0.00000  Uiso   1.00
Zn345  Zn    0.54333   0.25000   0.20067   0.00000  Uiso   1.00
Zn346  Zn    0.70667   0.00000   0.29933   0.00000  Uiso   1.00
Zn347  Zn    0.50000   0.20667   0.70067   0.00000  Uiso   1.00
Zn348  Zn    0.50000   0.29333   0.29933   0.00000  Uiso   1.00
Zn349  Zn    0.70667   0.00000   0.70067   0.00000  Uiso   1.00
Zn350  Zn    0.79333   0.00000   0.29933   0.00000  Uiso   1.00
Zn351  Zn    0.50000   0.29333   0.70067   0.00000  Uiso   1.00
Zn352  Zn    0.50000   0.20667   0.29933   0.00000  Uiso   1.00
Zn353  Zn    0.95667   0.25000   0.79933   0.00000  Uiso   1.00
Zn354  Zn    0.75000   0.45667   0.20067   0.00000  Uiso   1.00
Zn355  Zn    0.75000   0.04333   0.79933   0.00000  Uiso   1.00
Zn356  Zn    0.95667   0.25000   0.20067   0.00000  Uiso   1.00
Zn357  Zn    0.54333   0.25000   0.79933   0.00000  Uiso   1.00
Zn358  Zn    0.75000   0.04333   0.20067   0.00000  Uiso   1.00
Zn359  Zn    0.75000   0.45667   0.79933   0.00000  Uiso   1.00
Zn360  Zn    0.79333   0.00000   0.70067   0.00000  Uiso   1.00
Br361  Br    0.14708   0.78874   0.28285   0.00000  Uiso   1.00
Br362  Br    0.42217   0.85795   0.12558   0.00000  Uiso   1.00
Br363  Br    0.35683   0.57900   0.87517   0.00000  Uiso   1.00
Br364  Br    0.21126   0.85292   0.28285   0.00000  Uiso   1.00
Br365  Br    0.42062   0.85647   0.87542   0.00000  Uiso   1.00
Br366  Br    0.07782   0.64204   0.12558   0.00000  Uiso   1.00
Br367  Br    0.14317   0.92100   0.87517   0.00000  Uiso   1.00
Br368  Br    0.28874   0.64709   0.28282   0.00000  Uiso   1.00
Br369  Br    0.32900   0.60683   0.62482   0.00000  Uiso   1.00
Br370  Br    0.10292   0.96126   0.21715   0.00000  Uiso   1.00
Br371  Br    0.10647   0.67062   0.62458   0.00000  Uiso   1.00
Br372  Br    0.42100   0.64317   0.87517   0.00000  Uiso   1.00
Br373  Br    0.39205   0.82783   0.37442   0.00000  Uiso   1.00
Br374  Br    0.17100   0.89317   0.62482   0.00000  Uiso   1.00
Br375  Br    0.39709   0.53874   0.21718   0.00000  Uiso   1.00
Br376  Br    0.39353   0.82938   0.62457   0.00000  Uiso   1.00
Br377  Br    0.10796   0.67218   0.37442   0.00000  Uiso   1.00
Br378  Br    0.32783   0.89205   0.37442   0.00000  Uiso   1.00
Br379  Br    0.17062   0.60647   0.62458   0.00000  Uiso   1.00
Br380  Br    0.03874   0.89708   0.21715   0.00000  Uiso   1.00
Br381  Br    0.39317   0.67100   0.62482   0.00000  Uiso   1.00
Br382  Br    0.17218   0.60796   0.37442   0.00000  Uiso   1.00
Br383  Br    0.35795   0.92217   0.12558   0.00000  Uiso   1.00
Br384  Br    0.32938   0.89353   0.62457   0.00000  Uiso   1.00
Br385  Br    0.46126   0.60291   0.21718   0.00000  Uiso   1.00
Br386  Br    0.10683   0.82900   0.62482   0.00000  Uiso   1.00
Br387  Br    0.14353   0.57938   0.87542   0.00000  Uiso   1.00
Br388  Br    0.35291   0.71126   0.28282   0.00000  Uiso   1.00
Br389  Br    0.07900   0.85683   0.87517   0.00000  Uiso   1.00
Br390  Br    0.14204   0.57782   0.12558   0.00000  Uiso   1.00
Br391  Br    0.35647   0.92062   0.87542   0.00000  Uiso   1.00
Br392  Br    0.07938   0.64353   0.87542   0.00000  Uiso   1.00
C393   C     0.00000   0.75000   0.02665   0.00000  Uiso   1.00
C394   C     0.00000   0.75000   0.58989   0.00000  Uiso   1.00
C395   C     0.25000   0.50000   0.41011   0.00000  Uiso   1.00
C396   C     0.25000   0.50000   0.58989   0.00000  Uiso   1.00
C397   C     0.25000   0.50000   0.91011   0.00000  Uiso   1.00
C398   C     0.25000   0.50000   0.08989   0.00000  Uiso   1.00
C399   C     0.00000   0.75000   0.91011   0.00000  Uiso   1.00
C400   C     0.00000   0.75000   0.08989   0.00000  Uiso   1.00
C401   C     0.07003   0.67997   0.25000   0.00000  Uiso   1.00
C402   C     0.42997   0.82003   0.75000   0.00000  Uiso   1.00
C403   C     0.17997   0.92997   0.25000   0.00000  Uiso   1.00
C404   C     0.00000   0.75000   0.97334   0.00000  Uiso   1.00
C405   C     0.32003   0.57003   0.75000   0.00000  Uiso   1.00
C406   C     0.42997   0.82003   0.25000   0.00000  Uiso   1.00
C407   C     0.07003   0.67997   0.75000   0.00000  Uiso   1.00
C408   C     0.32003   0.57003   0.25000   0.00000  Uiso   1.00
C409   C     0.17997   0.92997   0.75000   0.00000  Uiso   1.00
C410   C     0.07003   0.82003   0.75000   0.00000  Uiso   1.00
C411   C     0.42997   0.67997   0.25000   0.00000  Uiso   1.00
C412   C     0.17997   0.57003   0.75000   0.00000  Uiso   1.00
C413   C     0.32003   0.92997   0.25000   0.00000  Uiso   1.00
C414   C     0.42997   0.67997   0.75000   0.00000  Uiso   1.00
C415   C     0.25000   0.50000   0.02665   0.00000  Uiso   1.00
C416   C     0.07003   0.82003   0.25000   0.00000  Uiso   1.00
C417   C     0.32003   0.92997   0.75000   0.00000  Uiso   1.00
C418   C     0.17997   0.57003   0.25000   0.00000  Uiso   1.00
C419   C     0.13449   0.83849   0.26264   0.00000  Uiso   1.00
C420   C     0.39385   0.63316   0.80314   0.00000  Uiso   1.00
C421   C     0.36734   0.89436   0.19715   0.00000  Uiso   1.00
C422   C     0.13332   0.60631   0.80323   0.00000  Uiso   1.00
C423   C     0.36551   0.66151   0.26263   0.00000  Uiso   1.00
C424   C     0.10615   0.86684   0.80314   0.00000  Uiso   1.00
C425   C     0.13266   0.60564   0.19715   0.00000  Uiso   1.00
C426   C     0.25000   0.50000   0.97334   0.00000  Uiso   1.00
C427   C     0.36668   0.89369   0.80323   0.00000  Uiso   1.00
C428   C     0.10631   0.63332   0.80323   0.00000  Uiso   1.00
C429   C     0.39436   0.86734   0.19715   0.00000  Uiso   1.00
C430   C     0.36684   0.60615   0.80314   0.00000  Uiso   1.00
C431   C     0.16151   0.86551   0.26264   0.00000  Uiso   1.00
C432   C     0.39369   0.86668   0.80323   0.00000  Uiso   1.00
C433   C     0.10564   0.63266   0.19715   0.00000  Uiso   1.00
C434   C     0.13316   0.89385   0.80314   0.00000  Uiso   1.00
C435   C     0.33849   0.63449   0.26263   0.00000  Uiso   1.00
C436   C     0.35615   0.61684   0.69686   0.00000  Uiso   1.00
C437   C     0.25000   0.50000   0.52666   0.00000  Uiso   1.00
C438   C     0.11551   0.91151   0.23736   0.00000  Uiso   1.00
C439   C     0.11668   0.64369   0.69677   0.00000  Uiso   1.00
C440   C     0.38266   0.85564   0.30285   0.00000  Uiso   1.00
C441   C     0.14385   0.88316   0.69686   0.00000  Uiso   1.00
C442   C     0.38449   0.58849   0.23737   0.00000  Uiso   1.00
C443   C     0.38332   0.85631   0.69677   0.00000  Uiso   1.00
C444   C     0.11734   0.64436   0.30285   0.00000  Uiso   1.00
C445   C     0.35564   0.88266   0.30285   0.00000  Uiso   1.00
C446   C     0.14369   0.61668   0.69677   0.00000  Uiso   1.00
C447   C     0.08849   0.88449   0.23736   0.00000  Uiso   1.00
C448   C     0.25000   0.50000   0.47335   0.00000  Uiso   1.00
C449   C     0.38316   0.64385   0.69686   0.00000  Uiso   1.00
C450   C     0.14436   0.61734   0.30285   0.00000  Uiso   1.00
C451   C     0.35631   0.88332   0.69677   0.00000  Uiso   1.00
C452   C     0.41151   0.61551   0.23737   0.00000  Uiso   1.00
C453   C     0.11684   0.85615   0.69686   0.00000  Uiso   1.00
C454   C     0.15191   0.90191   0.25000   0.00000  Uiso   1.00
C455   C     0.34809   0.59809   0.75000   0.00000  Uiso   1.00
C456   C     0.40191   0.84809   0.25000   0.00000  Uiso   1.00
C457   C     0.09809   0.65191   0.75000   0.00000  Uiso   1.00
C458   C     0.34809   0.59809   0.25000   0.00000  Uiso   1.00
C459   C     0.00000   0.75000   0.52666   0.00000  Uiso   1.00
C460   C     0.15191   0.90191   0.75000   0.00000  Uiso   1.00
C461   C     0.09809   0.65191   0.25000   0.00000  Uiso   1.00
C462   C     0.40191   0.84809   0.75000   0.00000  Uiso   1.00
C463   C     0.15191   0.59809   0.75000   0.00000  Uiso   1.00
C464   C     0.34809   0.90191   0.25000   0.00000  Uiso   1.00
C465   C     0.40191   0.65191   0.75000   0.00000  Uiso   1.00
C466   C     0.09809   0.84809   0.25000   0.00000  Uiso   1.00
C467   C     0.34809   0.90191   0.75000   0.00000  Uiso   1.00
C468   C     0.15191   0.59809   0.25000   0.00000  Uiso   1.00
C469   C     0.09809   0.84809   0.75000   0.00000  Uiso   1.00
C470   C     0.00000   0.75000   0.47335   0.00000  Uiso   1.00
C471   C     0.40191   0.65191   0.25000   0.00000  Uiso   1.00
C472   C     0.00000   0.75000   0.41011   0.00000  Uiso   1.00
O473   O     0.00000   0.75000   0.25000   0.00000  Uiso   1.00
O474   O     0.00000   0.78036   0.61781   0.00000  Uiso   1.00
O475   O     0.21965   0.50000   0.38219   0.00000  Uiso   1.00
O476   O     0.28036   0.50000   0.61781   0.00000  Uiso   1.00
O477   O     0.25000   0.53036   0.88219   0.00000  Uiso   1.00
O478   O     0.25000   0.96965   0.11781   0.00000  Uiso   1.00
O479   O     0.03036   0.75000   0.88219   0.00000  Uiso   1.00
O480   O     0.46965   0.75000   0.11781   0.00000  Uiso   1.00
O481   O     0.25000   0.96965   0.88219   0.00000  Uiso   1.00
O482   O     0.25000   0.53036   0.11781   0.00000  Uiso   1.00
O483   O     0.46965   0.75000   0.88219   0.00000  Uiso   1.00
O484   O     0.00000   0.75000   0.75000   0.00000  Uiso   1.00
O485   O     0.03036   0.75000   0.11781   0.00000  Uiso   1.00
O486   O     0.04268   0.67693   0.28474   0.00000  Uiso   1.00
O487   O     0.45733   0.82308   0.71526   0.00000  Uiso   1.00
O488   O     0.17693   0.95733   0.28474   0.00000  Uiso   1.00
O489   O     0.32308   0.54268   0.71526   0.00000  Uiso   1.00
O490   O     0.45733   0.82308   0.28474   0.00000  Uiso   1.00
O491   O     0.04268   0.67693   0.71526   0.00000  Uiso   1.00
O492   O     0.32308   0.54268   0.28474   0.00000  Uiso   1.00
O493   O     0.17693   0.95733   0.71526   0.00000  Uiso   1.00
O494   O     0.04268   0.82308   0.71526   0.00000  Uiso   1.00
O495   O     0.25000   0.50000   0.25000   0.00000  Uiso   1.00
O496   O     0.45733   0.67693   0.28474   0.00000  Uiso   1.00
O497   O     0.17693   0.54268   0.71526   0.00000  Uiso   1.00
O498   O     0.32308   0.95733   0.28474   0.00000  Uiso   1.00
O499   O     0.45733   0.67693   0.71526   0.00000  Uiso   1.00
O500   O     0.04268   0.82308   0.28474   0.00000  Uiso   1.00
O501   O     0.32308   0.95733   0.71526   0.00000  Uiso   1.00
O502   O     0.17693   0.54268   0.28474   0.00000  Uiso   1.00
O503   O     0.29268   0.92693   0.78474   0.00000  Uiso   1.00
O504   O     0.20733   0.57308   0.21526   0.00000  Uiso   1.00
O505   O     0.42693   0.70733   0.78474   0.00000  Uiso   1.00
O506   O     0.25000   0.50000   0.75000   0.00000  Uiso   1.00
O507   O     0.07308   0.79268   0.21526   0.00000  Uiso   1.00
O508   O     0.20733   0.57308   0.78474   0.00000  Uiso   1.00
O509   O     0.29268   0.92693   0.21526   0.00000  Uiso   1.00
O510   O     0.07308   0.79268   0.78474   0.00000  Uiso   1.00
O511   O     0.42693   0.70733   0.21526   0.00000  Uiso   1.00
O512   O     0.29268   0.57308   0.21526   0.00000  Uiso   1.00
O513   O     0.20733   0.92693   0.78474   0.00000  Uiso   1.00
O514   O     0.42693   0.79268   0.21526   0.00000  Uiso   1.00
O515   O     0.07308   0.70733   0.78474   0.00000  Uiso   1.00
O516   O     0.20733   0.92693   0.21526   0.00000  Uiso   1.00
O517   O     0.00000   0.78036   0.38219   0.00000  Uiso   1.00
O518   O     0.29268   0.57308   0.78474   0.00000  Uiso   1.00
O519   O     0.07308   0.70733   0.21526   0.00000  Uiso   1.00
O520   O     0.42693   0.79268   0.78474   0.00000  Uiso   1.00
O521   O     0.00000   0.71965   0.61781   0.00000  Uiso   1.00
O522   O     0.28036   0.50000   0.38219   0.00000  Uiso   1.00
O523   O     0.21965   0.50000   0.61781   0.00000  Uiso   1.00
O524   O     0.00000   0.71965   0.38219   0.00000  Uiso   1.00
Zn525  Zn    0.04333   0.75000   0.20067   0.00000  Uiso   1.00
Zn526  Zn    0.20667   0.50000   0.29933   0.00000  Uiso   1.00
Zn527  Zn    0.00000   0.70667   0.70067   0.00000  Uiso   1.00
Zn528  Zn    0.00000   0.79333   0.29933   0.00000  Uiso   1.00
Zn529  Zn    0.20667   0.50000   0.70067   0.00000  Uiso   1.00
Zn530  Zn    0.29333   0.50000   0.29933   0.00000  Uiso   1.00
Zn531  Zn    0.00000   0.79333   0.70067   0.00000  Uiso   1.00
Zn532  Zn    0.00000   0.70667   0.29933   0.00000  Uiso   1.00
Zn533  Zn    0.45667   0.75000   0.79933   0.00000  Uiso   1.00
Zn534  Zn    0.25000   0.95667   0.20067   0.00000  Uiso   1.00
Zn535  Zn    0.25000   0.54333   0.79933   0.00000  Uiso   1.00
Zn536  Zn    0.45667   0.75000   0.20067   0.00000  Uiso   1.00
Zn537  Zn    0.04333   0.75000   0.79933   0.00000  Uiso   1.00
Zn538  Zn    0.25000   0.54333   0.20067   0.00000  Uiso   1.00
Zn539  Zn    0.25000   0.95667   0.79933   0.00000  Uiso   1.00
Zn540  Zn    0.29333   0.50000   0.70067   0.00000  Uiso   1.00
Br541  Br    0.64708   0.78874   0.28285   0.00000  Uiso   1.00
Br542  Br    0.92217   0.85795   0.12558   0.00000  Uiso   1.00
Br543  Br    0.85683   0.57900   0.87517   0.00000  Uiso   1.00
Br544  Br    0.71126   0.85292   0.28285   0.00000  Uiso   1.00
Br545  Br    0.92062   0.85647   0.87542   0.00000  Uiso   1.00
Br546  Br    0.57782   0.64204   0.12558   0.00000  Uiso   1.00
Br547  Br    0.64317   0.92100   0.87517   0.00000  Uiso   1.00
Br548  Br    0.78874   0.64709   0.28282   0.00000  Uiso   1.00
Br549  Br    0.82900   0.60683   0.62482   0.00000  Uiso   1.00
Br550  Br    0.60292   0.96126   0.21715   0.00000  Uiso   1.00
Br551  Br    0.60647   0.67062   0.62458   0.00000  Uiso   1.00
Br552  Br    0.92100   0.64317   0.87517   0.00000  Uiso   1.00
Br553  Br    0.89205   0.82783   0.37442   0.00000  Uiso   1.00
Br554  Br    0.67100   0.89317   0.62482   0.00000  Uiso   1.00
Br555  Br    0.89709   0.53874   0.21718   0.00000  Uiso   1.00
Br556  Br    0.89353   0.82938   0.62457   0.00000  Uiso   1.00
Br557  Br    0.60796   0.67218   0.37442   0.00000  Uiso   1.00
Br558  Br    0.82783   0.89205   0.37442   0.00000  Uiso   1.00
Br559  Br    0.67062   0.60647   0.62458   0.00000  Uiso   1.00
Br560  Br    0.53874   0.89708   0.21715   0.00000  Uiso   1.00
Br561  Br    0.89317   0.67100   0.62482   0.00000  Uiso   1.00
Br562  Br    0.67218   0.60796   0.37442   0.00000  Uiso   1.00
Br563  Br    0.85795   0.92217   0.12558   0.00000  Uiso   1.00
Br564  Br    0.82938   0.89353   0.62457   0.00000  Uiso   1.00
Br565  Br    0.96126   0.60291   0.21718   0.00000  Uiso   1.00
Br566  Br    0.60683   0.82900   0.62482   0.00000  Uiso   1.00
Br567  Br    0.64353   0.57938   0.87542   0.00000  Uiso   1.00
Br568  Br    0.85291   0.71126   0.28282   0.00000  Uiso   1.00
Br569  Br    0.57900   0.85683   0.87517   0.00000  Uiso   1.00
Br570  Br    0.64204   0.57782   0.12558   0.00000  Uiso   1.00
Br571  Br    0.85647   0.92062   0.87542   0.00000  Uiso   1.00
Br572  Br    0.57938   0.64353   0.87542   0.00000  Uiso   1.00
C573   C     0.50000   0.75000   0.02665   0.00000  Uiso   1.00
C574   C     0.50000   0.75000   0.58989   0.00000  Uiso   1.00
C575   C     0.75000   0.50000   0.41011   0.00000  Uiso   1.00
C576   C     0.75000   0.50000   0.58989   0.00000  Uiso   1.00
C577   C     0.75000   0.50000   0.91011   0.00000  Uiso   1.00
C578   C     0.75000   0.50000   0.08989   0.00000  Uiso   1.00
C579   C     0.50000   0.75000   0.91011   0.00000  Uiso   1.00
C580   C     0.50000   0.75000   0.08989   0.00000  Uiso   1.00
C581   C     0.57003   0.67997   0.25000   0.00000  Uiso   1.00
C582   C     0.92997   0.82003   0.75000   0.00000  Uiso   1.00
C583   C     0.67997   0.92997   0.25000   0.00000  Uiso   1.00
C584   C     0.50000   0.75000   0.97334   0.00000  Uiso   1.00
C585   C     0.82003   0.57003   0.75000   0.00000  Uiso   1.00
C586   C     0.92997   0.82003   0.25000   0.00000  Uiso   1.00
C587   C     0.57003   0.67997   0.75000   0.00000  Uiso   1.00
C588   C     0.82003   0.57003   0.25000   0.00000  Uiso   1.00
C589   C     0.67997   0.92997   0.75000   0.00000  Uiso   1.00
C590   C     0.57003   0.82003   0.75000   0.00000  Uiso   1.00
C591   C     0.92997   0.67997   0.25000   0.00000  Uiso   1.00
C592   C     0.67997   0.57003   0.75000   0.00000  Uiso   1.00
C593   C     0.82003   0.92997   0.25000   0.00000  Uiso   1.00
C594   C     0.92997   0.67997   0.75000   0.00000  Uiso   1.00
C595   C     0.75000   0.50000   0.02665   0.00000  Uiso   1.00
C596   C     0.57003   0.82003   0.25000   0.00000  Uiso   1.00
C597   C     0.82003   0.92997   0.75000   0.00000  Uiso   1.00
C598   C     0.67997   0.57003   0.25000   0.00000  Uiso   1.00
C599   C     0.63449   0.83849   0.26264   0.00000  Uiso   1.00
C600   C     0.89385   0.63316   0.80314   0.00000  Uiso   1.00
C601   C     0.86734   0.89436   0.19715   0.00000  Uiso   1.00
C602   C     0.63332   0.60631   0.80323   0.00000  Uiso   1.00
C603   C     0.86551   0.66151   0.26263   0.00000  Uiso   1.00
C604   C     0.60615   0.86684   0.80314   0.00000  Uiso   1.00
C605   C     0.63266   0.60564   0.19715   0.00000  Uiso   1.00
C606   C     0.75000   0.50000   0.97334   0.00000  Uiso   1.00
C607   C     0.86668   0.89369   0.80323   0.00000  Uiso   1.00
C608   C     0.60631   0.63332   0.80323   0.00000  Uiso   1.00
C609   C     0.89436   0.86734   0.19715   0.00000  Uiso   1.00
C610   C     0.86684   0.60615   0.80314   0.00000  Uiso   1.00
C611   C     0.66151   0.86551   0.26264   0.00000  Uiso   1.00
C612   C     0.89369   0.86668   0.80323   0.00000  Uiso   1.00
C613   C     0.60564   0.63266   0.19715   0.00000  Uiso   1.00
C614   C     0.63316   0.89385   0.80314   0.00000  Uiso   1.00
C615   C     0.83849   0.63449   0.26263   0.00000  Uiso   1.00
C616   C     0.85615   0.61684   0.69686   0.00000  Uiso   1.00
C617   C     0.75000   0.50000   0.52666   0.00000  Uiso   1.00
C618   C     0.61551   0.91151   0.23736   0.00000  Uiso   1.00
C619   C     0.61668   0.64369   0.69677   0.00000  Uiso   1.00
C620   C     0.88266   0.85564   0.30285   0.00000  Uiso   1.00
C621   C     0.64385   0.88316   0.69686   0.00000  Uiso   1.00
C622   C     0.88449   0.58849   0.23737   0.00000  Uiso   1.00
C623   C     0.88332   0.85631   0.69677   0.00000  Uiso   1.00
C624   C     0.61734   0.64436   0.30285   0.00000  Uiso   1.00
C625   C     0.85564   0.88266   0.30285   0.00000  Uiso   1.00
C626   C     0.64369   0.61668   0.69677   0.00000  Uiso   1.00
C627   C     0.58849   0.88449   0.23736   0.00000  Uiso   1.00
C628   C     0.75000   0.50000   0.47335   0.00000  Uiso   1.00
C629   C     0.88316   0.64385   0.69686   0.00000  Uiso   1.00
C630   C     0.64436   0.61734   0.30285   0.00000  Uiso   1.00
C631   C     0.85631   0.88332   0.69677   0.00000  Uiso   1.00
C632   C     0.91151   0.61551   0.23737   0.00000  Uiso   1.00
C633   C     0.61684   0.85615   0.69686   0.00000  Uiso   1.00
C634   C     0.65191   0.90191   0.25000   0.00000  Uiso   1.00
C635   C     0.84809   0.59809   0.75000   0.00000  Uiso   1.00
C636   C     0.90191   0.84809   0.25000   0.00000  Uiso   1.00
C637   C     0.59809   0.65191   0.75000   0.00000  Uiso   1.00
C638   C     0.84809   0.59809   0.25000   0.00000  Uiso   1.00
C639   C     0.50000   0.75000   0.52666   0.00000  Uiso   1.00
C640   C     0.65191   0.90191   0.75000   0.00000  Uiso   1.00
C641   C     0.59809   0.65191   0.25000   0.00000  Uiso   1.00
C642   C     0.90191   0.84809   0.75000   0.00000  Uiso   1.00
C643   C     0.65191   0.59809   0.75000   0.00000  Uiso   1.00
C644   C     0.84809   0.90191   0.25000   0.00000  Uiso   1.00
C645   C     0.90191   0.65191   0.75000   0.00000  Uiso   1.00
C646   C     0.59809   0.84809   0.25000   0.00000  Uiso   1.00
C647   C     0.84809   0.90191   0.75000   0.00000  Uiso   1.00
C648   C     0.65191   0.59809   0.25000   0.00000  Uiso   1.00
C649   C     0.59809   0.84809   0.75000   0.00000  Uiso   1.00
C650   C     0.50000   0.75000   0.47335   0.00000  Uiso   1.00
C651   C     0.90191   0.65191   0.25000   0.00000  Uiso   1.00
C652   C     0.50000   0.75000   0.41011   0.00000  Uiso   1.00
O653   O     0.50000   0.75000   0.25000   0.00000  Uiso   1.00
O654   O     0.50000   0.78036   0.61781   0.00000  Uiso   1.00
O655   O     0.71965   0.50000   0.38219   0.00000  Uiso   1.00
O656   O     0.78036   0.50000   0.61781   0.00000  Uiso   1.00
O657   O     0.75000   0.53036   0.88219   0.00000  Uiso   1.00
O658   O     0.75000   0.96965   0.11781   0.00000  Uiso   1.00
O659   O     0.53036   0.75000   0.88219   0.00000  Uiso   1.00
O660   O     0.96965   0.75000   0.11781   0.00000  Uiso   1.00
O661   O     0.75000   0.96965   0.88219   0.00000  Uiso   1.00
O662   O     0.75000   0.53036   0.11781   0.00000  Uiso   1.00
O663   O     0.96965   0.75000   0.88219   0.00000  Uiso   1.00
O664   O     0.50000   0.75000   0.75000   0.00000  Uiso   1.00
O665   O     0.53036   0.75000   0.11781   0.00000  Uiso   1.00
O666   O     0.54268   0.67693   0.28474   0.00000  Uiso   1.00
O667   O     0.95733   0.82308   0.71526   0.00000  Uiso   1.00
O668   O     0.67693   0.95733   0.28474   0.00000  Uiso   1.00
O669   O     0.82308   0.54268   0.71526   0.00000  Uiso   1.00
O670   O     0.95733   0.82308   0.28474   0.00000  Uiso   1.00
O671   O     0.54268   0.67693   0.71526   0.00000  Uiso   1.00
O672   O     0.82308   0.54268   0.28474   0.00000  Uiso   1.00
O673   O     0.67693   0.95733   0.71526   0.00000  Uiso   1.00
O674   O     0.54268   0.82308   0.71526   0.00000  Uiso   1.00
O675   O     0.75000   0.50000   0.25000   0.00000  Uiso   1.00
O676   O     0.95733   0.67693   0.28474   0.00000  Uiso   1.00
O677   O     0.67693   0.54268   0.71526   0.00000  Uiso   1.00
O678   O     0.82308   0.95733   0.28474   0.00000  Uiso   1.00
O679   O     0.95733   0.67693   0.71526   0.00000  Uiso   1.00
O680   O     0.54268   0.82308   0.28474   0.00000  Uiso   1.00
O681   O     0.82308   0.95733   0.71526   0.00000  Uiso   1.00
O682   O     0.67693   0.54268   0.28474   0.00000  Uiso   1.00
O683   O     0.79268   0.92693   0.78474   0.00000  Uiso   1.00
O684   O     0.70733   0.57308   0.21526   0.00000  Uiso   1.00
O685   O     0.92693   0.70733   0.78474   0.00000  Uiso   1.00
O686   O     0.75000   0.50000   0.75000   0.00000  Uiso   1.00
O687   O     0.57308   0.79268   0.21526   0.00000  Uiso   1.00
O688   O     0.70733   0.57308   0.78474   0.00000  Uiso   1.00
O689   O     0.79268   0.92693   0.21526   0.00000  Uiso   1.00
O690   O     0.57308   0.79268   0.78474   0.00000  Uiso   1.00
O691   O     0.92693   0.70733   0.21526   0.00000  Uiso   1.00
O692   O     0.79268   0.57308   0.21526   0.00000  Uiso   1.00
O693   O     0.70733   0.92693   0.78474   0.00000  Uiso   1.00
O694   O     0.92693   0.79268   0.21526   0.00000  Uiso   1.00
O695   O     0.57308   0.70733   0.78474   0.00000  Uiso   1.00
O696   O     0.70733   0.92693   0.21526   0.00000  Uiso   1.00
O697   O     0.50000   0.78036   0.38219   0.00000  Uiso   1.00
O698   O     0.79268   0.57308   0.78474   0.00000  Uiso   1.00
O699   O     0.57308   0.70733   0.21526   0.00000  Uiso   1.00
O700   O     0.92693   0.79268   0.78474   0.00000  Uiso   1.00
O701   O     0.50000   0.71965   0.61781   0.00000  Uiso   1.00
O702   O     0.78036   0.50000   0.38219   0.00000  Uiso   1.00
O703   O     0.71965   0.50000   0.61781   0.00000  Uiso   1.00
O704   O     0.50000   0.71965   0.38219   0.00000  Uiso   1.00
Zn705  Zn    0.54333   0.75000   0.20067   0.00000  Uiso   1.00
Zn706  Zn    0.70667   0.50000   0.29933   0.00000  Uiso   1.00
Zn707  Zn    0.50000   0.70667   0.70067   0.00000  Uiso   1.00
Zn708  Zn    0.50000   0.79333   0.29933   0.00000  Uiso   1.00
Zn709  Zn    0.70667   0.50000   0.70067   0.00000  Uiso   1.00
Zn710  Zn    0.79333   0.50000   0.29933   0.00000  Uiso   1.00
Zn711  Zn    0.50000   0.79333   0.70067   0.00000  Uiso   1.00
Zn712  Zn    0.50000   0.70667   0.29933   0.00000  Uiso   1.00
Zn713  Zn    0.95667   0.75000   0.79933   0.00000  Uiso   1.00
Zn714  Zn    0.75000   0.95667   0.20067   0.00000  Uiso   1.00
Zn715  Zn    0.75000   0.54333   0.79933   0.00000  Uiso   1.00
Zn716  Zn    0.95667   0.75000   0.20067   0.00000  Uiso   1.00
Zn717  Zn    0.54333   0.75000   0.79933   0.00000  Uiso   1.00
Zn718  Zn    0.75000   0.54333   0.20067   0.00000  Uiso   1.00
Zn719  Zn    0.75000   0.95667   0.79933   0.00000  Uiso   1.00
Zn720  Zn    0.79333   0.50000   0.70067   0.00000  Uiso   1.00
loop_
_geom_bond_atom_site_label_1
_geom_bond_atom_site_label_2
_geom_bond_distance
_geom_bond_site_symmetry_2
_ccdc_geom_bond_type
Br1    C59     1.933   .     S
Br2    C69     1.933   .     S
Br3    C70     1.933   .     S
Br4    C71     1.933   .     S
Br5    C72     1.933   .     S
Br6    C73     1.933   .     S
Br7    C74     1.933   .     S
Br8    C75     1.933   .     S
Br9    C76     1.933   .     S
Br10   C78     1.933   .     S
Br11   C79     1.933   .     S
Br12   C60     1.933   .     S
Br13   C80     1.933   .     S
Br14   C81     1.933   .     S
Br15   C82     1.933   .     S
Br16   C83     1.933   .     S
Br17   C84     1.933   .     S
Br18   C85     1.933   .     S
Br19   C86     1.933   .     S
Br20   C87     1.933   .     S
Br21   C89     1.933   .     S
Br22   C90     1.933   .     S
Br23   C61     1.933   .     S
Br24   C91     1.933   .     S
Br25   C92     1.933   .     S
Br26   C93     1.933   .     S
Br27   C62     1.933   .     S
Br28   C63     1.933   .     S
Br29   C64     1.933   .     S
Br30   C65     1.933   .     S
Br31   C67     1.933   .     S
Br32   C68     1.933   .     S
C33    C40     1.419   .     S
C33    C44     1.196   1_554 S
C34    C99     1.419   .     S
C34    O161    1.276   .     A
C34    O114    1.276   .     A
C35    C88     1.419   .     S
C35    O115    1.276   .     S
C35    O162    1.276   .     S
C36    C77     1.419   .     S
C36    O163    1.276   .     A
C36    O116    1.276   .     A
C37    O481    1.276   1_545 A
C37    C66     1.419   .     S
C37    O117    1.276   .     S
C38    C55     1.419   .     S
C38    O478    1.276   1_545 A
C38    O122    1.276   .     S
C39    O119    1.276   .     A
C39    C44     1.419   .     S
C39    O303    1.276   1_455 S
C40    O300    1.276   1_455 A
C40    O125    1.276   .     S
C41    O159    1.274   .     A
C41    O126    1.274   .     A
C41    C101    1.453   .     S
C42    C102    1.453   .     S
C42    O127    1.274   .     A
C42    O160    1.274   .     A
C43    C94     1.453   .     S
C43    O156    1.274   .     A
C43    O128    1.274   .     A
C44    C33     1.196   1_556 S
C45    O129    1.274   .     A
C45    O158    1.274   .     A
C45    C95     1.453   .     S
C46    O154    1.274   .     A
C46    O130    1.274   .     A
C46    C96     1.453   .     S
C47    O131    1.274   .     A
C47    C97     1.453   .     S
C47    O155    1.274   .     A
C48    O152    1.274   .     A
C48    C98     1.453   .     S
C48    O132    1.274   .     A
C49    O153    1.274   .     A
C49    O133    1.274   .     A
C49    C100    1.453   .     S
C50    O134    1.274   .     A
C50    C109    1.453   .     S
C50    O150    1.274   .     A
C51    O136    1.274   .     A
C51    O151    1.274   .     A
C51    C111    1.453   .     S
C52    C103    1.453   .     S
C52    O148    1.274   .     A
C52    O137    1.274   .     A
C53    C104    1.453   .     S
C53    O149    1.274   .     A
C53    O138    1.274   .     A
C54    O139    1.274   .     A
C54    O145    1.274   .     A
C54    C105    1.453   .     S
C55    C66     1.196   1_554 S
C56    O140    1.274   .     A
C56    C106    1.453   .     S
C56    O147    1.274   .     A
C57    O143    1.274   .     A
C57    C107    1.453   .     S
C57    O141    1.274   .     A
C58    O144    1.274   .     A
C58    O142    1.274   .     A
C58    C108    1.453   .     S
C59    C106    1.408   .     A
C59    C71     1.399   .     A
C60    C70     1.399   .     A
C60    C105    1.407   .     A
C61    C104    1.407   .     A
C61    C69     1.399   .     A
C62    C103    1.407   .     A
C62    C68     1.399   .     A
C63    C75     1.399   .     A
C63    C111    1.408   .     A
C64    C109    1.407   .     A
C64    C74     1.399   .     A
C65    C108    1.407   .     A
C65    C73     1.399   .     A
C66    C55     1.196   1_556 S
C67    C72     1.399   .     A
C67    C107    1.407   .     A
C68    C97     1.407   .     A
C69    C96     1.407   .     A
C70    C95     1.407   .     A
C71    C94     1.408   .     A
C72    C102    1.407   .     A
C73    C101    1.407   .     A
C74    C100    1.407   .     A
C75    C98     1.408   .     A
C76    C95     1.407   .     A
C76    C89     1.399   .     A
C77    C88     1.196   .     S
C78    C87     1.399   .     A
C78    C94     1.408   .     A
C79    C97     1.407   .     A
C79    C86     1.399   .     A
C80    C85     1.399   .     A
C80    C96     1.407   .     A
C81    C93     1.399   .     A
C81    C100    1.407   .     A
C82    C92     1.399   .     A
C82    C98     1.408   .     A
C83    C102    1.407   .     A
C83    C91     1.399   .     A
C84    C101    1.407   .     A
C84    C90     1.399   .     A
C85    C104    1.407   .     A
C86    C103    1.407   .     A
C87    C106    1.407   .     A
C89    C105    1.407   .     A
C90    C108    1.407   .     A
C91    C107    1.407   .     A
C92    C111    1.408   .     A
C93    C109    1.407   .     A
C99    C110    1.196   .     T
C110   C112    1.419   .     S
C112   O164    1.276   .     A
C112   O157    1.276   .     A
O113   Zn168   1.935   .     S
O113   Zn165   1.935   .     S
O113   Zn172   1.935   .     S
O113   Zn356   1.935   1_455 S
O114   Zn171   1.919   .     S
O115   Zn166   1.919   .     S
O116   Zn180   1.919   .     S
O117   Zn175   1.919   .     S
O118   C398    1.276   .     A
O118   Zn174   1.919   .     S
O119   Zn177   1.919   .     S
O120   Zn176   1.919   .     S
O120   C220    1.276   .     A
O121   Zn179   1.919   .     S
O121   C397    1.276   .     A
O122   Zn178   1.919   .     S
O123   Zn173   1.919   .     S
O123   C219    1.276   .     S
O124   Zn171   1.935   .     S
O124   Zn167   1.935   .     S
O124   Zn177   1.935   .     S
O124   Zn353   1.935   1_455 S
O125   Zn165   1.919   .     S
O126   Zn172   1.933   .     S
O127   Zn351   1.933   .     S
O128   Zn526   1.933   .     S
O129   Zn180   1.933   .     S
O130   Zn348   1.933   .     S
O131   Zn167   1.933   .     S
O132   Zn170   1.933   .     S
O133   Zn529   1.933   .     S
O134   Zn171   1.933   .     S
O135   Zn170   1.935   .     S
O135   Zn178   1.935   .     S
O135   Zn166   1.935   .     S
O135   Zn534   1.935   1_545 S
O136   Zn352   1.933   .     S
O137   Zn169   1.933   .     S
O138   Zn530   1.933   .     S
O139   Zn347   1.933   .     S
O140   Zn168   1.933   .     S
O141   Zn540   1.933   .     S
O142   Zn166   1.933   .     S
O143   Zn179   1.933   .     S
O144   Zn178   1.933   .     S
O145   Zn173   1.933   .     S
O146   Zn539   1.935   1_545 S
O146   Zn169   1.935   .     S
O146   Zn175   1.935   .     S
O146   Zn180   1.935   .     S
O147   Zn165   1.933   .     S
O148   Zn175   1.933   .     S
O149   Zn174   1.933   .     S
O150   Zn177   1.933   .     S
O151   Zn176   1.933   .     S
O152   Zn178   1.933   .     S
O153   Zn179   1.933   .     S
O154   Zn176   1.933   .     S
O155   Zn177   1.933   .     S
O156   Zn174   1.933   .     S
O157   Zn168   1.919   .     S
O158   Zn175   1.933   .     S
O159   Zn165   1.933   .     S
O160   Zn173   1.933   .     S
O161   Zn167   1.919   .     S
O162   Zn170   1.919   .     S
O163   Zn169   1.919   .     S
O164   Zn172   1.919   .     S
Zn166  O488    1.933   1_545 S
Zn167  O319    1.933   1_455 S
Zn168  O310    1.933   1_455 S
Zn169  O493    1.933   1_545 S
Zn170  O498    1.933   1_545 S
Zn171  O307    1.933   1_455 S
Zn172  O316    1.933   1_455 S
Zn173  O304    1.935   .     S
Zn174  O495    1.935   .     S
Zn176  O293    1.935   .     S
Zn179  O506    1.935   .     S
Zn180  O501    1.933   1_545 S
Br181  C239    1.933   .     S
Br182  C249    1.933   .     S
Br183  C250    1.933   .     S
Br184  C251    1.933   .     S
Br185  C252    1.933   .     S
Br186  C253    1.933   .     S
Br187  C254    1.933   .     S
Br188  C255    1.933   .     S
Br189  C256    1.933   .     S
Br190  C258    1.933   .     S
Br191  C259    1.933   .     S
Br192  C240    1.933   .     S
Br193  C260    1.933   .     S
Br194  C261    1.933   .     S
Br195  C262    1.933   .     S
Br196  C263    1.933   .     S
Br197  C264    1.933   .     S
Br198  C265    1.933   .     S
Br199  C266    1.933   .     S
Br200  C267    1.933   .     S
Br201  C269    1.933   .     S
Br202  C270    1.933   .     S
Br203  C241    1.933   .     S
Br204  C271    1.933   .     S
Br205  C272    1.933   .     S
Br206  C273    1.933   .     S
Br207  C242    1.933   .     S
Br208  C243    1.933   .     S
Br209  C244    1.933   .     S
Br210  C245    1.933   .     S
Br211  C247    1.933   .     S
Br212  C248    1.933   .     S
C213   C220    1.419   .     S
C213   C224    1.196   1_554 S
C214   C279    1.419   .     S
C214   O341    1.276   .     A
C214   O294    1.276   .     A
C215   C268    1.419   .     S
C215   O295    1.276   .     S
C215   O342    1.276   .     S
C216   C257    1.419   .     S
C216   O343    1.276   .     A
C216   O296    1.276   .     A
C217   O661    1.276   1_545 A
C217   C246    1.419   .     S
C217   O297    1.276   .     S
C218   C235    1.419   .     S
C218   O658    1.276   1_545 A
C218   O302    1.276   .     S
C219   O299    1.276   .     A
C219   C224    1.419   .     S
C220   O305    1.276   .     S
C221   O339    1.274   .     A
C221   O306    1.274   .     A
C221   C281    1.453   .     S
C222   C282    1.453   .     S
C222   O307    1.274   .     A
C222   O340    1.274   .     A
C223   C274    1.453   .     S
C223   O336    1.274   .     A
C223   O308    1.274   .     A
C224   C213    1.196   1_556 S
C225   O309    1.274   .     A
C225   O338    1.274   .     A
C225   C275    1.453   .     S
C226   O334    1.274   .     A
C226   O310    1.274   .     A
C226   C276    1.453   .     S
C227   O311    1.274   .     A
C227   C277    1.453   .     S
C227   O335    1.274   .     A
C228   O332    1.274   .     A
C228   C278    1.453   .     S
C228   O312    1.274   .     A
C229   O333    1.274   .     A
C229   O313    1.274   .     A
C229   C280    1.453   .     S
C230   O314    1.274   .     A
C230   C289    1.453   .     S
C230   O330    1.274   .     A
C231   O316    1.274   .     A
C231   O331    1.274   .     A
C231   C291    1.453   .     S
C232   C283    1.453   .     S
C232   O328    1.274   .     A
C232   O317    1.274   .     A
C233   C284    1.453   .     S
C233   O329    1.274   .     A
C233   O318    1.274   .     A
C234   O319    1.274   .     A
C234   O325    1.274   .     A
C234   C285    1.453   .     S
C235   C246    1.196   1_554 S
C236   O320    1.274   .     A
C236   C286    1.453   .     S
C236   O327    1.274   .     A
C237   O323    1.274   .     A
C237   C287    1.453   .     S
C237   O321    1.274   .     A
C238   O324    1.274   .     A
C238   O322    1.274   .     A
C238   C288    1.453   .     S
C239   C286    1.408   .     A
C239   C251    1.399   .     A
C240   C250    1.399   .     A
C240   C285    1.407   .     A
C241   C284    1.407   .     A
C241   C249    1.399   .     A
C242   C283    1.407   .     A
C242   C248    1.399   .     A
C243   C255    1.399   .     A
C243   C291    1.408   .     A
C244   C289    1.407   .     A
C244   C254    1.399   .     A
C245   C288    1.407   .     A
C245   C253    1.399   .     A
C246   C235    1.196   1_556 S
C247   C252    1.399   .     A
C247   C287    1.407   .     A
C248   C277    1.407   .     A
C249   C276    1.407   .     A
C250   C275    1.407   .     A
C251   C274    1.408   .     A
C252   C282    1.407   .     A
C253   C281    1.407   .     A
C254   C280    1.407   .     A
C255   C278    1.408   .     A
C256   C275    1.407   .     A
C256   C269    1.399   .     A
C257   C268    1.196   .     S
C258   C267    1.399   .     A
C258   C274    1.408   .     A
C259   C277    1.407   .     A
C259   C266    1.399   .     A
C260   C265    1.399   .     A
C260   C276    1.407   .     A
C261   C273    1.399   .     A
C261   C280    1.407   .     A
C262   C272    1.399   .     A
C262   C278    1.408   .     A
C263   C282    1.407   .     A
C263   C271    1.399   .     A
C264   C281    1.407   .     A
C264   C270    1.399   .     A
C265   C284    1.407   .     A
C266   C283    1.407   .     A
C267   C286    1.407   .     A
C269   C285    1.407   .     A
C270   C288    1.407   .     A
C271   C287    1.407   .     A
C272   C291    1.408   .     A
C273   C289    1.407   .     A
C279   C290    1.196   .     T
C290   C292    1.419   .     S
C292   O344    1.276   .     A
C292   O337    1.276   .     A
O293   Zn348   1.935   .     S
O293   Zn345   1.935   .     S
O293   Zn352   1.935   .     S
O294   Zn351   1.919   .     S
O295   Zn346   1.919   .     S
O296   Zn360   1.919   .     S
O297   Zn355   1.919   .     S
O298   C578    1.276   .     A
O298   Zn354   1.919   .     S
O299   Zn357   1.919   .     S
O300   Zn356   1.919   .     S
O300   C40     1.276   1_655 A
O301   Zn359   1.919   .     S
O301   C577    1.276   .     A
O302   Zn358   1.919   .     S
O303   Zn353   1.919   .     S
O303   C39     1.276   1_655 S
O304   Zn351   1.935   .     S
O304   Zn347   1.935   .     S
O304   Zn357   1.935   .     S
O305   Zn345   1.919   .     S
O306   Zn352   1.933   .     S
O307   Zn171   1.933   1_655 S
O308   Zn706   1.933   .     S
O309   Zn360   1.933   .     S
O310   Zn168   1.933   1_655 S
O311   Zn347   1.933   .     S
O312   Zn350   1.933   .     S
O313   Zn709   1.933   .     S
O314   Zn351   1.933   .     S
O315   Zn350   1.935   .     S
O315   Zn358   1.935   .     S
O315   Zn346   1.935   .     S
O315   Zn714   1.935   1_545 S
O316   Zn172   1.933   1_655 S
O317   Zn349   1.933   .     S
O318   Zn710   1.933   .     S
O319   Zn167   1.933   1_655 S
O320   Zn348   1.933   .     S
O321   Zn720   1.933   .     S
O322   Zn346   1.933   .     S
O323   Zn359   1.933   .     S
O324   Zn358   1.933   .     S
O325   Zn353   1.933   .     S
O326   Zn719   1.935   1_545 S
O326   Zn349   1.935   .     S
O326   Zn355   1.935   .     S
O326   Zn360   1.935   .     S
O327   Zn345   1.933   .     S
O328   Zn355   1.933   .     S
O329   Zn354   1.933   .     S
O330   Zn357   1.933   .     S
O331   Zn356   1.933   .     S
O332   Zn358   1.933   .     S
O333   Zn359   1.933   .     S
O334   Zn356   1.933   .     S
O335   Zn357   1.933   .     S
O336   Zn354   1.933   .     S
O337   Zn348   1.919   .     S
O338   Zn355   1.933   .     S
O339   Zn345   1.933   .     S
O340   Zn353   1.933   .     S
O341   Zn347   1.919   .     S
O342   Zn350   1.919   .     S
O343   Zn349   1.919   .     S
O344   Zn352   1.919   .     S
Zn346  O668    1.933   1_545 S
Zn349  O673    1.933   1_545 S
Zn350  O678    1.933   1_545 S
Zn353  O124    1.935   1_655 S
Zn354  O675    1.935   .     S
Zn356  O113    1.935   1_655 S
Zn359  O686    1.935   .     S
Zn360  O681    1.933   1_545 S
Br361  C419    1.933   .     S
Br362  C429    1.933   .     S
Br363  C430    1.933   .     S
Br364  C431    1.933   .     S
Br365  C432    1.933   .     S
Br366  C433    1.933   .     S
Br367  C434    1.933   .     S
Br368  C435    1.933   .     S
Br369  C436    1.933   .     S
Br370  C438    1.933   .     S
Br371  C439    1.933   .     S
Br372  C420    1.933   .     S
Br373  C440    1.933   .     S
Br374  C441    1.933   .     S
Br375  C442    1.933   .     S
Br376  C443    1.933   .     S
Br377  C444    1.933   .     S
Br378  C445    1.933   .     S
Br379  C446    1.933   .     S
Br380  C447    1.933   .     S
Br381  C449    1.933   .     S
Br382  C450    1.933   .     S
Br383  C421    1.933   .     S
Br384  C451    1.933   .     S
Br385  C452    1.933   .     S
Br386  C453    1.933   .     S
Br387  C422    1.933   .     S
Br388  C423    1.933   .     S
Br389  C424    1.933   .     S
Br390  C425    1.933   .     S
Br391  C427    1.933   .     S
Br392  C428    1.933   .     S
C393   C400    1.419   .     S
C393   C404    1.196   1_554 S
C394   C459    1.419   .     S
C394   O521    1.276   .     A
C394   O474    1.276   .     A
C395   C448    1.419   .     S
C395   O475    1.276   .     S
C395   O522    1.276   .     S
C396   C437    1.419   .     S
C396   O523    1.276   .     A
C396   O476    1.276   .     A
C397   C426    1.419   .     S
C397   O477    1.276   .     S
C398   C415    1.419   .     S
C398   O482    1.276   .     S
C399   O479    1.276   .     A
C399   C404    1.419   .     S
C399   O663    1.276   1_455 S
C400   O660    1.276   1_455 A
C400   O485    1.276   .     S
C401   O519    1.274   .     A
C401   O486    1.274   .     A
C401   C461    1.453   .     S
C402   C462    1.453   .     S
C402   O487    1.274   .     A
C402   O520    1.274   .     A
C403   C454    1.453   .     S
C403   O516    1.274   .     A
C403   O488    1.274   .     A
C404   C393    1.196   1_556 S
C405   O489    1.274   .     A
C405   O518    1.274   .     A
C405   C455    1.453   .     S
C406   O514    1.274   .     A
C406   O490    1.274   .     A
C406   C456    1.453   .     S
C407   O491    1.274   .     A
C407   C457    1.453   .     S
C407   O515    1.274   .     A
C408   O512    1.274   .     A
C408   C458    1.453   .     S
C408   O492    1.274   .     A
C409   O513    1.274   .     A
C409   O493    1.274   .     A
C409   C460    1.453   .     S
C410   O494    1.274   .     A
C410   C469    1.453   .     S
C410   O510    1.274   .     A
C411   O496    1.274   .     A
C411   O511    1.274   .     A
C411   C471    1.453   .     S
C412   C463    1.453   .     S
C412   O508    1.274   .     A
C412   O497    1.274   .     A
C413   C464    1.453   .     S
C413   O509    1.274   .     A
C413   O498    1.274   .     A
C414   O499    1.274   .     A
C414   O505    1.274   .     A
C414   C465    1.453   .     S
C415   C426    1.196   1_554 S
C416   O500    1.274   .     A
C416   C466    1.453   .     S
C416   O507    1.274   .     A
C417   O503    1.274   .     A
C417   C467    1.453   .     S
C417   O501    1.274   .     A
C418   O504    1.274   .     A
C418   O502    1.274   .     A
C418   C468    1.453   .     S
C419   C466    1.408   .     A
C419   C431    1.399   .     A
C420   C430    1.399   .     A
C420   C465    1.407   .     A
C421   C464    1.407   .     A
C421   C429    1.399   .     A
C422   C463    1.407   .     A
C422   C428    1.399   .     A
C423   C435    1.399   .     A
C423   C471    1.408   .     A
C424   C469    1.407   .     A
C424   C434    1.399   .     A
C425   C468    1.407   .     A
C425   C433    1.399   .     A
C426   C415    1.196   1_556 S
C427   C432    1.399   .     A
C427   C467    1.407   .     A
C428   C457    1.407   .     A
C429   C456    1.407   .     A
C430   C455    1.407   .     A
C431   C454    1.408   .     A
C432   C462    1.407   .     A
C433   C461    1.407   .     A
C434   C460    1.407   .     A
C435   C458    1.408   .     A
C436   C455    1.407   .     A
C436   C449    1.399   .     A
C437   C448    1.196   .     S
C438   C447    1.399   .     A
C438   C454    1.408   .     A
C439   C457    1.407   .     A
C439   C446    1.399   .     A
C440   C445    1.399   .     A
C440   C456    1.407   .     A
C441   C453    1.399   .     A
C441   C460    1.407   .     A
C442   C452    1.399   .     A
C442   C458    1.408   .     A
C443   C462    1.407   .     A
C443   C451    1.399   .     A
C444   C461    1.407   .     A
C444   C450    1.399   .     A
C445   C464    1.407   .     A
C446   C463    1.407   .     A
C447   C466    1.407   .     A
C449   C465    1.407   .     A
C450   C468    1.407   .     A
C451   C467    1.407   .     A
C452   C471    1.408   .     A
C453   C469    1.407   .     A
C459   C470    1.196   .     T
C470   C472    1.419   .     S
C472   O524    1.276   .     A
C472   O517    1.276   .     A
O473   Zn528   1.935   .     S
O473   Zn525   1.935   .     S
O473   Zn532   1.935   .     S
O473   Zn716   1.935   1_455 S
O474   Zn531   1.919   .     S
O475   Zn526   1.919   .     S
O476   Zn540   1.919   .     S
O477   Zn535   1.919   .     S
O478   C38     1.276   1_565 A
O478   Zn534   1.919   .     S
O479   Zn537   1.919   .     S
O480   Zn536   1.919   .     S
O480   C580    1.276   .     A
O481   Zn539   1.919   .     S
O481   C37     1.276   1_565 A
O482   Zn538   1.919   .     S
O483   Zn533   1.919   .     S
O483   C579    1.276   .     S
O484   Zn531   1.935   .     S
O484   Zn527   1.935   .     S
O484   Zn537   1.935   .     S
O484   Zn713   1.935   1_455 S
O485   Zn525   1.919   .     S
O486   Zn532   1.933   .     S
O487   Zn711   1.933   .     S
O488   Zn166   1.933   1_565 S
O489   Zn540   1.933   .     S
O490   Zn708   1.933   .     S
O491   Zn527   1.933   .     S
O492   Zn530   1.933   .     S
O493   Zn169   1.933   1_565 S
O494   Zn531   1.933   .     S
O495   Zn530   1.935   .     S
O495   Zn538   1.935   .     S
O495   Zn526   1.935   .     S
O496   Zn712   1.933   .     S
O497   Zn529   1.933   .     S
O498   Zn170   1.933   1_565 S
O499   Zn707   1.933   .     S
O500   Zn528   1.933   .     S
O501   Zn180   1.933   1_565 S
O502   Zn526   1.933   .     S
O503   Zn539   1.933   .     S
O504   Zn538   1.933   .     S
O505   Zn533   1.933   .     S
O506   Zn529   1.935   .     S
O506   Zn535   1.935   .     S
O506   Zn540   1.935   .     S
O507   Zn525   1.933   .     S
O508   Zn535   1.933   .     S
O509   Zn534   1.933   .     S
O510   Zn537   1.933   .     S
O511   Zn536   1.933   .     S
O512   Zn538   1.933   .     S
O513   Zn539   1.933   .     S
O514   Zn536   1.933   .     S
O515   Zn537   1.933   .     S
O516   Zn534   1.933   .     S
O517   Zn528   1.919   .     S
O518   Zn535   1.933   .     S
O519   Zn525   1.933   .     S
O520   Zn533   1.933   .     S
O521   Zn527   1.919   .     S
O522   Zn530   1.919   .     S
O523   Zn529   1.919   .     S
O524   Zn532   1.919   .     S
Zn527  O679    1.933   1_455 S
Zn528  O670    1.933   1_455 S
Zn531  O667    1.933   1_455 S
Zn532  O676    1.933   1_455 S
Zn533  O664    1.935   .     S
Zn534  O135    1.935   1_565 S
Zn536  O653    1.935   .     S
Zn539  O146    1.935   1_565 S
Br541  C599    1.933   .     S
Br542  C609    1.933   .     S
Br543  C610    1.933   .     S
Br544  C611    1.933   .     S
Br545  C612    1.933   .     S
Br546  C613    1.933   .     S
Br547  C614    1.933   .     S
Br548  C615    1.933   .     S
Br549  C616    1.933   .     S
Br550  C618    1.933   .     S
Br551  C619    1.933   .     S
Br552  C600    1.933   .     S
Br553  C620    1.933   .     S
Br554  C621    1.933   .     S
Br555  C622    1.933   .     S
Br556  C623    1.933   .     S
Br557  C624    1.933   .     S
Br558  C625    1.933   .     S
Br559  C626    1.933   .     S
Br560  C627    1.933   .     S
Br561  C629    1.933   .     S
Br562  C630    1.933   .     S
Br563  C601    1.933   .     S
Br564  C631    1.933   .     S
Br565  C632    1.933   .     S
Br566  C633    1.933   .     S
Br567  C602    1.933   .     S
Br568  C603    1.933   .     S
Br569  C604    1.933   .     S
Br570  C605    1.933   .     S
Br571  C607    1.933   .     S
Br572  C608    1.933   .     S
C573   C580    1.419   .     S
C573   C584    1.196   1_554 S
C574   C639    1.419   .     S
C574   O701    1.276   .     A
C574   O654    1.276   .     A
C575   C628    1.419   .     S
C575   O655    1.276   .     S
C575   O702    1.276   .     S
C576   C617    1.419   .     S
C576   O703    1.276   .     A
C576   O656    1.276   .     A
C577   C606    1.419   .     S
C577   O657    1.276   .     S
C578   C595    1.419   .     S
C578   O662    1.276   .     S
C579   O659    1.276   .     A
C579   C584    1.419   .     S
C580   O665    1.276   .     S
C581   O699    1.274   .     A
C581   O666    1.274   .     A
C581   C641    1.453   .     S
C582   C642    1.453   .     S
C582   O667    1.274   .     A
C582   O700    1.274   .     A
C583   C634    1.453   .     S
C583   O696    1.274   .     A
C583   O668    1.274   .     A
C584   C573    1.196   1_556 S
C585   O669    1.274   .     A
C585   O698    1.274   .     A
C585   C635    1.453   .     S
C586   O694    1.274   .     A
C586   O670    1.274   .     A
C586   C636    1.453   .     S
C587   O671    1.274   .     A
C587   C637    1.453   .     S
C587   O695    1.274   .     A
C588   O692    1.274   .     A
C588   C638    1.453   .     S
C588   O672    1.274   .     A
C589   O693    1.274   .     A
C589   O673    1.274   .     A
C589   C640    1.453   .     S
C590   O674    1.274   .     A
C590   C649    1.453   .     S
C590   O690    1.274   .     A
C591   O676    1.274   .     A
C591   O691    1.274   .     A
C591   C651    1.453   .     S
C592   C643    1.453   .     S
C592   O688    1.274   .     A
C592   O677    1.274   .     A
C593   C644    1.453   .     S
C593   O689    1.274   .     A
C593   O678    1.274   .     A
C594   O679    1.274   .     A
C594   O685    1.274   .     A
C594   C645    1.453   .     S
C595   C606    1.196   1_554 S
C596   O680    1.274   .     A
C596   C646    1.453   .     S
C596   O687    1.274   .     A
C597   O683    1.274   .     A
C597   C647    1.453   .     S
C597   O681    1.274   .     A
C598   O684    1.274   .     A
C598   O682    1.274   .     A
C598   C648    1.453   .     S
C599   C646    1.408   .     A
C599   C611    1.399   .     A
C600   C610    1.399   .     A
C600   C645    1.407   .     A
C601   C644    1.407   .     A
C601   C609    1.399   .     A
C602   C643    1.407   .     A
C602   C608    1.399   .     A
C603   C615    1.399   .     A
C603   C651    1.408   .     A
C604   C649    1.407   .     A
C604   C614    1.399   .     A
C605   C648    1.407   .     A
C605   C613    1.399   .     A
C606   C595    1.196   1_556 S
C607   C612    1.399   .     A
C607   C647    1.407   .     A
C608   C637    1.407   .     A
C609   C636    1.407   .     A
C610   C635    1.407   .     A
C611   C634    1.408   .     A
C612   C642    1.407   .     A
C613   C641    1.407   .     A
C614   C640    1.407   .     A
C615   C638    1.408   .     A
C616   C635    1.407   .     A
C616   C629    1.399   .     A
C617   C628    1.196   .     S
C618   C627    1.399   .     A
C618   C634    1.408   .     A
C619   C637    1.407   .     A
C619   C626    1.399   .     A
C620   C625    1.399   .     A
C620   C636    1.407   .     A
C621   C633    1.399   .     A
C621   C640    1.407   .     A
C622   C632    1.399   .     A
C622   C638    1.408   .     A
C623   C642    1.407   .     A
C623   C631    1.399   .     A
C624   C641    1.407   .     A
C624   C630    1.399   .     A
C625   C644    1.407   .     A
C626   C643    1.407   .     A
C627   C646    1.407   .     A
C629   C645    1.407   .     A
C630   C648    1.407   .     A
C631   C647    1.407   .     A
C632   C651    1.408   .     A
C633   C649    1.407   .     A
C639   C650    1.196   .     T
C650   C652    1.419   .     S
C652   O704    1.276   .     A
C652   O697    1.276   .     A
O653   Zn708   1.935   .     S
O653   Zn705   1.935   .     S
O653   Zn712   1.935   .     S
O654   Zn711   1.919   .     S
O655   Zn706   1.919   .     S
O656   Zn720   1.919   .     S
O657   Zn715   1.919   .     S
O658   C218    1.276   1_565 A
O658   Zn714   1.919   .     S
O659   Zn717   1.919   .     S
O660   Zn716   1.919   .     S
O660   C400    1.276   1_655 A
O661   Zn719   1.919   .     S
O661   C217    1.276   1_565 A
O662   Zn718   1.919   .     S
O663   Zn713   1.919   .     S
O663   C399    1.276   1_655 S
O664   Zn711   1.935   .     S
O664   Zn707   1.935   .     S
O664   Zn717   1.935   .     S
O665   Zn705   1.919   .     S
O666   Zn712   1.933   .     S
O667   Zn531   1.933   1_655 S
O668   Zn346   1.933   1_565 S
O669   Zn720   1.933   .     S
O670   Zn528   1.933   1_655 S
O671   Zn707   1.933   .     S
O672   Zn710   1.933   .     S
O673   Zn349   1.933   1_565 S
O674   Zn711   1.933   .     S
O675   Zn710   1.935   .     S
O675   Zn718   1.935   .     S
O675   Zn706   1.935   .     S
O676   Zn532   1.933   1_655 S
O677   Zn709   1.933   .     S
O678   Zn350   1.933   1_565 S
O679   Zn527   1.933   1_655 S
O680   Zn708   1.933   .     S
O681   Zn360   1.933   1_565 S
O682   Zn706   1.933   .     S
O683   Zn719   1.933   .     S
O684   Zn718   1.933   .     S
O685   Zn713   1.933   .     S
O686   Zn709   1.935   .     S
O686   Zn715   1.935   .     S
O686   Zn720   1.935   .     S
O687   Zn705   1.933   .     S
O688   Zn715   1.933   .     S
O689   Zn714   1.933   .     S
O690   Zn717   1.933   .     S
O691   Zn716   1.933   .     S
O692   Zn718   1.933   .     S
O693   Zn719   1.933   .     S
O694   Zn716   1.933   .     S
O695   Zn717   1.933   .     S
O696   Zn714   1.933   .     S
O697   Zn708   1.919   .     S
O698   Zn715   1.933   .     S
O699   Zn705   1.933   .     S
O700   Zn713   1.933   .     S
O701   Zn707   1.919   .     S
O702   Zn710   1.919   .     S
O703   Zn709   1.919   .     S
O704   Zn712   1.919   .     S
Zn713  O484    1.935   1_655 S
Zn714  O315    1.935   1_565 S
Zn716  O473    1.935   1_655 S
Zn719  O326    1.935   1_565 S
