data_str_m1_o10_o18_pcu_sym.120
_audit_creation_date              2020-01-03
_audit_creation_method            'Materials Studio'
_symmetry_space_group_name_H-M    'P1'
_symmetry_Int_Tables_number       1
_symmetry_cell_setting            triclinic
loop_
_symmetry_equiv_pos_as_xyz
  x,y,z
_cell_length_a                    32.5462
_cell_length_b                    32.6900
_cell_length_c                    35.8375
_cell_angle_alpha                 98.4985
_cell_angle_beta                  72.6378
_cell_angle_gamma                 98.8296
loop_
_atom_site_label
_atom_site_type_symbol
_atom_site_fract_x
_atom_site_fract_y
_atom_site_fract_z
_atom_site_U_iso_or_equiv
_atom_site_adp_type
_atom_site_occupancy
Br1    Br    0.03406   0.21112   0.19958   0.00000  Uiso   1.00
Br2    Br    0.23456   0.01361   0.20561   0.00000  Uiso   1.00
Br3    Br    0.09347   0.32629   0.29371   0.00000  Uiso   1.00
Br4    Br    0.10628   0.14203   0.11266   0.00000  Uiso   1.00
Br5    Br    0.22561   0.19609   0.39190   0.00000  Uiso   1.00
C6     C     0.05245   0.15982   0.25887   0.00000  Uiso   1.00
C7     C     0.20349   0.13851   0.45942   0.00000  Uiso   1.00
C8     C     0.22936   0.12537   0.47873   0.00000  Uiso   1.00
C9     C     0.28110   0.17385   0.24120   0.00000  Uiso   1.00
C10    C     0.21963   0.13240   0.01953   0.00000  Uiso   1.00
C11    C     0.18093   0.14953   0.04174   0.00000  Uiso   1.00
C12    C     0.24761   0.12139   0.03841   0.00000  Uiso   1.00
C13    C     0.23747   0.12698   0.07914   0.00000  Uiso   1.00
C14    C     0.16698   0.14640   0.08286   0.00000  Uiso   1.00
C15    C     0.32728   0.17761   0.23782   0.00000  Uiso   1.00
C16    C     0.00722   0.15785   0.26155   0.00000  Uiso   1.00
C17    C     0.09528   0.20910   0.42090   0.00000  Uiso   1.00
C18    C     0.18144   0.32244   0.23988   0.00000  Uiso   1.00
C19    C     0.15026   0.01263   0.26170   0.00000  Uiso   1.00
C20    C     0.15604   0.05633   0.25855   0.00000  Uiso   1.00
C21    C     0.17673   0.27771   0.24152   0.00000  Uiso   1.00
C22    C     0.18797   0.14564   0.14401   0.00000  Uiso   1.00
C23    C     0.14577   0.18815   0.35599   0.00000  Uiso   1.00
C24    C     0.13517   0.19548   0.39904   0.00000  Uiso   1.00
C25    C     0.19694   0.13844   0.10140   0.00000  Uiso   1.00
C26    C     0.08424   0.21418   0.46176   0.00000  Uiso   1.00
C27    C     0.16405   0.18706   0.41855   0.00000  Uiso   1.00
C28    C     0.14907   0.18366   0.45947   0.00000  Uiso   1.00
C29    C     0.11079   0.20149   0.48122   0.00000  Uiso   1.00
C30    C     0.17097   0.16413   0.47971   0.00000  Uiso   1.00
C31    C     0.15845   0.16867   0.02160   0.00000  Uiso   1.00
C32    C     0.12600   0.19452   0.04165   0.00000  Uiso   1.00
C33    C     0.10057   0.20813   0.02208   0.00000  Uiso   1.00
H34    H     0.07374   0.22526   0.03889   0.00000  Uiso   1.00
H35    H     0.27792   0.10969   0.02162   0.00000  Uiso   1.00
H36    H     0.31795   0.13884   0.28295   0.00000  Uiso   1.00
H37    H     0.26050   0.12067   0.09344   0.00000  Uiso   1.00
H38    H     0.25657   0.10884   0.46172   0.00000  Uiso   1.00
H39    H     0.05436   0.22689   0.47817   0.00000  Uiso   1.00
H40    H     0.07301   0.21660   0.40638   0.00000  Uiso   1.00
H41    H     0.12020   0.20520   0.07248   0.00000  Uiso   1.00
H42    H     0.20959   0.12855   0.42838   0.00000  Uiso   1.00
O43    O     0.16667   0.16667   0.25000   0.00000  Uiso   1.00
O44    O     0.15693   0.12393   0.16625   0.00000  Uiso   1.00
O45    O     0.12687   0.20646   0.33749   0.00000  Uiso   1.00
O46    O     0.21088   0.17493   0.15877   0.00000  Uiso   1.00
O47    O     0.17198   0.16135   0.33749   0.00000  Uiso   1.00
O48    O     0.17849   0.08101   0.27820   0.00000  Uiso   1.00
O49    O     0.14581   0.26136   0.26767   0.00000  Uiso   1.00
O50    O     0.07452   0.13251   0.23607   0.00000  Uiso   1.00
O51    O     0.26785   0.19179   0.21806   0.00000  Uiso   1.00
O52    O     0.06990   0.18960   0.27820   0.00000  Uiso   1.00
O53    O     0.25440   0.15277   0.26768   0.00000  Uiso   1.00
O54    O     0.13800   0.06903   0.23607   0.00000  Uiso   1.00
O55    O     0.20437   0.25527   0.21806   0.00000  Uiso   1.00
Zn56   Zn    0.19244   0.14090   0.28278   0.00000  Uiso   1.00
Zn57   Zn    0.13459   0.12378   0.22258   0.00000  Uiso   1.00
Zn58   Zn    0.21166   0.19664   0.21188   0.00000  Uiso   1.00
Zn59   Zn    0.12798   0.20535   0.28277   0.00000  Uiso   1.00
Br60   Br    0.36739   0.21112   0.19958   0.00000  Uiso   1.00
Br61   Br    0.56789   0.01361   0.20561   0.00000  Uiso   1.00
Br62   Br    0.42681   0.32629   0.29371   0.00000  Uiso   1.00
Br63   Br    0.43962   0.14203   0.11266   0.00000  Uiso   1.00
Br64   Br    0.55894   0.19609   0.39190   0.00000  Uiso   1.00
C65    C     0.38579   0.15982   0.25887   0.00000  Uiso   1.00
C66    C     0.53682   0.13851   0.45942   0.00000  Uiso   1.00
C67    C     0.56270   0.12537   0.47873   0.00000  Uiso   1.00
C68    C     0.61443   0.17385   0.24120   0.00000  Uiso   1.00
C69    C     0.55296   0.13240   0.01953   0.00000  Uiso   1.00
C70    C     0.51426   0.14953   0.04174   0.00000  Uiso   1.00
C71    C     0.58094   0.12139   0.03841   0.00000  Uiso   1.00
C72    C     0.57080   0.12698   0.07914   0.00000  Uiso   1.00
C73    C     0.50032   0.14640   0.08286   0.00000  Uiso   1.00
C74    C     0.66061   0.17761   0.23782   0.00000  Uiso   1.00
C75    C     0.34056   0.15785   0.26155   0.00000  Uiso   1.00
C76    C     0.42861   0.20910   0.42090   0.00000  Uiso   1.00
C77    C     0.51478   0.32244   0.23988   0.00000  Uiso   1.00
C78    C     0.48359   0.01263   0.26170   0.00000  Uiso   1.00
C79    C     0.48938   0.05633   0.25855   0.00000  Uiso   1.00
C80    C     0.51006   0.27771   0.24152   0.00000  Uiso   1.00
C81    C     0.52130   0.14564   0.14401   0.00000  Uiso   1.00
C82    C     0.47911   0.18815   0.35599   0.00000  Uiso   1.00
C83    C     0.46850   0.19548   0.39904   0.00000  Uiso   1.00
C84    C     0.53028   0.13844   0.10140   0.00000  Uiso   1.00
C85    C     0.41758   0.21418   0.46176   0.00000  Uiso   1.00
C86    C     0.49738   0.18706   0.41855   0.00000  Uiso   1.00
C87    C     0.48241   0.18366   0.45947   0.00000  Uiso   1.00
C88    C     0.44412   0.20149   0.48122   0.00000  Uiso   1.00
C89    C     0.50430   0.16413   0.47971   0.00000  Uiso   1.00
C90    C     0.49179   0.16867   0.02160   0.00000  Uiso   1.00
C91    C     0.45934   0.19452   0.04165   0.00000  Uiso   1.00
C92    C     0.43391   0.20813   0.02208   0.00000  Uiso   1.00
H93    H     0.40708   0.22526   0.03889   0.00000  Uiso   1.00
H94    H     0.61125   0.10969   0.02162   0.00000  Uiso   1.00
H95    H     0.65128   0.13884   0.28295   0.00000  Uiso   1.00
H96    H     0.59383   0.12067   0.09344   0.00000  Uiso   1.00
H97    H     0.58990   0.10884   0.46172   0.00000  Uiso   1.00
H98    H     0.38770   0.22689   0.47817   0.00000  Uiso   1.00
H99    H     0.40635   0.21660   0.40638   0.00000  Uiso   1.00
H100   H     0.45354   0.20520   0.07248   0.00000  Uiso   1.00
H101   H     0.54292   0.12855   0.42838   0.00000  Uiso   1.00
O102   O     0.50000   0.16667   0.25000   0.00000  Uiso   1.00
O103   O     0.49027   0.12393   0.16625   0.00000  Uiso   1.00
O104   O     0.46020   0.20646   0.33749   0.00000  Uiso   1.00
O105   O     0.54421   0.17493   0.15877   0.00000  Uiso   1.00
O106   O     0.50532   0.16135   0.33749   0.00000  Uiso   1.00
O107   O     0.51182   0.08101   0.27820   0.00000  Uiso   1.00
O108   O     0.47914   0.26136   0.26767   0.00000  Uiso   1.00
O109   O     0.40785   0.13251   0.23607   0.00000  Uiso   1.00
O110   O     0.60119   0.19179   0.21806   0.00000  Uiso   1.00
O111   O     0.40323   0.18960   0.27820   0.00000  Uiso   1.00
O112   O     0.58773   0.15277   0.26768   0.00000  Uiso   1.00
O113   O     0.47133   0.06903   0.23607   0.00000  Uiso   1.00
O114   O     0.53771   0.25527   0.21806   0.00000  Uiso   1.00
Zn115  Zn    0.52577   0.14090   0.28278   0.00000  Uiso   1.00
Zn116  Zn    0.46792   0.12378   0.22258   0.00000  Uiso   1.00
Zn117  Zn    0.54500   0.19664   0.21188   0.00000  Uiso   1.00
Zn118  Zn    0.46131   0.20535   0.28277   0.00000  Uiso   1.00
Br119  Br    0.70073   0.21112   0.19958   0.00000  Uiso   1.00
Br120  Br    0.90123   0.01361   0.20561   0.00000  Uiso   1.00
Br121  Br    0.76014   0.32629   0.29371   0.00000  Uiso   1.00
Br122  Br    0.77295   0.14203   0.11266   0.00000  Uiso   1.00
Br123  Br    0.89228   0.19609   0.39190   0.00000  Uiso   1.00
C124   C     0.71912   0.15982   0.25887   0.00000  Uiso   1.00
C125   C     0.87016   0.13851   0.45942   0.00000  Uiso   1.00
C126   C     0.89603   0.12537   0.47873   0.00000  Uiso   1.00
C127   C     0.94776   0.17385   0.24120   0.00000  Uiso   1.00
C128   C     0.88629   0.13240   0.01953   0.00000  Uiso   1.00
C129   C     0.84760   0.14953   0.04174   0.00000  Uiso   1.00
C130   C     0.91428   0.12139   0.03841   0.00000  Uiso   1.00
C131   C     0.90413   0.12698   0.07914   0.00000  Uiso   1.00
C132   C     0.83365   0.14640   0.08286   0.00000  Uiso   1.00
C133   C     0.99395   0.17761   0.23782   0.00000  Uiso   1.00
C134   C     0.67389   0.15785   0.26155   0.00000  Uiso   1.00
C135   C     0.76195   0.20910   0.42090   0.00000  Uiso   1.00
C136   C     0.84811   0.32244   0.23988   0.00000  Uiso   1.00
C137   C     0.81692   0.01263   0.26170   0.00000  Uiso   1.00
C138   C     0.82271   0.05633   0.25855   0.00000  Uiso   1.00
C139   C     0.84340   0.27771   0.24152   0.00000  Uiso   1.00
C140   C     0.85463   0.14564   0.14401   0.00000  Uiso   1.00
C141   C     0.81244   0.18815   0.35599   0.00000  Uiso   1.00
C142   C     0.80184   0.19548   0.39904   0.00000  Uiso   1.00
C143   C     0.86361   0.13844   0.10140   0.00000  Uiso   1.00
C144   C     0.75091   0.21418   0.46176   0.00000  Uiso   1.00
C145   C     0.83072   0.18706   0.41855   0.00000  Uiso   1.00
C146   C     0.81574   0.18366   0.45947   0.00000  Uiso   1.00
C147   C     0.77745   0.20149   0.48122   0.00000  Uiso   1.00
C148   C     0.83763   0.16413   0.47971   0.00000  Uiso   1.00
C149   C     0.82512   0.16867   0.02160   0.00000  Uiso   1.00
C150   C     0.79267   0.19452   0.04165   0.00000  Uiso   1.00
C151   C     0.76724   0.20813   0.02208   0.00000  Uiso   1.00
H152   H     0.74041   0.22526   0.03889   0.00000  Uiso   1.00
H153   H     0.94458   0.10969   0.02162   0.00000  Uiso   1.00
H154   H     0.98461   0.13884   0.28295   0.00000  Uiso   1.00
H155   H     0.92716   0.12067   0.09344   0.00000  Uiso   1.00
H156   H     0.92324   0.10884   0.46172   0.00000  Uiso   1.00
H157   H     0.72103   0.22689   0.47817   0.00000  Uiso   1.00
H158   H     0.73968   0.21660   0.40638   0.00000  Uiso   1.00
H159   H     0.78687   0.20520   0.07248   0.00000  Uiso   1.00
H160   H     0.87626   0.12855   0.42838   0.00000  Uiso   1.00
O161   O     0.83333   0.16667   0.25000   0.00000  Uiso   1.00
O162   O     0.82360   0.12393   0.16625   0.00000  Uiso   1.00
O163   O     0.79354   0.20646   0.33749   0.00000  Uiso   1.00
O164   O     0.87755   0.17493   0.15877   0.00000  Uiso   1.00
O165   O     0.83865   0.16135   0.33749   0.00000  Uiso   1.00
O166   O     0.84515   0.08101   0.27820   0.00000  Uiso   1.00
O167   O     0.81247   0.26136   0.26767   0.00000  Uiso   1.00
O168   O     0.74119   0.13251   0.23607   0.00000  Uiso   1.00
O169   O     0.93452   0.19179   0.21806   0.00000  Uiso   1.00
O170   O     0.73656   0.18960   0.27820   0.00000  Uiso   1.00
O171   O     0.92106   0.15277   0.26768   0.00000  Uiso   1.00
O172   O     0.80467   0.06903   0.23607   0.00000  Uiso   1.00
O173   O     0.87104   0.25527   0.21806   0.00000  Uiso   1.00
Zn174  Zn    0.85910   0.14090   0.28278   0.00000  Uiso   1.00
Zn175  Zn    0.80125   0.12378   0.22258   0.00000  Uiso   1.00
Zn176  Zn    0.87833   0.19664   0.21188   0.00000  Uiso   1.00
Zn177  Zn    0.79465   0.20535   0.28277   0.00000  Uiso   1.00
Br178  Br    0.03406   0.54445   0.19958   0.00000  Uiso   1.00
Br179  Br    0.23456   0.34694   0.20561   0.00000  Uiso   1.00
Br180  Br    0.09347   0.65962   0.29371   0.00000  Uiso   1.00
Br181  Br    0.10628   0.47536   0.11266   0.00000  Uiso   1.00
Br182  Br    0.22561   0.52943   0.39190   0.00000  Uiso   1.00
C183   C     0.05245   0.49315   0.25887   0.00000  Uiso   1.00
C184   C     0.20349   0.47184   0.45942   0.00000  Uiso   1.00
C185   C     0.22936   0.45871   0.47873   0.00000  Uiso   1.00
C186   C     0.28110   0.50719   0.24120   0.00000  Uiso   1.00
C187   C     0.21963   0.46573   0.01953   0.00000  Uiso   1.00
C188   C     0.18093   0.48286   0.04174   0.00000  Uiso   1.00
C189   C     0.24761   0.45472   0.03841   0.00000  Uiso   1.00
C190   C     0.23747   0.46031   0.07914   0.00000  Uiso   1.00
C191   C     0.16698   0.47973   0.08286   0.00000  Uiso   1.00
C192   C     0.32728   0.51094   0.23782   0.00000  Uiso   1.00
C193   C     0.00722   0.49118   0.26155   0.00000  Uiso   1.00
C194   C     0.09528   0.54243   0.42090   0.00000  Uiso   1.00
C195   C     0.18144   0.65577   0.23988   0.00000  Uiso   1.00
C196   C     0.15026   0.34596   0.26170   0.00000  Uiso   1.00
C197   C     0.15604   0.38966   0.25855   0.00000  Uiso   1.00
C198   C     0.17673   0.61104   0.24152   0.00000  Uiso   1.00
C199   C     0.18797   0.47898   0.14401   0.00000  Uiso   1.00
C200   C     0.14577   0.52148   0.35599   0.00000  Uiso   1.00
C201   C     0.13517   0.52881   0.39904   0.00000  Uiso   1.00
C202   C     0.19694   0.47177   0.10140   0.00000  Uiso   1.00
C203   C     0.08424   0.54752   0.46176   0.00000  Uiso   1.00
C204   C     0.16405   0.52039   0.41855   0.00000  Uiso   1.00
C205   C     0.14907   0.51699   0.45947   0.00000  Uiso   1.00
C206   C     0.11079   0.53482   0.48122   0.00000  Uiso   1.00
C207   C     0.17097   0.49746   0.47971   0.00000  Uiso   1.00
C208   C     0.15845   0.50200   0.02160   0.00000  Uiso   1.00
C209   C     0.12600   0.52785   0.04165   0.00000  Uiso   1.00
C210   C     0.10057   0.54147   0.02208   0.00000  Uiso   1.00
H211   H     0.07374   0.55859   0.03889   0.00000  Uiso   1.00
H212   H     0.27792   0.44302   0.02162   0.00000  Uiso   1.00
H213   H     0.31795   0.47217   0.28295   0.00000  Uiso   1.00
H214   H     0.26050   0.45400   0.09344   0.00000  Uiso   1.00
H215   H     0.25657   0.44217   0.46172   0.00000  Uiso   1.00
H216   H     0.05436   0.56023   0.47817   0.00000  Uiso   1.00
H217   H     0.07301   0.54993   0.40638   0.00000  Uiso   1.00
H218   H     0.12020   0.53853   0.07248   0.00000  Uiso   1.00
H219   H     0.20959   0.46188   0.42838   0.00000  Uiso   1.00
O220   O     0.16667   0.50000   0.25000   0.00000  Uiso   1.00
O221   O     0.15693   0.45726   0.16625   0.00000  Uiso   1.00
O222   O     0.12687   0.53979   0.33749   0.00000  Uiso   1.00
O223   O     0.21088   0.50826   0.15877   0.00000  Uiso   1.00
O224   O     0.17198   0.49468   0.33749   0.00000  Uiso   1.00
O225   O     0.17849   0.41434   0.27820   0.00000  Uiso   1.00
O226   O     0.14581   0.59469   0.26767   0.00000  Uiso   1.00
O227   O     0.07452   0.46584   0.23607   0.00000  Uiso   1.00
O228   O     0.26785   0.52512   0.21806   0.00000  Uiso   1.00
O229   O     0.06990   0.52293   0.27820   0.00000  Uiso   1.00
O230   O     0.25440   0.48610   0.26768   0.00000  Uiso   1.00
O231   O     0.13800   0.40236   0.23607   0.00000  Uiso   1.00
O232   O     0.20437   0.58860   0.21806   0.00000  Uiso   1.00
Zn233  Zn    0.19244   0.47423   0.28278   0.00000  Uiso   1.00
Zn234  Zn    0.13459   0.45711   0.22258   0.00000  Uiso   1.00
Zn235  Zn    0.21166   0.52997   0.21188   0.00000  Uiso   1.00
Zn236  Zn    0.12798   0.53868   0.28277   0.00000  Uiso   1.00
Br237  Br    0.36739   0.54445   0.19958   0.00000  Uiso   1.00
Br238  Br    0.56789   0.34694   0.20561   0.00000  Uiso   1.00
Br239  Br    0.42681   0.65962   0.29371   0.00000  Uiso   1.00
Br240  Br    0.43962   0.47536   0.11266   0.00000  Uiso   1.00
Br241  Br    0.55894   0.52943   0.39190   0.00000  Uiso   1.00
C242   C     0.38579   0.49315   0.25887   0.00000  Uiso   1.00
C243   C     0.53682   0.47184   0.45942   0.00000  Uiso   1.00
C244   C     0.56270   0.45871   0.47873   0.00000  Uiso   1.00
C245   C     0.61443   0.50719   0.24120   0.00000  Uiso   1.00
C246   C     0.55296   0.46573   0.01953   0.00000  Uiso   1.00
C247   C     0.51426   0.48286   0.04174   0.00000  Uiso   1.00
C248   C     0.58094   0.45472   0.03841   0.00000  Uiso   1.00
C249   C     0.57080   0.46031   0.07914   0.00000  Uiso   1.00
C250   C     0.50032   0.47973   0.08286   0.00000  Uiso   1.00
C251   C     0.66061   0.51094   0.23782   0.00000  Uiso   1.00
C252   C     0.34056   0.49118   0.26155   0.00000  Uiso   1.00
C253   C     0.42861   0.54243   0.42090   0.00000  Uiso   1.00
C254   C     0.51478   0.65577   0.23988   0.00000  Uiso   1.00
C255   C     0.48359   0.34596   0.26170   0.00000  Uiso   1.00
C256   C     0.48938   0.38966   0.25855   0.00000  Uiso   1.00
C257   C     0.51006   0.61104   0.24152   0.00000  Uiso   1.00
C258   C     0.52130   0.47898   0.14401   0.00000  Uiso   1.00
C259   C     0.47911   0.52148   0.35599   0.00000  Uiso   1.00
C260   C     0.46850   0.52881   0.39904   0.00000  Uiso   1.00
C261   C     0.53028   0.47177   0.10140   0.00000  Uiso   1.00
C262   C     0.41758   0.54752   0.46176   0.00000  Uiso   1.00
C263   C     0.49738   0.52039   0.41855   0.00000  Uiso   1.00
C264   C     0.48241   0.51699   0.45947   0.00000  Uiso   1.00
C265   C     0.44412   0.53482   0.48122   0.00000  Uiso   1.00
C266   C     0.50430   0.49746   0.47971   0.00000  Uiso   1.00
C267   C     0.49179   0.50200   0.02160   0.00000  Uiso   1.00
C268   C     0.45934   0.52785   0.04165   0.00000  Uiso   1.00
C269   C     0.43391   0.54147   0.02208   0.00000  Uiso   1.00
H270   H     0.40708   0.55859   0.03889   0.00000  Uiso   1.00
H271   H     0.61125   0.44302   0.02162   0.00000  Uiso   1.00
H272   H     0.65128   0.47217   0.28295   0.00000  Uiso   1.00
H273   H     0.59383   0.45400   0.09344   0.00000  Uiso   1.00
H274   H     0.58990   0.44217   0.46172   0.00000  Uiso   1.00
H275   H     0.38770   0.56023   0.47817   0.00000  Uiso   1.00
H276   H     0.40635   0.54993   0.40638   0.00000  Uiso   1.00
H277   H     0.45354   0.53853   0.07248   0.00000  Uiso   1.00
H278   H     0.54292   0.46188   0.42838   0.00000  Uiso   1.00
O279   O     0.50000   0.50000   0.25000   0.00000  Uiso   1.00
O280   O     0.49027   0.45726   0.16625   0.00000  Uiso   1.00
O281   O     0.46020   0.53979   0.33749   0.00000  Uiso   1.00
O282   O     0.54421   0.50826   0.15877   0.00000  Uiso   1.00
O283   O     0.50532   0.49468   0.33749   0.00000  Uiso   1.00
O284   O     0.51182   0.41434   0.27820   0.00000  Uiso   1.00
O285   O     0.47914   0.59469   0.26767   0.00000  Uiso   1.00
O286   O     0.40785   0.46584   0.23607   0.00000  Uiso   1.00
O287   O     0.60119   0.52512   0.21806   0.00000  Uiso   1.00
O288   O     0.40323   0.52293   0.27820   0.00000  Uiso   1.00
O289   O     0.58773   0.48610   0.26768   0.00000  Uiso   1.00
O290   O     0.47133   0.40236   0.23607   0.00000  Uiso   1.00
O291   O     0.53771   0.58860   0.21806   0.00000  Uiso   1.00
Zn292  Zn    0.52577   0.47423   0.28278   0.00000  Uiso   1.00
Zn293  Zn    0.46792   0.45711   0.22258   0.00000  Uiso   1.00
Zn294  Zn    0.54500   0.52997   0.21188   0.00000  Uiso   1.00
Zn295  Zn    0.46131   0.53868   0.28277   0.00000  Uiso   1.00
Br296  Br    0.70073   0.54445   0.19958   0.00000  Uiso   1.00
Br297  Br    0.90123   0.34694   0.20561   0.00000  Uiso   1.00
Br298  Br    0.76014   0.65962   0.29371   0.00000  Uiso   1.00
Br299  Br    0.77295   0.47536   0.11266   0.00000  Uiso   1.00
Br300  Br    0.89228   0.52943   0.39190   0.00000  Uiso   1.00
C301   C     0.71912   0.49315   0.25887   0.00000  Uiso   1.00
C302   C     0.87016   0.47184   0.45942   0.00000  Uiso   1.00
C303   C     0.89603   0.45871   0.47873   0.00000  Uiso   1.00
C304   C     0.94776   0.50719   0.24120   0.00000  Uiso   1.00
C305   C     0.88629   0.46573   0.01953   0.00000  Uiso   1.00
C306   C     0.84760   0.48286   0.04174   0.00000  Uiso   1.00
C307   C     0.91428   0.45472   0.03841   0.00000  Uiso   1.00
C308   C     0.90413   0.46031   0.07914   0.00000  Uiso   1.00
C309   C     0.83365   0.47973   0.08286   0.00000  Uiso   1.00
C310   C     0.99395   0.51094   0.23782   0.00000  Uiso   1.00
C311   C     0.67389   0.49118   0.26155   0.00000  Uiso   1.00
C312   C     0.76195   0.54243   0.42090   0.00000  Uiso   1.00
C313   C     0.84811   0.65577   0.23988   0.00000  Uiso   1.00
C314   C     0.81692   0.34596   0.26170   0.00000  Uiso   1.00
C315   C     0.82271   0.38966   0.25855   0.00000  Uiso   1.00
C316   C     0.84340   0.61104   0.24152   0.00000  Uiso   1.00
C317   C     0.85463   0.47898   0.14401   0.00000  Uiso   1.00
C318   C     0.81244   0.52148   0.35599   0.00000  Uiso   1.00
C319   C     0.80184   0.52881   0.39904   0.00000  Uiso   1.00
C320   C     0.86361   0.47177   0.10140   0.00000  Uiso   1.00
C321   C     0.75091   0.54752   0.46176   0.00000  Uiso   1.00
C322   C     0.83072   0.52039   0.41855   0.00000  Uiso   1.00
C323   C     0.81574   0.51699   0.45947   0.00000  Uiso   1.00
C324   C     0.77745   0.53482   0.48122   0.00000  Uiso   1.00
C325   C     0.83763   0.49746   0.47971   0.00000  Uiso   1.00
C326   C     0.82512   0.50200   0.02160   0.00000  Uiso   1.00
C327   C     0.79267   0.52785   0.04165   0.00000  Uiso   1.00
C328   C     0.76724   0.54147   0.02208   0.00000  Uiso   1.00
H329   H     0.74041   0.55859   0.03889   0.00000  Uiso   1.00
H330   H     0.94458   0.44302   0.02162   0.00000  Uiso   1.00
H331   H     0.98461   0.47217   0.28295   0.00000  Uiso   1.00
H332   H     0.92716   0.45400   0.09344   0.00000  Uiso   1.00
H333   H     0.92324   0.44217   0.46172   0.00000  Uiso   1.00
H334   H     0.72103   0.56023   0.47817   0.00000  Uiso   1.00
H335   H     0.73968   0.54993   0.40638   0.00000  Uiso   1.00
H336   H     0.78687   0.53853   0.07248   0.00000  Uiso   1.00
H337   H     0.87626   0.46188   0.42838   0.00000  Uiso   1.00
O338   O     0.83333   0.50000   0.25000   0.00000  Uiso   1.00
O339   O     0.82360   0.45726   0.16625   0.00000  Uiso   1.00
O340   O     0.79354   0.53979   0.33749   0.00000  Uiso   1.00
O341   O     0.87755   0.50826   0.15877   0.00000  Uiso   1.00
O342   O     0.83865   0.49468   0.33749   0.00000  Uiso   1.00
O343   O     0.84515   0.41434   0.27820   0.00000  Uiso   1.00
O344   O     0.81247   0.59469   0.26767   0.00000  Uiso   1.00
O345   O     0.74119   0.46584   0.23607   0.00000  Uiso   1.00
O346   O     0.93452   0.52512   0.21806   0.00000  Uiso   1.00
O347   O     0.73656   0.52293   0.27820   0.00000  Uiso   1.00
O348   O     0.92106   0.48610   0.26768   0.00000  Uiso   1.00
O349   O     0.80467   0.40236   0.23607   0.00000  Uiso   1.00
O350   O     0.87104   0.58860   0.21806   0.00000  Uiso   1.00
Zn351  Zn    0.85910   0.47423   0.28278   0.00000  Uiso   1.00
Zn352  Zn    0.80125   0.45711   0.22258   0.00000  Uiso   1.00
Zn353  Zn    0.87833   0.52997   0.21188   0.00000  Uiso   1.00
Zn354  Zn    0.79465   0.53868   0.28277   0.00000  Uiso   1.00
Br355  Br    0.03406   0.87778   0.19958   0.00000  Uiso   1.00
Br356  Br    0.23456   0.68027   0.20561   0.00000  Uiso   1.00
Br357  Br    0.09347   0.99295   0.29371   0.00000  Uiso   1.00
Br358  Br    0.10628   0.80870   0.11266   0.00000  Uiso   1.00
Br359  Br    0.22561   0.86276   0.39190   0.00000  Uiso   1.00
C360   C     0.05245   0.82649   0.25887   0.00000  Uiso   1.00
C361   C     0.20349   0.80518   0.45942   0.00000  Uiso   1.00
C362   C     0.22936   0.79204   0.47873   0.00000  Uiso   1.00
C363   C     0.28110   0.84052   0.24120   0.00000  Uiso   1.00
C364   C     0.21963   0.79906   0.01953   0.00000  Uiso   1.00
C365   C     0.18093   0.81619   0.04174   0.00000  Uiso   1.00
C366   C     0.24761   0.78806   0.03841   0.00000  Uiso   1.00
C367   C     0.23747   0.79364   0.07914   0.00000  Uiso   1.00
C368   C     0.16698   0.81307   0.08286   0.00000  Uiso   1.00
C369   C     0.32728   0.84428   0.23782   0.00000  Uiso   1.00
C370   C     0.00722   0.82451   0.26155   0.00000  Uiso   1.00
C371   C     0.09528   0.87576   0.42090   0.00000  Uiso   1.00
C372   C     0.18144   0.98911   0.23988   0.00000  Uiso   1.00
C373   C     0.15026   0.67930   0.26170   0.00000  Uiso   1.00
C374   C     0.15604   0.72300   0.25855   0.00000  Uiso   1.00
C375   C     0.17673   0.94437   0.24152   0.00000  Uiso   1.00
C376   C     0.18797   0.81231   0.14401   0.00000  Uiso   1.00
C377   C     0.14577   0.85482   0.35599   0.00000  Uiso   1.00
C378   C     0.13517   0.86214   0.39904   0.00000  Uiso   1.00
C379   C     0.19694   0.80511   0.10140   0.00000  Uiso   1.00
C380   C     0.08424   0.88085   0.46176   0.00000  Uiso   1.00
C381   C     0.16405   0.85373   0.41855   0.00000  Uiso   1.00
C382   C     0.14907   0.85033   0.45947   0.00000  Uiso   1.00
C383   C     0.11079   0.86816   0.48122   0.00000  Uiso   1.00
C384   C     0.17097   0.83079   0.47971   0.00000  Uiso   1.00
C385   C     0.15845   0.83534   0.02160   0.00000  Uiso   1.00
C386   C     0.12600   0.86118   0.04165   0.00000  Uiso   1.00
C387   C     0.10057   0.87480   0.02208   0.00000  Uiso   1.00
H388   H     0.07374   0.89192   0.03889   0.00000  Uiso   1.00
H389   H     0.27792   0.77636   0.02162   0.00000  Uiso   1.00
H390   H     0.31795   0.80550   0.28295   0.00000  Uiso   1.00
H391   H     0.26050   0.78734   0.09344   0.00000  Uiso   1.00
H392   H     0.25657   0.77550   0.46172   0.00000  Uiso   1.00
H393   H     0.05436   0.89356   0.47817   0.00000  Uiso   1.00
H394   H     0.07301   0.88326   0.40638   0.00000  Uiso   1.00
H395   H     0.12020   0.87187   0.07248   0.00000  Uiso   1.00
H396   H     0.20959   0.79522   0.42838   0.00000  Uiso   1.00
O397   O     0.16667   0.83333   0.25000   0.00000  Uiso   1.00
O398   O     0.15693   0.79060   0.16625   0.00000  Uiso   1.00
O399   O     0.12687   0.87313   0.33749   0.00000  Uiso   1.00
O400   O     0.21088   0.84159   0.15877   0.00000  Uiso   1.00
O401   O     0.17198   0.82802   0.33749   0.00000  Uiso   1.00
O402   O     0.17849   0.74768   0.27820   0.00000  Uiso   1.00
O403   O     0.14581   0.92803   0.26767   0.00000  Uiso   1.00
O404   O     0.07452   0.79917   0.23607   0.00000  Uiso   1.00
O405   O     0.26785   0.85845   0.21806   0.00000  Uiso   1.00
O406   O     0.06990   0.85627   0.27820   0.00000  Uiso   1.00
O407   O     0.25440   0.81944   0.26768   0.00000  Uiso   1.00
O408   O     0.13800   0.73570   0.23607   0.00000  Uiso   1.00
O409   O     0.20437   0.92193   0.21806   0.00000  Uiso   1.00
Zn410  Zn    0.19244   0.80756   0.28278   0.00000  Uiso   1.00
Zn411  Zn    0.13459   0.79044   0.22258   0.00000  Uiso   1.00
Zn412  Zn    0.21166   0.86331   0.21188   0.00000  Uiso   1.00
Zn413  Zn    0.12798   0.87202   0.28277   0.00000  Uiso   1.00
Br414  Br    0.36739   0.87778   0.19958   0.00000  Uiso   1.00
Br415  Br    0.56789   0.68027   0.20561   0.00000  Uiso   1.00
Br416  Br    0.42681   0.99295   0.29371   0.00000  Uiso   1.00
Br417  Br    0.43962   0.80870   0.11266   0.00000  Uiso   1.00
Br418  Br    0.55894   0.86276   0.39190   0.00000  Uiso   1.00
C419   C     0.38579   0.82649   0.25887   0.00000  Uiso   1.00
C420   C     0.53682   0.80518   0.45942   0.00000  Uiso   1.00
C421   C     0.56270   0.79204   0.47873   0.00000  Uiso   1.00
C422   C     0.61443   0.84052   0.24120   0.00000  Uiso   1.00
C423   C     0.55296   0.79906   0.01953   0.00000  Uiso   1.00
C424   C     0.51426   0.81619   0.04174   0.00000  Uiso   1.00
C425   C     0.58094   0.78806   0.03841   0.00000  Uiso   1.00
C426   C     0.57080   0.79364   0.07914   0.00000  Uiso   1.00
C427   C     0.50032   0.81307   0.08286   0.00000  Uiso   1.00
C428   C     0.66061   0.84428   0.23782   0.00000  Uiso   1.00
C429   C     0.34056   0.82451   0.26155   0.00000  Uiso   1.00
C430   C     0.42861   0.87576   0.42090   0.00000  Uiso   1.00
C431   C     0.51478   0.98911   0.23988   0.00000  Uiso   1.00
C432   C     0.48359   0.67930   0.26170   0.00000  Uiso   1.00
C433   C     0.48938   0.72300   0.25855   0.00000  Uiso   1.00
C434   C     0.51006   0.94437   0.24152   0.00000  Uiso   1.00
C435   C     0.52130   0.81231   0.14401   0.00000  Uiso   1.00
C436   C     0.47911   0.85482   0.35599   0.00000  Uiso   1.00
C437   C     0.46850   0.86214   0.39904   0.00000  Uiso   1.00
C438   C     0.53028   0.80511   0.10140   0.00000  Uiso   1.00
C439   C     0.41758   0.88085   0.46176   0.00000  Uiso   1.00
C440   C     0.49738   0.85373   0.41855   0.00000  Uiso   1.00
C441   C     0.48241   0.85033   0.45947   0.00000  Uiso   1.00
C442   C     0.44412   0.86816   0.48122   0.00000  Uiso   1.00
C443   C     0.50430   0.83079   0.47971   0.00000  Uiso   1.00
C444   C     0.49179   0.83534   0.02160   0.00000  Uiso   1.00
C445   C     0.45934   0.86118   0.04165   0.00000  Uiso   1.00
C446   C     0.43391   0.87480   0.02208   0.00000  Uiso   1.00
H447   H     0.40708   0.89192   0.03889   0.00000  Uiso   1.00
H448   H     0.61125   0.77636   0.02162   0.00000  Uiso   1.00
H449   H     0.65128   0.80550   0.28295   0.00000  Uiso   1.00
H450   H     0.59383   0.78734   0.09344   0.00000  Uiso   1.00
H451   H     0.58990   0.77550   0.46172   0.00000  Uiso   1.00
H452   H     0.38770   0.89356   0.47817   0.00000  Uiso   1.00
H453   H     0.40635   0.88326   0.40638   0.00000  Uiso   1.00
H454   H     0.45354   0.87187   0.07248   0.00000  Uiso   1.00
H455   H     0.54292   0.79522   0.42838   0.00000  Uiso   1.00
O456   O     0.50000   0.83333   0.25000   0.00000  Uiso   1.00
O457   O     0.49027   0.79060   0.16625   0.00000  Uiso   1.00
O458   O     0.46020   0.87313   0.33749   0.00000  Uiso   1.00
O459   O     0.54421   0.84159   0.15877   0.00000  Uiso   1.00
O460   O     0.50532   0.82802   0.33749   0.00000  Uiso   1.00
O461   O     0.51182   0.74768   0.27820   0.00000  Uiso   1.00
O462   O     0.47914   0.92803   0.26767   0.00000  Uiso   1.00
O463   O     0.40785   0.79917   0.23607   0.00000  Uiso   1.00
O464   O     0.60119   0.85845   0.21806   0.00000  Uiso   1.00
O465   O     0.40323   0.85627   0.27820   0.00000  Uiso   1.00
O466   O     0.58773   0.81944   0.26768   0.00000  Uiso   1.00
O467   O     0.47133   0.73570   0.23607   0.00000  Uiso   1.00
O468   O     0.53771   0.92193   0.21806   0.00000  Uiso   1.00
Zn469  Zn    0.52577   0.80756   0.28278   0.00000  Uiso   1.00
Zn470  Zn    0.46792   0.79044   0.22258   0.00000  Uiso   1.00
Zn471  Zn    0.54500   0.86331   0.21188   0.00000  Uiso   1.00
Zn472  Zn    0.46131   0.87202   0.28277   0.00000  Uiso   1.00
Br473  Br    0.70073   0.87778   0.19958   0.00000  Uiso   1.00
Br474  Br    0.90123   0.68027   0.20561   0.00000  Uiso   1.00
Br475  Br    0.76014   0.99295   0.29371   0.00000  Uiso   1.00
Br476  Br    0.77295   0.80870   0.11266   0.00000  Uiso   1.00
Br477  Br    0.89228   0.86276   0.39190   0.00000  Uiso   1.00
C478   C     0.71912   0.82649   0.25887   0.00000  Uiso   1.00
C479   C     0.87016   0.80518   0.45942   0.00000  Uiso   1.00
C480   C     0.89603   0.79204   0.47873   0.00000  Uiso   1.00
C481   C     0.94776   0.84052   0.24120   0.00000  Uiso   1.00
C482   C     0.88629   0.79906   0.01953   0.00000  Uiso   1.00
C483   C     0.84760   0.81619   0.04174   0.00000  Uiso   1.00
C484   C     0.91428   0.78806   0.03841   0.00000  Uiso   1.00
C485   C     0.90413   0.79364   0.07914   0.00000  Uiso   1.00
C486   C     0.83365   0.81307   0.08286   0.00000  Uiso   1.00
C487   C     0.99395   0.84428   0.23782   0.00000  Uiso   1.00
C488   C     0.67389   0.82451   0.26155   0.00000  Uiso   1.00
C489   C     0.76195   0.87576   0.42090   0.00000  Uiso   1.00
C490   C     0.84811   0.98911   0.23988   0.00000  Uiso   1.00
C491   C     0.81692   0.67930   0.26170   0.00000  Uiso   1.00
C492   C     0.82271   0.72300   0.25855   0.00000  Uiso   1.00
C493   C     0.84340   0.94437   0.24152   0.00000  Uiso   1.00
C494   C     0.85463   0.81231   0.14401   0.00000  Uiso   1.00
C495   C     0.81244   0.85482   0.35599   0.00000  Uiso   1.00
C496   C     0.80184   0.86214   0.39904   0.00000  Uiso   1.00
C497   C     0.86361   0.80511   0.10140   0.00000  Uiso   1.00
C498   C     0.75091   0.88085   0.46176   0.00000  Uiso   1.00
C499   C     0.83072   0.85373   0.41855   0.00000  Uiso   1.00
C500   C     0.81574   0.85033   0.45947   0.00000  Uiso   1.00
C501   C     0.77745   0.86816   0.48122   0.00000  Uiso   1.00
C502   C     0.83763   0.83079   0.47971   0.00000  Uiso   1.00
C503   C     0.82512   0.83534   0.02160   0.00000  Uiso   1.00
C504   C     0.79267   0.86118   0.04165   0.00000  Uiso   1.00
C505   C     0.76724   0.87480   0.02208   0.00000  Uiso   1.00
H506   H     0.74041   0.89192   0.03889   0.00000  Uiso   1.00
H507   H     0.94458   0.77636   0.02162   0.00000  Uiso   1.00
H508   H     0.98461   0.80550   0.28295   0.00000  Uiso   1.00
H509   H     0.92716   0.78734   0.09344   0.00000  Uiso   1.00
H510   H     0.92324   0.77550   0.46172   0.00000  Uiso   1.00
H511   H     0.72103   0.89356   0.47817   0.00000  Uiso   1.00
H512   H     0.73968   0.88326   0.40638   0.00000  Uiso   1.00
H513   H     0.78687   0.87187   0.07248   0.00000  Uiso   1.00
H514   H     0.87626   0.79522   0.42838   0.00000  Uiso   1.00
O515   O     0.83333   0.83333   0.25000   0.00000  Uiso   1.00
O516   O     0.82360   0.79060   0.16625   0.00000  Uiso   1.00
O517   O     0.79354   0.87313   0.33749   0.00000  Uiso   1.00
O518   O     0.87755   0.84159   0.15877   0.00000  Uiso   1.00
O519   O     0.83865   0.82802   0.33749   0.00000  Uiso   1.00
O520   O     0.84515   0.74768   0.27820   0.00000  Uiso   1.00
O521   O     0.81247   0.92803   0.26767   0.00000  Uiso   1.00
O522   O     0.74119   0.79917   0.23607   0.00000  Uiso   1.00
O523   O     0.93452   0.85845   0.21806   0.00000  Uiso   1.00
O524   O     0.73656   0.85627   0.27820   0.00000  Uiso   1.00
O525   O     0.92106   0.81944   0.26768   0.00000  Uiso   1.00
O526   O     0.80467   0.73570   0.23607   0.00000  Uiso   1.00
O527   O     0.87104   0.92193   0.21806   0.00000  Uiso   1.00
Zn528  Zn    0.85910   0.80756   0.28278   0.00000  Uiso   1.00
Zn529  Zn    0.80125   0.79044   0.22258   0.00000  Uiso   1.00
Zn530  Zn    0.87833   0.86331   0.21188   0.00000  Uiso   1.00
Zn531  Zn    0.79465   0.87202   0.28277   0.00000  Uiso   1.00
Br532  Br    0.03406   0.21112   0.69958   0.00000  Uiso   1.00
Br533  Br    0.23456   0.01361   0.70561   0.00000  Uiso   1.00
Br534  Br    0.09347   0.32629   0.79371   0.00000  Uiso   1.00
Br535  Br    0.10628   0.14203   0.61266   0.00000  Uiso   1.00
Br536  Br    0.22561   0.19609   0.89190   0.00000  Uiso   1.00
C537   C     0.05245   0.15982   0.75887   0.00000  Uiso   1.00
C538   C     0.20349   0.13851   0.95942   0.00000  Uiso   1.00
C539   C     0.22936   0.12537   0.97873   0.00000  Uiso   1.00
C540   C     0.28110   0.17385   0.74120   0.00000  Uiso   1.00
C541   C     0.21963   0.13240   0.51953   0.00000  Uiso   1.00
C542   C     0.18093   0.14953   0.54174   0.00000  Uiso   1.00
C543   C     0.24761   0.12139   0.53841   0.00000  Uiso   1.00
C544   C     0.23747   0.12698   0.57914   0.00000  Uiso   1.00
C545   C     0.16698   0.14640   0.58286   0.00000  Uiso   1.00
C546   C     0.32728   0.17761   0.73782   0.00000  Uiso   1.00
C547   C     0.00722   0.15785   0.76155   0.00000  Uiso   1.00
C548   C     0.09528   0.20910   0.92090   0.00000  Uiso   1.00
C549   C     0.18144   0.32244   0.73988   0.00000  Uiso   1.00
C550   C     0.15026   0.01263   0.76170   0.00000  Uiso   1.00
C551   C     0.15604   0.05633   0.75855   0.00000  Uiso   1.00
C552   C     0.17673   0.27771   0.74152   0.00000  Uiso   1.00
C553   C     0.18797   0.14564   0.64401   0.00000  Uiso   1.00
C554   C     0.14577   0.18815   0.85599   0.00000  Uiso   1.00
C555   C     0.13517   0.19548   0.89904   0.00000  Uiso   1.00
C556   C     0.19694   0.13844   0.60140   0.00000  Uiso   1.00
C557   C     0.08424   0.21418   0.96176   0.00000  Uiso   1.00
C558   C     0.16405   0.18706   0.91855   0.00000  Uiso   1.00
C559   C     0.14907   0.18366   0.95947   0.00000  Uiso   1.00
C560   C     0.11079   0.20149   0.98122   0.00000  Uiso   1.00
C561   C     0.17097   0.16413   0.97971   0.00000  Uiso   1.00
C562   C     0.15845   0.16867   0.52160   0.00000  Uiso   1.00
C563   C     0.12600   0.19452   0.54165   0.00000  Uiso   1.00
C564   C     0.10057   0.20813   0.52208   0.00000  Uiso   1.00
H565   H     0.07374   0.22526   0.53889   0.00000  Uiso   1.00
H566   H     0.27792   0.10969   0.52162   0.00000  Uiso   1.00
H567   H     0.31795   0.13884   0.78295   0.00000  Uiso   1.00
H568   H     0.26050   0.12067   0.59344   0.00000  Uiso   1.00
H569   H     0.25657   0.10884   0.96172   0.00000  Uiso   1.00
H570   H     0.05436   0.22689   0.97817   0.00000  Uiso   1.00
H571   H     0.07301   0.21660   0.90638   0.00000  Uiso   1.00
H572   H     0.12020   0.20520   0.57248   0.00000  Uiso   1.00
H573   H     0.20959   0.12855   0.92838   0.00000  Uiso   1.00
O574   O     0.16667   0.16667   0.75000   0.00000  Uiso   1.00
O575   O     0.15693   0.12393   0.66625   0.00000  Uiso   1.00
O576   O     0.12687   0.20646   0.83749   0.00000  Uiso   1.00
O577   O     0.21088   0.17493   0.65877   0.00000  Uiso   1.00
O578   O     0.17198   0.16135   0.83749   0.00000  Uiso   1.00
O579   O     0.17849   0.08101   0.77820   0.00000  Uiso   1.00
O580   O     0.14581   0.26136   0.76767   0.00000  Uiso   1.00
O581   O     0.07452   0.13251   0.73607   0.00000  Uiso   1.00
O582   O     0.26785   0.19179   0.71806   0.00000  Uiso   1.00
O583   O     0.06990   0.18960   0.77820   0.00000  Uiso   1.00
O584   O     0.25440   0.15277   0.76768   0.00000  Uiso   1.00
O585   O     0.13800   0.06903   0.73607   0.00000  Uiso   1.00
O586   O     0.20437   0.25527   0.71806   0.00000  Uiso   1.00
Zn587  Zn    0.19244   0.14090   0.78278   0.00000  Uiso   1.00
Zn588  Zn    0.13459   0.12378   0.72258   0.00000  Uiso   1.00
Zn589  Zn    0.21166   0.19664   0.71188   0.00000  Uiso   1.00
Zn590  Zn    0.12798   0.20535   0.78277   0.00000  Uiso   1.00
Br591  Br    0.36739   0.21112   0.69958   0.00000  Uiso   1.00
Br592  Br    0.56789   0.01361   0.70561   0.00000  Uiso   1.00
Br593  Br    0.42681   0.32629   0.79371   0.00000  Uiso   1.00
Br594  Br    0.43962   0.14203   0.61266   0.00000  Uiso   1.00
Br595  Br    0.55894   0.19609   0.89190   0.00000  Uiso   1.00
C596   C     0.38579   0.15982   0.75887   0.00000  Uiso   1.00
C597   C     0.53682   0.13851   0.95942   0.00000  Uiso   1.00
C598   C     0.56270   0.12537   0.97873   0.00000  Uiso   1.00
C599   C     0.61443   0.17385   0.74120   0.00000  Uiso   1.00
C600   C     0.55296   0.13240   0.51953   0.00000  Uiso   1.00
C601   C     0.51426   0.14953   0.54174   0.00000  Uiso   1.00
C602   C     0.58094   0.12139   0.53841   0.00000  Uiso   1.00
C603   C     0.57080   0.12698   0.57914   0.00000  Uiso   1.00
C604   C     0.50032   0.14640   0.58286   0.00000  Uiso   1.00
C605   C     0.66061   0.17761   0.73782   0.00000  Uiso   1.00
C606   C     0.34056   0.15785   0.76155   0.00000  Uiso   1.00
C607   C     0.42861   0.20910   0.92090   0.00000  Uiso   1.00
C608   C     0.51478   0.32244   0.73988   0.00000  Uiso   1.00
C609   C     0.48359   0.01263   0.76170   0.00000  Uiso   1.00
C610   C     0.48938   0.05633   0.75855   0.00000  Uiso   1.00
C611   C     0.51006   0.27771   0.74152   0.00000  Uiso   1.00
C612   C     0.52130   0.14564   0.64401   0.00000  Uiso   1.00
C613   C     0.47911   0.18815   0.85599   0.00000  Uiso   1.00
C614   C     0.46850   0.19548   0.89904   0.00000  Uiso   1.00
C615   C     0.53028   0.13844   0.60140   0.00000  Uiso   1.00
C616   C     0.41758   0.21418   0.96176   0.00000  Uiso   1.00
C617   C     0.49738   0.18706   0.91855   0.00000  Uiso   1.00
C618   C     0.48241   0.18366   0.95947   0.00000  Uiso   1.00
C619   C     0.44412   0.20149   0.98122   0.00000  Uiso   1.00
C620   C     0.50430   0.16413   0.97971   0.00000  Uiso   1.00
C621   C     0.49179   0.16867   0.52160   0.00000  Uiso   1.00
C622   C     0.45934   0.19452   0.54165   0.00000  Uiso   1.00
C623   C     0.43391   0.20813   0.52208   0.00000  Uiso   1.00
H624   H     0.40708   0.22526   0.53889   0.00000  Uiso   1.00
H625   H     0.61125   0.10969   0.52162   0.00000  Uiso   1.00
H626   H     0.65128   0.13884   0.78295   0.00000  Uiso   1.00
H627   H     0.59383   0.12067   0.59344   0.00000  Uiso   1.00
H628   H     0.58990   0.10884   0.96172   0.00000  Uiso   1.00
H629   H     0.38770   0.22689   0.97817   0.00000  Uiso   1.00
H630   H     0.40635   0.21660   0.90638   0.00000  Uiso   1.00
H631   H     0.45354   0.20520   0.57248   0.00000  Uiso   1.00
H632   H     0.54292   0.12855   0.92838   0.00000  Uiso   1.00
O633   O     0.50000   0.16667   0.75000   0.00000  Uiso   1.00
O634   O     0.49027   0.12393   0.66625   0.00000  Uiso   1.00
O635   O     0.46020   0.20646   0.83749   0.00000  Uiso   1.00
O636   O     0.54421   0.17493   0.65877   0.00000  Uiso   1.00
O637   O     0.50532   0.16135   0.83749   0.00000  Uiso   1.00
O638   O     0.51182   0.08101   0.77820   0.00000  Uiso   1.00
O639   O     0.47914   0.26136   0.76767   0.00000  Uiso   1.00
O640   O     0.40785   0.13251   0.73607   0.00000  Uiso   1.00
O641   O     0.60119   0.19179   0.71806   0.00000  Uiso   1.00
O642   O     0.40323   0.18960   0.77820   0.00000  Uiso   1.00
O643   O     0.58773   0.15277   0.76768   0.00000  Uiso   1.00
O644   O     0.47133   0.06903   0.73607   0.00000  Uiso   1.00
O645   O     0.53771   0.25527   0.71806   0.00000  Uiso   1.00
Zn646  Zn    0.52577   0.14090   0.78278   0.00000  Uiso   1.00
Zn647  Zn    0.46792   0.12378   0.72258   0.00000  Uiso   1.00
Zn648  Zn    0.54500   0.19664   0.71188   0.00000  Uiso   1.00
Zn649  Zn    0.46131   0.20535   0.78277   0.00000  Uiso   1.00
Br650  Br    0.70073   0.21112   0.69958   0.00000  Uiso   1.00
Br651  Br    0.90123   0.01361   0.70561   0.00000  Uiso   1.00
Br652  Br    0.76014   0.32629   0.79371   0.00000  Uiso   1.00
Br653  Br    0.77295   0.14203   0.61266   0.00000  Uiso   1.00
Br654  Br    0.89228   0.19609   0.89190   0.00000  Uiso   1.00
C655   C     0.71912   0.15982   0.75887   0.00000  Uiso   1.00
C656   C     0.87016   0.13851   0.95942   0.00000  Uiso   1.00
C657   C     0.89603   0.12537   0.97873   0.00000  Uiso   1.00
C658   C     0.94776   0.17385   0.74120   0.00000  Uiso   1.00
C659   C     0.88629   0.13240   0.51953   0.00000  Uiso   1.00
C660   C     0.84760   0.14953   0.54174   0.00000  Uiso   1.00
C661   C     0.91428   0.12139   0.53841   0.00000  Uiso   1.00
C662   C     0.90413   0.12698   0.57914   0.00000  Uiso   1.00
C663   C     0.83365   0.14640   0.58286   0.00000  Uiso   1.00
C664   C     0.99395   0.17761   0.73782   0.00000  Uiso   1.00
C665   C     0.67389   0.15785   0.76155   0.00000  Uiso   1.00
C666   C     0.76195   0.20910   0.92090   0.00000  Uiso   1.00
C667   C     0.84811   0.32244   0.73988   0.00000  Uiso   1.00
C668   C     0.81692   0.01263   0.76170   0.00000  Uiso   1.00
C669   C     0.82271   0.05633   0.75855   0.00000  Uiso   1.00
C670   C     0.84340   0.27771   0.74152   0.00000  Uiso   1.00
C671   C     0.85463   0.14564   0.64401   0.00000  Uiso   1.00
C672   C     0.81244   0.18815   0.85599   0.00000  Uiso   1.00
C673   C     0.80184   0.19548   0.89904   0.00000  Uiso   1.00
C674   C     0.86361   0.13844   0.60140   0.00000  Uiso   1.00
C675   C     0.75091   0.21418   0.96176   0.00000  Uiso   1.00
C676   C     0.83072   0.18706   0.91855   0.00000  Uiso   1.00
C677   C     0.81574   0.18366   0.95947   0.00000  Uiso   1.00
C678   C     0.77745   0.20149   0.98122   0.00000  Uiso   1.00
C679   C     0.83763   0.16413   0.97971   0.00000  Uiso   1.00
C680   C     0.82512   0.16867   0.52160   0.00000  Uiso   1.00
C681   C     0.79267   0.19452   0.54165   0.00000  Uiso   1.00
C682   C     0.76724   0.20813   0.52208   0.00000  Uiso   1.00
H683   H     0.74041   0.22526   0.53889   0.00000  Uiso   1.00
H684   H     0.94458   0.10969   0.52162   0.00000  Uiso   1.00
H685   H     0.98461   0.13884   0.78295   0.00000  Uiso   1.00
H686   H     0.92716   0.12067   0.59344   0.00000  Uiso   1.00
H687   H     0.92324   0.10884   0.96172   0.00000  Uiso   1.00
H688   H     0.72103   0.22689   0.97817   0.00000  Uiso   1.00
H689   H     0.73968   0.21660   0.90638   0.00000  Uiso   1.00
H690   H     0.78687   0.20520   0.57248   0.00000  Uiso   1.00
H691   H     0.87626   0.12855   0.92838   0.00000  Uiso   1.00
O692   O     0.83333   0.16667   0.75000   0.00000  Uiso   1.00
O693   O     0.82360   0.12393   0.66625   0.00000  Uiso   1.00
O694   O     0.79354   0.20646   0.83749   0.00000  Uiso   1.00
O695   O     0.87755   0.17493   0.65877   0.00000  Uiso   1.00
O696   O     0.83865   0.16135   0.83749   0.00000  Uiso   1.00
O697   O     0.84515   0.08101   0.77820   0.00000  Uiso   1.00
O698   O     0.81247   0.26136   0.76767   0.00000  Uiso   1.00
O699   O     0.74119   0.13251   0.73607   0.00000  Uiso   1.00
O700   O     0.93452   0.19179   0.71806   0.00000  Uiso   1.00
O701   O     0.73656   0.18960   0.77820   0.00000  Uiso   1.00
O702   O     0.92106   0.15277   0.76768   0.00000  Uiso   1.00
O703   O     0.80467   0.06903   0.73607   0.00000  Uiso   1.00
O704   O     0.87104   0.25527   0.71806   0.00000  Uiso   1.00
Zn705  Zn    0.85910   0.14090   0.78278   0.00000  Uiso   1.00
Zn706  Zn    0.80125   0.12378   0.72258   0.00000  Uiso   1.00
Zn707  Zn    0.87833   0.19664   0.71188   0.00000  Uiso   1.00
Zn708  Zn    0.79465   0.20535   0.78277   0.00000  Uiso   1.00
Br709  Br    0.03406   0.54445   0.69958   0.00000  Uiso   1.00
Br710  Br    0.23456   0.34694   0.70561   0.00000  Uiso   1.00
Br711  Br    0.09347   0.65962   0.79371   0.00000  Uiso   1.00
Br712  Br    0.10628   0.47536   0.61266   0.00000  Uiso   1.00
Br713  Br    0.22561   0.52943   0.89190   0.00000  Uiso   1.00
C714   C     0.05245   0.49315   0.75887   0.00000  Uiso   1.00
C715   C     0.20349   0.47184   0.95942   0.00000  Uiso   1.00
C716   C     0.22936   0.45871   0.97873   0.00000  Uiso   1.00
C717   C     0.28110   0.50719   0.74120   0.00000  Uiso   1.00
C718   C     0.21963   0.46573   0.51953   0.00000  Uiso   1.00
C719   C     0.18093   0.48286   0.54174   0.00000  Uiso   1.00
C720   C     0.24761   0.45472   0.53841   0.00000  Uiso   1.00
C721   C     0.23747   0.46031   0.57914   0.00000  Uiso   1.00
C722   C     0.16698   0.47973   0.58286   0.00000  Uiso   1.00
C723   C     0.32728   0.51094   0.73782   0.00000  Uiso   1.00
C724   C     0.00722   0.49118   0.76155   0.00000  Uiso   1.00
C725   C     0.09528   0.54243   0.92090   0.00000  Uiso   1.00
C726   C     0.18144   0.65577   0.73988   0.00000  Uiso   1.00
C727   C     0.15026   0.34596   0.76170   0.00000  Uiso   1.00
C728   C     0.15604   0.38966   0.75855   0.00000  Uiso   1.00
C729   C     0.17673   0.61104   0.74152   0.00000  Uiso   1.00
C730   C     0.18797   0.47898   0.64401   0.00000  Uiso   1.00
C731   C     0.14577   0.52148   0.85599   0.00000  Uiso   1.00
C732   C     0.13517   0.52881   0.89904   0.00000  Uiso   1.00
C733   C     0.19694   0.47177   0.60140   0.00000  Uiso   1.00
C734   C     0.08424   0.54752   0.96176   0.00000  Uiso   1.00
C735   C     0.16405   0.52039   0.91855   0.00000  Uiso   1.00
C736   C     0.14907   0.51699   0.95947   0.00000  Uiso   1.00
C737   C     0.11079   0.53482   0.98122   0.00000  Uiso   1.00
C738   C     0.17097   0.49746   0.97971   0.00000  Uiso   1.00
C739   C     0.15845   0.50200   0.52160   0.00000  Uiso   1.00
C740   C     0.12600   0.52785   0.54165   0.00000  Uiso   1.00
C741   C     0.10057   0.54147   0.52208   0.00000  Uiso   1.00
H742   H     0.07374   0.55859   0.53889   0.00000  Uiso   1.00
H743   H     0.27792   0.44302   0.52162   0.00000  Uiso   1.00
H744   H     0.31795   0.47217   0.78295   0.00000  Uiso   1.00
H745   H     0.26050   0.45400   0.59344   0.00000  Uiso   1.00
H746   H     0.25657   0.44217   0.96172   0.00000  Uiso   1.00
H747   H     0.05436   0.56023   0.97817   0.00000  Uiso   1.00
H748   H     0.07301   0.54993   0.90638   0.00000  Uiso   1.00
H749   H     0.12020   0.53853   0.57248   0.00000  Uiso   1.00
H750   H     0.20959   0.46188   0.92838   0.00000  Uiso   1.00
O751   O     0.16667   0.50000   0.75000   0.00000  Uiso   1.00
O752   O     0.15693   0.45726   0.66625   0.00000  Uiso   1.00
O753   O     0.12687   0.53979   0.83749   0.00000  Uiso   1.00
O754   O     0.21088   0.50826   0.65877   0.00000  Uiso   1.00
O755   O     0.17198   0.49468   0.83749   0.00000  Uiso   1.00
O756   O     0.17849   0.41434   0.77820   0.00000  Uiso   1.00
O757   O     0.14581   0.59469   0.76767   0.00000  Uiso   1.00
O758   O     0.07452   0.46584   0.73607   0.00000  Uiso   1.00
O759   O     0.26785   0.52512   0.71806   0.00000  Uiso   1.00
O760   O     0.06990   0.52293   0.77820   0.00000  Uiso   1.00
O761   O     0.25440   0.48610   0.76768   0.00000  Uiso   1.00
O762   O     0.13800   0.40236   0.73607   0.00000  Uiso   1.00
O763   O     0.20437   0.58860   0.71806   0.00000  Uiso   1.00
Zn764  Zn    0.19244   0.47423   0.78278   0.00000  Uiso   1.00
Zn765  Zn    0.13459   0.45711   0.72258   0.00000  Uiso   1.00
Zn766  Zn    0.21166   0.52997   0.71188   0.00000  Uiso   1.00
Zn767  Zn    0.12798   0.53868   0.78277   0.00000  Uiso   1.00
Br768  Br    0.36739   0.54445   0.69958   0.00000  Uiso   1.00
Br769  Br    0.56789   0.34694   0.70561   0.00000  Uiso   1.00
Br770  Br    0.42681   0.65962   0.79371   0.00000  Uiso   1.00
Br771  Br    0.43962   0.47536   0.61266   0.00000  Uiso   1.00
Br772  Br    0.55894   0.52943   0.89190   0.00000  Uiso   1.00
C773   C     0.38579   0.49315   0.75887   0.00000  Uiso   1.00
C774   C     0.53682   0.47184   0.95942   0.00000  Uiso   1.00
C775   C     0.56270   0.45871   0.97873   0.00000  Uiso   1.00
C776   C     0.61443   0.50719   0.74120   0.00000  Uiso   1.00
C777   C     0.55296   0.46573   0.51953   0.00000  Uiso   1.00
C778   C     0.51426   0.48286   0.54174   0.00000  Uiso   1.00
C779   C     0.58094   0.45472   0.53841   0.00000  Uiso   1.00
C780   C     0.57080   0.46031   0.57914   0.00000  Uiso   1.00
C781   C     0.50032   0.47973   0.58286   0.00000  Uiso   1.00
C782   C     0.66061   0.51094   0.73782   0.00000  Uiso   1.00
C783   C     0.34056   0.49118   0.76155   0.00000  Uiso   1.00
C784   C     0.42861   0.54243   0.92090   0.00000  Uiso   1.00
C785   C     0.51478   0.65577   0.73988   0.00000  Uiso   1.00
C786   C     0.48359   0.34596   0.76170   0.00000  Uiso   1.00
C787   C     0.48938   0.38966   0.75855   0.00000  Uiso   1.00
C788   C     0.51006   0.61104   0.74152   0.00000  Uiso   1.00
C789   C     0.52130   0.47898   0.64401   0.00000  Uiso   1.00
C790   C     0.47911   0.52148   0.85599   0.00000  Uiso   1.00
C791   C     0.46850   0.52881   0.89904   0.00000  Uiso   1.00
C792   C     0.53028   0.47177   0.60140   0.00000  Uiso   1.00
C793   C     0.41758   0.54752   0.96176   0.00000  Uiso   1.00
C794   C     0.49738   0.52039   0.91855   0.00000  Uiso   1.00
C795   C     0.48241   0.51699   0.95947   0.00000  Uiso   1.00
C796   C     0.44412   0.53482   0.98122   0.00000  Uiso   1.00
C797   C     0.50430   0.49746   0.97971   0.00000  Uiso   1.00
C798   C     0.49179   0.50200   0.52160   0.00000  Uiso   1.00
C799   C     0.45934   0.52785   0.54165   0.00000  Uiso   1.00
C800   C     0.43391   0.54147   0.52208   0.00000  Uiso   1.00
H801   H     0.40708   0.55859   0.53889   0.00000  Uiso   1.00
H802   H     0.61125   0.44302   0.52162   0.00000  Uiso   1.00
H803   H     0.65128   0.47217   0.78295   0.00000  Uiso   1.00
H804   H     0.59383   0.45400   0.59344   0.00000  Uiso   1.00
H805   H     0.58990   0.44217   0.96172   0.00000  Uiso   1.00
H806   H     0.38770   0.56023   0.97817   0.00000  Uiso   1.00
H807   H     0.40635   0.54993   0.90638   0.00000  Uiso   1.00
H808   H     0.45354   0.53853   0.57248   0.00000  Uiso   1.00
H809   H     0.54292   0.46188   0.92838   0.00000  Uiso   1.00
O810   O     0.50000   0.50000   0.75000   0.00000  Uiso   1.00
O811   O     0.49027   0.45726   0.66625   0.00000  Uiso   1.00
O812   O     0.46020   0.53979   0.83749   0.00000  Uiso   1.00
O813   O     0.54421   0.50826   0.65877   0.00000  Uiso   1.00
O814   O     0.50532   0.49468   0.83749   0.00000  Uiso   1.00
O815   O     0.51182   0.41434   0.77820   0.00000  Uiso   1.00
O816   O     0.47914   0.59469   0.76767   0.00000  Uiso   1.00
O817   O     0.40785   0.46584   0.73607   0.00000  Uiso   1.00
O818   O     0.60119   0.52512   0.71806   0.00000  Uiso   1.00
O819   O     0.40323   0.52293   0.77820   0.00000  Uiso   1.00
O820   O     0.58773   0.48610   0.76768   0.00000  Uiso   1.00
O821   O     0.47133   0.40236   0.73607   0.00000  Uiso   1.00
O822   O     0.53771   0.58860   0.71806   0.00000  Uiso   1.00
Zn823  Zn    0.52577   0.47423   0.78278   0.00000  Uiso   1.00
Zn824  Zn    0.46792   0.45711   0.72258   0.00000  Uiso   1.00
Zn825  Zn    0.54500   0.52997   0.71188   0.00000  Uiso   1.00
Zn826  Zn    0.46131   0.53868   0.78277   0.00000  Uiso   1.00
Br827  Br    0.70073   0.54445   0.69958   0.00000  Uiso   1.00
Br828  Br    0.90123   0.34694   0.70561   0.00000  Uiso   1.00
Br829  Br    0.76014   0.65962   0.79371   0.00000  Uiso   1.00
Br830  Br    0.77295   0.47536   0.61266   0.00000  Uiso   1.00
Br831  Br    0.89228   0.52943   0.89190   0.00000  Uiso   1.00
C832   C     0.71912   0.49315   0.75887   0.00000  Uiso   1.00
C833   C     0.87016   0.47184   0.95942   0.00000  Uiso   1.00
C834   C     0.89603   0.45871   0.97873   0.00000  Uiso   1.00
C835   C     0.94776   0.50719   0.74120   0.00000  Uiso   1.00
C836   C     0.88629   0.46573   0.51953   0.00000  Uiso   1.00
C837   C     0.84760   0.48286   0.54174   0.00000  Uiso   1.00
C838   C     0.91428   0.45472   0.53841   0.00000  Uiso   1.00
C839   C     0.90413   0.46031   0.57914   0.00000  Uiso   1.00
C840   C     0.83365   0.47973   0.58286   0.00000  Uiso   1.00
C841   C     0.99395   0.51094   0.73782   0.00000  Uiso   1.00
C842   C     0.67389   0.49118   0.76155   0.00000  Uiso   1.00
C843   C     0.76195   0.54243   0.92090   0.00000  Uiso   1.00
C844   C     0.84811   0.65577   0.73988   0.00000  Uiso   1.00
C845   C     0.81692   0.34596   0.76170   0.00000  Uiso   1.00
C846   C     0.82271   0.38966   0.75855   0.00000  Uiso   1.00
C847   C     0.84340   0.61104   0.74152   0.00000  Uiso   1.00
C848   C     0.85463   0.47898   0.64401   0.00000  Uiso   1.00
C849   C     0.81244   0.52148   0.85599   0.00000  Uiso   1.00
C850   C     0.80184   0.52881   0.89904   0.00000  Uiso   1.00
C851   C     0.86361   0.47177   0.60140   0.00000  Uiso   1.00
C852   C     0.75091   0.54752   0.96176   0.00000  Uiso   1.00
C853   C     0.83072   0.52039   0.91855   0.00000  Uiso   1.00
C854   C     0.81574   0.51699   0.95947   0.00000  Uiso   1.00
C855   C     0.77745   0.53482   0.98122   0.00000  Uiso   1.00
C856   C     0.83763   0.49746   0.97971   0.00000  Uiso   1.00
C857   C     0.82512   0.50200   0.52160   0.00000  Uiso   1.00
C858   C     0.79267   0.52785   0.54165   0.00000  Uiso   1.00
C859   C     0.76724   0.54147   0.52208   0.00000  Uiso   1.00
H860   H     0.74041   0.55859   0.53889   0.00000  Uiso   1.00
H861   H     0.94458   0.44302   0.52162   0.00000  Uiso   1.00
H862   H     0.98461   0.47217   0.78295   0.00000  Uiso   1.00
H863   H     0.92716   0.45400   0.59344   0.00000  Uiso   1.00
H864   H     0.92324   0.44217   0.96172   0.00000  Uiso   1.00
H865   H     0.72103   0.56023   0.97817   0.00000  Uiso   1.00
H866   H     0.73968   0.54993   0.90638   0.00000  Uiso   1.00
H867   H     0.78687   0.53853   0.57248   0.00000  Uiso   1.00
H868   H     0.87626   0.46188   0.92838   0.00000  Uiso   1.00
O869   O     0.83333   0.50000   0.75000   0.00000  Uiso   1.00
O870   O     0.82360   0.45726   0.66625   0.00000  Uiso   1.00
O871   O     0.79354   0.53979   0.83749   0.00000  Uiso   1.00
O872   O     0.87755   0.50826   0.65877   0.00000  Uiso   1.00
O873   O     0.83865   0.49468   0.83749   0.00000  Uiso   1.00
O874   O     0.84515   0.41434   0.77820   0.00000  Uiso   1.00
O875   O     0.81247   0.59469   0.76767   0.00000  Uiso   1.00
O876   O     0.74119   0.46584   0.73607   0.00000  Uiso   1.00
O877   O     0.93452   0.52512   0.71806   0.00000  Uiso   1.00
O878   O     0.73656   0.52293   0.77820   0.00000  Uiso   1.00
O879   O     0.92106   0.48610   0.76768   0.00000  Uiso   1.00
O880   O     0.80467   0.40236   0.73607   0.00000  Uiso   1.00
O881   O     0.87104   0.58860   0.71806   0.00000  Uiso   1.00
Zn882  Zn    0.85910   0.47423   0.78278   0.00000  Uiso   1.00
Zn883  Zn    0.80125   0.45711   0.72258   0.00000  Uiso   1.00
Zn884  Zn    0.87833   0.52997   0.71188   0.00000  Uiso   1.00
Zn885  Zn    0.79465   0.53868   0.78277   0.00000  Uiso   1.00
Br886  Br    0.03406   0.87778   0.69958   0.00000  Uiso   1.00
Br887  Br    0.23456   0.68027   0.70561   0.00000  Uiso   1.00
Br888  Br    0.09347   0.99295   0.79371   0.00000  Uiso   1.00
Br889  Br    0.10628   0.80870   0.61266   0.00000  Uiso   1.00
Br890  Br    0.22561   0.86276   0.89190   0.00000  Uiso   1.00
C891   C     0.05245   0.82649   0.75887   0.00000  Uiso   1.00
C892   C     0.20349   0.80518   0.95942   0.00000  Uiso   1.00
C893   C     0.22936   0.79204   0.97873   0.00000  Uiso   1.00
C894   C     0.28110   0.84052   0.74120   0.00000  Uiso   1.00
C895   C     0.21963   0.79906   0.51953   0.00000  Uiso   1.00
C896   C     0.18093   0.81619   0.54174   0.00000  Uiso   1.00
C897   C     0.24761   0.78806   0.53841   0.00000  Uiso   1.00
C898   C     0.23747   0.79364   0.57914   0.00000  Uiso   1.00
C899   C     0.16698   0.81307   0.58286   0.00000  Uiso   1.00
C900   C     0.32728   0.84428   0.73782   0.00000  Uiso   1.00
C901   C     0.00722   0.82451   0.76155   0.00000  Uiso   1.00
C902   C     0.09528   0.87576   0.92090   0.00000  Uiso   1.00
C903   C     0.18144   0.98911   0.73988   0.00000  Uiso   1.00
C904   C     0.15026   0.67930   0.76170   0.00000  Uiso   1.00
C905   C     0.15604   0.72300   0.75855   0.00000  Uiso   1.00
C906   C     0.17673   0.94437   0.74152   0.00000  Uiso   1.00
C907   C     0.18797   0.81231   0.64401   0.00000  Uiso   1.00
C908   C     0.14577   0.85482   0.85599   0.00000  Uiso   1.00
C909   C     0.13517   0.86214   0.89904   0.00000  Uiso   1.00
C910   C     0.19694   0.80511   0.60140   0.00000  Uiso   1.00
C911   C     0.08424   0.88085   0.96176   0.00000  Uiso   1.00
C912   C     0.16405   0.85373   0.91855   0.00000  Uiso   1.00
C913   C     0.14907   0.85033   0.95947   0.00000  Uiso   1.00
C914   C     0.11079   0.86816   0.98122   0.00000  Uiso   1.00
C915   C     0.17097   0.83079   0.97971   0.00000  Uiso   1.00
C916   C     0.15845   0.83534   0.52160   0.00000  Uiso   1.00
C917   C     0.12600   0.86118   0.54165   0.00000  Uiso   1.00
C918   C     0.10057   0.87480   0.52208   0.00000  Uiso   1.00
H919   H     0.07374   0.89192   0.53889   0.00000  Uiso   1.00
H920   H     0.27792   0.77636   0.52162   0.00000  Uiso   1.00
H921   H     0.31795   0.80550   0.78295   0.00000  Uiso   1.00
H922   H     0.26050   0.78734   0.59344   0.00000  Uiso   1.00
H923   H     0.25657   0.77550   0.96172   0.00000  Uiso   1.00
H924   H     0.05436   0.89356   0.97817   0.00000  Uiso   1.00
H925   H     0.07301   0.88326   0.90638   0.00000  Uiso   1.00
H926   H     0.12020   0.87187   0.57248   0.00000  Uiso   1.00
H927   H     0.20959   0.79522   0.92838   0.00000  Uiso   1.00
O928   O     0.16667   0.83333   0.75000   0.00000  Uiso   1.00
O929   O     0.15693   0.79060   0.66625   0.00000  Uiso   1.00
O930   O     0.12687   0.87313   0.83749   0.00000  Uiso   1.00
O931   O     0.21088   0.84159   0.65877   0.00000  Uiso   1.00
O932   O     0.17198   0.82802   0.83749   0.00000  Uiso   1.00
O933   O     0.17849   0.74768   0.77820   0.00000  Uiso   1.00
O934   O     0.14581   0.92803   0.76767   0.00000  Uiso   1.00
O935   O     0.07452   0.79917   0.73607   0.00000  Uiso   1.00
O936   O     0.26785   0.85845   0.71806   0.00000  Uiso   1.00
O937   O     0.06990   0.85627   0.77820   0.00000  Uiso   1.00
O938   O     0.25440   0.81944   0.76768   0.00000  Uiso   1.00
O939   O     0.13800   0.73570   0.73607   0.00000  Uiso   1.00
O940   O     0.20437   0.92193   0.71806   0.00000  Uiso   1.00
Zn941  Zn    0.19244   0.80756   0.78278   0.00000  Uiso   1.00
Zn942  Zn    0.13459   0.79044   0.72258   0.00000  Uiso   1.00
Zn943  Zn    0.21166   0.86331   0.71188   0.00000  Uiso   1.00
Zn944  Zn    0.12798   0.87202   0.78277   0.00000  Uiso   1.00
Br945  Br    0.36739   0.87778   0.69958   0.00000  Uiso   1.00
Br946  Br    0.56789   0.68027   0.70561   0.00000  Uiso   1.00
Br947  Br    0.42681   0.99295   0.79371   0.00000  Uiso   1.00
Br948  Br    0.43962   0.80870   0.61266   0.00000  Uiso   1.00
Br949  Br    0.55894   0.86276   0.89190   0.00000  Uiso   1.00
C950   C     0.38579   0.82649   0.75887   0.00000  Uiso   1.00
C951   C     0.53682   0.80518   0.95942   0.00000  Uiso   1.00
C952   C     0.56270   0.79204   0.97873   0.00000  Uiso   1.00
C953   C     0.61443   0.84052   0.74120   0.00000  Uiso   1.00
C954   C     0.55296   0.79906   0.51953   0.00000  Uiso   1.00
C955   C     0.51426   0.81619   0.54174   0.00000  Uiso   1.00
C956   C     0.58094   0.78806   0.53841   0.00000  Uiso   1.00
C957   C     0.57080   0.79364   0.57914   0.00000  Uiso   1.00
C958   C     0.50032   0.81307   0.58286   0.00000  Uiso   1.00
C959   C     0.66061   0.84428   0.73782   0.00000  Uiso   1.00
C960   C     0.34056   0.82451   0.76155   0.00000  Uiso   1.00
C961   C     0.42861   0.87576   0.92090   0.00000  Uiso   1.00
C962   C     0.51478   0.98911   0.73988   0.00000  Uiso   1.00
C963   C     0.48359   0.67930   0.76170   0.00000  Uiso   1.00
C964   C     0.48938   0.72300   0.75855   0.00000  Uiso   1.00
C965   C     0.51006   0.94437   0.74152   0.00000  Uiso   1.00
C966   C     0.52130   0.81231   0.64401   0.00000  Uiso   1.00
C967   C     0.47911   0.85482   0.85599   0.00000  Uiso   1.00
C968   C     0.46850   0.86214   0.89904   0.00000  Uiso   1.00
C969   C     0.53028   0.80511   0.60140   0.00000  Uiso   1.00
C970   C     0.41758   0.88085   0.96176   0.00000  Uiso   1.00
C971   C     0.49738   0.85373   0.91855   0.00000  Uiso   1.00
C972   C     0.48241   0.85033   0.95947   0.00000  Uiso   1.00
C973   C     0.44412   0.86816   0.98122   0.00000  Uiso   1.00
C974   C     0.50430   0.83079   0.97971   0.00000  Uiso   1.00
C975   C     0.49179   0.83534   0.52160   0.00000  Uiso   1.00
C976   C     0.45934   0.86118   0.54165   0.00000  Uiso   1.00
C977   C     0.43391   0.87480   0.52208   0.00000  Uiso   1.00
H978   H     0.40708   0.89192   0.53889   0.00000  Uiso   1.00
H979   H     0.61125   0.77636   0.52162   0.00000  Uiso   1.00
H980   H     0.65128   0.80550   0.78295   0.00000  Uiso   1.00
H981   H     0.59383   0.78734   0.59344   0.00000  Uiso   1.00
H982   H     0.58990   0.77550   0.96172   0.00000  Uiso   1.00
H983   H     0.38770   0.89356   0.97817   0.00000  Uiso   1.00
H984   H     0.40635   0.88326   0.90638   0.00000  Uiso   1.00
H985   H     0.45354   0.87187   0.57248   0.00000  Uiso   1.00
H986   H     0.54292   0.79522   0.92838   0.00000  Uiso   1.00
O987   O     0.50000   0.83333   0.75000   0.00000  Uiso   1.00
O988   O     0.49027   0.79060   0.66625   0.00000  Uiso   1.00
O989   O     0.46020   0.87313   0.83749   0.00000  Uiso   1.00
O990   O     0.54421   0.84159   0.65877   0.00000  Uiso   1.00
O991   O     0.50532   0.82802   0.83749   0.00000  Uiso   1.00
O992   O     0.51182   0.74768   0.77820   0.00000  Uiso   1.00
O993   O     0.47914   0.92803   0.76767   0.00000  Uiso   1.00
O994   O     0.40785   0.79917   0.73607   0.00000  Uiso   1.00
O995   O     0.60119   0.85845   0.71806   0.00000  Uiso   1.00
O996   O     0.40323   0.85627   0.77820   0.00000  Uiso   1.00
O997   O     0.58773   0.81944   0.76768   0.00000  Uiso   1.00
O998   O     0.47133   0.73570   0.73607   0.00000  Uiso   1.00
O999   O     0.53771   0.92193   0.71806   0.00000  Uiso   1.00
Zn1000 Zn    0.52577   0.80756   0.78278   0.00000  Uiso   1.00
Zn1001 Zn    0.46792   0.79044   0.72258   0.00000  Uiso   1.00
Zn1002 Zn    0.54500   0.86331   0.71188   0.00000  Uiso   1.00
Zn1003 Zn    0.46131   0.87202   0.78277   0.00000  Uiso   1.00
Br1004 Br    0.70073   0.87778   0.69958   0.00000  Uiso   1.00
Br1005 Br    0.90123   0.68027   0.70561   0.00000  Uiso   1.00
Br1006 Br    0.76014   0.99295   0.79371   0.00000  Uiso   1.00
Br1007 Br    0.77295   0.80870   0.61266   0.00000  Uiso   1.00
Br1008 Br    0.89228   0.86276   0.89190   0.00000  Uiso   1.00
C1009  C     0.71912   0.82649   0.75887   0.00000  Uiso   1.00
C1010  C     0.87016   0.80518   0.95942   0.00000  Uiso   1.00
C1011  C     0.89603   0.79204   0.97873   0.00000  Uiso   1.00
C1012  C     0.94776   0.84052   0.74120   0.00000  Uiso   1.00
C1013  C     0.88629   0.79906   0.51953   0.00000  Uiso   1.00
C1014  C     0.84760   0.81619   0.54174   0.00000  Uiso   1.00
C1015  C     0.91428   0.78806   0.53841   0.00000  Uiso   1.00
C1016  C     0.90413   0.79364   0.57914   0.00000  Uiso   1.00
C1017  C     0.83365   0.81307   0.58286   0.00000  Uiso   1.00
C1018  C     0.99395   0.84428   0.73782   0.00000  Uiso   1.00
C1019  C     0.67389   0.82451   0.76155   0.00000  Uiso   1.00
C1020  C     0.76195   0.87576   0.92090   0.00000  Uiso   1.00
C1021  C     0.84811   0.98911   0.73988   0.00000  Uiso   1.00
C1022  C     0.81692   0.67930   0.76170   0.00000  Uiso   1.00
C1023  C     0.82271   0.72300   0.75855   0.00000  Uiso   1.00
C1024  C     0.84340   0.94437   0.74152   0.00000  Uiso   1.00
C1025  C     0.85463   0.81231   0.64401   0.00000  Uiso   1.00
C1026  C     0.81244   0.85482   0.85599   0.00000  Uiso   1.00
C1027  C     0.80184   0.86214   0.89904   0.00000  Uiso   1.00
C1028  C     0.86361   0.80511   0.60140   0.00000  Uiso   1.00
C1029  C     0.75091   0.88085   0.96176   0.00000  Uiso   1.00
C1030  C     0.83072   0.85373   0.91855   0.00000  Uiso   1.00
C1031  C     0.81574   0.85033   0.95947   0.00000  Uiso   1.00
C1032  C     0.77745   0.86816   0.98122   0.00000  Uiso   1.00
C1033  C     0.83763   0.83079   0.97971   0.00000  Uiso   1.00
C1034  C     0.82512   0.83534   0.52160   0.00000  Uiso   1.00
C1035  C     0.79267   0.86118   0.54165   0.00000  Uiso   1.00
C1036  C     0.76724   0.87480   0.52208   0.00000  Uiso   1.00
H1037  H     0.74041   0.89192   0.53889   0.00000  Uiso   1.00
H1038  H     0.94458   0.77636   0.52162   0.00000  Uiso   1.00
H1039  H     0.98461   0.80550   0.78295   0.00000  Uiso   1.00
H1040  H     0.92716   0.78734   0.59344   0.00000  Uiso   1.00
H1041  H     0.92324   0.77550   0.96172   0.00000  Uiso   1.00
H1042  H     0.72103   0.89356   0.97817   0.00000  Uiso   1.00
H1043  H     0.73968   0.88326   0.90638   0.00000  Uiso   1.00
H1044  H     0.78687   0.87187   0.57248   0.00000  Uiso   1.00
H1045  H     0.87626   0.79522   0.92838   0.00000  Uiso   1.00
O1046  O     0.83333   0.83333   0.75000   0.00000  Uiso   1.00
O1047  O     0.82360   0.79060   0.66625   0.00000  Uiso   1.00
O1048  O     0.79354   0.87313   0.83749   0.00000  Uiso   1.00
O1049  O     0.87755   0.84159   0.65877   0.00000  Uiso   1.00
O1050  O     0.83865   0.82802   0.83749   0.00000  Uiso   1.00
O1051  O     0.84515   0.74768   0.77820   0.00000  Uiso   1.00
O1052  O     0.81247   0.92803   0.76767   0.00000  Uiso   1.00
O1053  O     0.74119   0.79917   0.73607   0.00000  Uiso   1.00
O1054  O     0.93452   0.85845   0.71806   0.00000  Uiso   1.00
O1055  O     0.73656   0.85627   0.77820   0.00000  Uiso   1.00
O1056  O     0.92106   0.81944   0.76768   0.00000  Uiso   1.00
O1057  O     0.80467   0.73570   0.73607   0.00000  Uiso   1.00
O1058  O     0.87104   0.92193   0.71806   0.00000  Uiso   1.00
Zn1059 Zn    0.85910   0.80756   0.78278   0.00000  Uiso   1.00
Zn1060 Zn    0.80125   0.79044   0.72258   0.00000  Uiso   1.00
Zn1061 Zn    0.87833   0.86331   0.71188   0.00000  Uiso   1.00
Zn1062 Zn    0.79465   0.87202   0.78277   0.00000  Uiso   1.00
loop_
_geom_bond_atom_site_label_1
_geom_bond_atom_site_label_2
_geom_bond_distance
_geom_bond_site_symmetry_2
_ccdc_geom_bond_type
Br1    C133    1.928   1_455 S
Br2    C372    1.933   1_545 S
Br3    C196    1.932   .     S
Br4    C14     1.940   .     S
Br5    C27     1.943   .     S
C6     C16     1.438   .     S
C6     O50     1.270   .     A
C6     O52     1.271   .     A
C7     C8      1.385   .     A
C7     H42     1.079   .     S
C7     C30     1.408   .     A
C8     H38     1.084   .     S
C8     C541    1.392   .     S
C9     C15     1.459   .     S
C9     O51     1.285   .     A
C9     O53     1.284   .     A
C10    C12     1.399   .     A
C10    C11     1.421   .     A
C10    C539    1.392   1_554 S
C11    C31     1.427   .     A
C11    C14     1.421   .     A
C12    H35     1.084   .     S
C12    C13     1.388   .     A
C13    H37     1.084   .     S
C13    C25     1.397   .     A
C14    C25     1.406   .     A
C15    Br60    1.928   .     S
C15    C75     1.340   .     S
C16    C133    1.340   1_455 S
C16    H154    1.086   1_455 S
C17    H40     1.083   .     S
C17    C26     1.391   .     A
C17    C24     1.402   .     A
C18    C21     1.455   .     S
C18    Br179   1.933   .     S
C18    C196    1.349   .     S
C19    C20     1.429   .     S
C19    C372    1.349   1_545 S
C19    Br357   1.932   1_545 S
C20    O48     1.280   .     A
C20    O54     1.274   .     A
C21    O49     1.264   .     A
C21    O55     1.274   .     A
C22    O46     1.272   .     A
C22    O44     1.275   .     A
C22    C25     1.456   .     S
C23    O45     1.284   .     A
C23    C24     1.468   .     S
C23    O47     1.286   .     A
C24    C27     1.406   .     A
C26    H39     1.084   .     S
C26    C29     1.400   .     A
C27    C28     1.416   .     A
C28    C30     1.424   .     A
C28    C29     1.417   .     A
C29    C564    1.393   .     S
C30    C562    1.425   .     S
C31    C32     1.410   .     A
C31    C561    1.425   1_554 S
C32    H41     1.077   .     S
C32    C33     1.388   .     A
C33    H34     1.084   .     S
C33    C560    1.393   1_554 S
H36    C75     1.086   .     S
O43    Zn59    1.932   .     S
O43    Zn57    1.944   .     S
O43    Zn56    1.972   .     S
O43    Zn58    1.932   .     S
O44    Zn57    1.931   .     S
O45    Zn59    1.946   .     S
O46    Zn58    1.937   .     S
O47    Zn56    1.925   .     S
O48    Zn56    1.934   .     S
O49    Zn59    1.939   .     S
O50    Zn57    1.924   .     S
O51    Zn58    1.939   .     S
O52    Zn59    1.930   .     S
O53    Zn56    1.918   .     S
O54    Zn57    1.949   .     S
O55    Zn58    1.939   .     S
Br61   C431    1.933   1_545 S
Br62   C255    1.932   .     S
Br63   C73     1.940   .     S
Br64   C86     1.943   .     S
C65    C75     1.438   .     S
C65    O109    1.270   .     A
C65    O111    1.271   .     A
C66    C67     1.385   .     A
C66    H101    1.079   .     S
C66    C89     1.408   .     A
C67    H97     1.084   .     S
C67    C600    1.392   .     S
C68    C74     1.459   .     S
C68    O110    1.285   .     A
C68    O112    1.284   .     A
C69    C71     1.399   .     A
C69    C70     1.421   .     A
C69    C598    1.392   1_554 S
C70    C90     1.427   .     A
C70    C73     1.421   .     A
C71    H94     1.084   .     S
C71    C72     1.388   .     A
C72    H96     1.084   .     S
C72    C84     1.397   .     A
C73    C84     1.406   .     A
C74    Br119   1.928   .     S
C74    C134    1.340   .     S
C76    H99     1.083   .     S
C76    C85     1.391   .     A
C76    C83     1.402   .     A
C77    C80     1.455   .     S
C77    Br238   1.933   .     S
C77    C255    1.349   .     S
C78    C79     1.429   .     S
C78    C431    1.349   1_545 S
C78    Br416   1.932   1_545 S
C79    O107    1.280   .     A
C79    O113    1.274   .     A
C80    O108    1.264   .     A
C80    O114    1.274   .     A
C81    O105    1.272   .     A
C81    O103    1.275   .     A
C81    C84     1.456   .     S
C82    O104    1.284   .     A
C82    C83     1.468   .     S
C82    O106    1.286   .     A
C83    C86     1.406   .     A
C85    H98     1.084   .     S
C85    C88     1.400   .     A
C86    C87     1.416   .     A
C87    C89     1.424   .     A
C87    C88     1.417   .     A
C88    C623    1.393   .     S
C89    C621    1.425   .     S
C90    C91     1.410   .     A
C90    C620    1.425   1_554 S
C91    H100    1.077   .     S
C91    C92     1.388   .     A
C92    H93     1.084   .     S
C92    C619    1.393   1_554 S
H95    C134    1.086   .     S
O102   Zn118   1.932   .     S
O102   Zn116   1.944   .     S
O102   Zn115   1.972   .     S
O102   Zn117   1.932   .     S
O103   Zn116   1.931   .     S
O104   Zn118   1.946   .     S
O105   Zn117   1.937   .     S
O106   Zn115   1.925   .     S
O107   Zn115   1.934   .     S
O108   Zn118   1.939   .     S
O109   Zn116   1.924   .     S
O110   Zn117   1.939   .     S
O111   Zn118   1.930   .     S
O112   Zn115   1.918   .     S
O113   Zn116   1.949   .     S
O114   Zn117   1.939   .     S
Br120  C490    1.933   1_545 S
Br121  C314    1.932   .     S
Br122  C132    1.940   .     S
Br123  C145    1.943   .     S
C124   C134    1.438   .     S
C124   O168    1.270   .     A
C124   O170    1.271   .     A
C125   C126    1.385   .     A
C125   H160    1.079   .     S
C125   C148    1.408   .     A
C126   H156    1.084   .     S
C126   C659    1.392   .     S
C127   C133    1.459   .     S
C127   O169    1.285   .     A
C127   O171    1.284   .     A
C128   C130    1.399   .     A
C128   C129    1.421   .     A
C128   C657    1.392   1_554 S
C129   C149    1.427   .     A
C129   C132    1.421   .     A
C130   H153    1.084   .     S
C130   C131    1.388   .     A
C131   H155    1.084   .     S
C131   C143    1.397   .     A
C132   C143    1.406   .     A
C133   Br1     1.928   1_655 S
C133   C16     1.340   1_655 S
C135   H158    1.083   .     S
C135   C144    1.391   .     A
C135   C142    1.402   .     A
C136   C139    1.455   .     S
C136   Br297   1.933   .     S
C136   C314    1.349   .     S
C137   C138    1.429   .     S
C137   C490    1.349   1_545 S
C137   Br475   1.932   1_545 S
C138   O166    1.280   .     A
C138   O172    1.274   .     A
C139   O167    1.264   .     A
C139   O173    1.274   .     A
C140   O164    1.272   .     A
C140   O162    1.275   .     A
C140   C143    1.456   .     S
C141   O163    1.284   .     A
C141   C142    1.468   .     S
C141   O165    1.286   .     A
C142   C145    1.406   .     A
C144   H157    1.084   .     S
C144   C147    1.400   .     A
C145   C146    1.416   .     A
C146   C148    1.424   .     A
C146   C147    1.417   .     A
C147   C682    1.393   .     S
C148   C680    1.425   .     S
C149   C150    1.410   .     A
C149   C679    1.425   1_554 S
C150   H159    1.077   .     S
C150   C151    1.388   .     A
C151   H152    1.084   .     S
C151   C678    1.393   1_554 S
H154   C16     1.086   1_655 S
O161   Zn177   1.932   .     S
O161   Zn175   1.944   .     S
O161   Zn174   1.972   .     S
O161   Zn176   1.932   .     S
O162   Zn175   1.931   .     S
O163   Zn177   1.946   .     S
O164   Zn176   1.937   .     S
O165   Zn174   1.925   .     S
O166   Zn174   1.934   .     S
O167   Zn177   1.939   .     S
O168   Zn175   1.924   .     S
O169   Zn176   1.939   .     S
O170   Zn177   1.930   .     S
O171   Zn174   1.918   .     S
O172   Zn175   1.949   .     S
O173   Zn176   1.939   .     S
Br178  C310    1.928   1_455 S
Br180  C373    1.932   .     S
Br181  C191    1.940   .     S
Br182  C204    1.943   .     S
C183   C193    1.438   .     S
C183   O227    1.270   .     A
C183   O229    1.271   .     A
C184   C185    1.385   .     A
C184   H219    1.079   .     S
C184   C207    1.408   .     A
C185   H215    1.084   .     S
C185   C718    1.392   .     S
C186   C192    1.459   .     S
C186   O228    1.285   .     A
C186   O230    1.284   .     A
C187   C189    1.399   .     A
C187   C188    1.421   .     A
C187   C716    1.392   1_554 S
C188   C208    1.427   .     A
C188   C191    1.421   .     A
C189   H212    1.084   .     S
C189   C190    1.388   .     A
C190   H214    1.084   .     S
C190   C202    1.397   .     A
C191   C202    1.406   .     A
C192   Br237   1.928   .     S
C192   C252    1.340   .     S
C193   C310    1.340   1_455 S
C193   H331    1.086   1_455 S
C194   H217    1.083   .     S
C194   C203    1.391   .     A
C194   C201    1.402   .     A
C195   C198    1.455   .     S
C195   Br356   1.933   .     S
C195   C373    1.349   .     S
C196   C197    1.429   .     S
C197   O225    1.280   .     A
C197   O231    1.274   .     A
C198   O226    1.264   .     A
C198   O232    1.274   .     A
C199   O223    1.272   .     A
C199   O221    1.275   .     A
C199   C202    1.456   .     S
C200   O222    1.284   .     A
C200   C201    1.468   .     S
C200   O224    1.286   .     A
C201   C204    1.406   .     A
C203   H216    1.084   .     S
C203   C206    1.400   .     A
C204   C205    1.416   .     A
C205   C207    1.424   .     A
C205   C206    1.417   .     A
C206   C741    1.393   .     S
C207   C739    1.425   .     S
C208   C209    1.410   .     A
C208   C738    1.425   1_554 S
C209   H218    1.077   .     S
C209   C210    1.388   .     A
C210   H211    1.084   .     S
C210   C737    1.393   1_554 S
H213   C252    1.086   .     S
O220   Zn236   1.932   .     S
O220   Zn234   1.944   .     S
O220   Zn233   1.972   .     S
O220   Zn235   1.932   .     S
O221   Zn234   1.931   .     S
O222   Zn236   1.946   .     S
O223   Zn235   1.937   .     S
O224   Zn233   1.925   .     S
O225   Zn233   1.934   .     S
O226   Zn236   1.939   .     S
O227   Zn234   1.924   .     S
O228   Zn235   1.939   .     S
O229   Zn236   1.930   .     S
O230   Zn233   1.918   .     S
O231   Zn234   1.949   .     S
O232   Zn235   1.939   .     S
Br239  C432    1.932   .     S
Br240  C250    1.940   .     S
Br241  C263    1.943   .     S
C242   C252    1.438   .     S
C242   O286    1.270   .     A
C242   O288    1.271   .     A
C243   C244    1.385   .     A
C243   H278    1.079   .     S
C243   C266    1.408   .     A
C244   H274    1.084   .     S
C244   C777    1.392   .     S
C245   C251    1.459   .     S
C245   O287    1.285   .     A
C245   O289    1.284   .     A
C246   C248    1.399   .     A
C246   C247    1.421   .     A
C246   C775    1.392   1_554 S
C247   C267    1.427   .     A
C247   C250    1.421   .     A
C248   H271    1.084   .     S
C248   C249    1.388   .     A
C249   H273    1.084   .     S
C249   C261    1.397   .     A
C250   C261    1.406   .     A
C251   Br296   1.928   .     S
C251   C311    1.340   .     S
C253   H276    1.083   .     S
C253   C262    1.391   .     A
C253   C260    1.402   .     A
C254   C257    1.455   .     S
C254   Br415   1.933   .     S
C254   C432    1.349   .     S
C255   C256    1.429   .     S
C256   O284    1.280   .     A
C256   O290    1.274   .     A
C257   O285    1.264   .     A
C257   O291    1.274   .     A
C258   O282    1.272   .     A
C258   O280    1.275   .     A
C258   C261    1.456   .     S
C259   O281    1.284   .     A
C259   C260    1.468   .     S
C259   O283    1.286   .     A
C260   C263    1.406   .     A
C262   H275    1.084   .     S
C262   C265    1.400   .     A
C263   C264    1.416   .     A
C264   C266    1.424   .     A
C264   C265    1.417   .     A
C265   C800    1.393   .     S
C266   C798    1.425   .     S
C267   C268    1.410   .     A
C267   C797    1.425   1_554 S
C268   H277    1.077   .     S
C268   C269    1.388   .     A
C269   H270    1.084   .     S
C269   C796    1.393   1_554 S
H272   C311    1.086   .     S
O279   Zn295   1.932   .     S
O279   Zn293   1.944   .     S
O279   Zn292   1.972   .     S
O279   Zn294   1.932   .     S
O280   Zn293   1.931   .     S
O281   Zn295   1.946   .     S
O282   Zn294   1.937   .     S
O283   Zn292   1.925   .     S
O284   Zn292   1.934   .     S
O285   Zn295   1.939   .     S
O286   Zn293   1.924   .     S
O287   Zn294   1.939   .     S
O288   Zn295   1.930   .     S
O289   Zn292   1.918   .     S
O290   Zn293   1.949   .     S
O291   Zn294   1.939   .     S
Br298  C491    1.932   .     S
Br299  C309    1.940   .     S
Br300  C322    1.943   .     S
C301   C311    1.438   .     S
C301   O345    1.270   .     A
C301   O347    1.271   .     A
C302   C303    1.385   .     A
C302   H337    1.079   .     S
C302   C325    1.408   .     A
C303   H333    1.084   .     S
C303   C836    1.392   .     S
C304   C310    1.459   .     S
C304   O346    1.285   .     A
C304   O348    1.284   .     A
C305   C307    1.399   .     A
C305   C306    1.421   .     A
C305   C834    1.392   1_554 S
C306   C326    1.427   .     A
C306   C309    1.421   .     A
C307   H330    1.084   .     S
C307   C308    1.388   .     A
C308   H332    1.084   .     S
C308   C320    1.397   .     A
C309   C320    1.406   .     A
C310   Br178   1.928   1_655 S
C310   C193    1.340   1_655 S
C312   H335    1.083   .     S
C312   C321    1.391   .     A
C312   C319    1.402   .     A
C313   C316    1.455   .     S
C313   Br474   1.933   .     S
C313   C491    1.349   .     S
C314   C315    1.429   .     S
C315   O343    1.280   .     A
C315   O349    1.274   .     A
C316   O344    1.264   .     A
C316   O350    1.274   .     A
C317   O341    1.272   .     A
C317   O339    1.275   .     A
C317   C320    1.456   .     S
C318   O340    1.284   .     A
C318   C319    1.468   .     S
C318   O342    1.286   .     A
C319   C322    1.406   .     A
C321   H334    1.084   .     S
C321   C324    1.400   .     A
C322   C323    1.416   .     A
C323   C325    1.424   .     A
C323   C324    1.417   .     A
C324   C859    1.393   .     S
C325   C857    1.425   .     S
C326   C327    1.410   .     A
C326   C856    1.425   1_554 S
C327   H336    1.077   .     S
C327   C328    1.388   .     A
C328   H329    1.084   .     S
C328   C855    1.393   1_554 S
H331   C193    1.086   1_655 S
O338   Zn354   1.932   .     S
O338   Zn352   1.944   .     S
O338   Zn351   1.972   .     S
O338   Zn353   1.932   .     S
O339   Zn352   1.931   .     S
O340   Zn354   1.946   .     S
O341   Zn353   1.937   .     S
O342   Zn351   1.925   .     S
O343   Zn351   1.934   .     S
O344   Zn354   1.939   .     S
O345   Zn352   1.924   .     S
O346   Zn353   1.939   .     S
O347   Zn354   1.930   .     S
O348   Zn351   1.918   .     S
O349   Zn352   1.949   .     S
O350   Zn353   1.939   .     S
Br355  C487    1.928   1_455 S
Br357  C19     1.932   1_565 S
Br358  C368    1.940   .     S
Br359  C381    1.943   .     S
C360   C370    1.438   .     S
C360   O404    1.270   .     A
C360   O406    1.271   .     A
C361   C362    1.385   .     A
C361   H396    1.079   .     S
C361   C384    1.408   .     A
C362   H392    1.084   .     S
C362   C895    1.392   .     S
C363   C369    1.459   .     S
C363   O405    1.285   .     A
C363   O407    1.284   .     A
C364   C366    1.399   .     A
C364   C365    1.421   .     A
C364   C893    1.392   1_554 S
C365   C385    1.427   .     A
C365   C368    1.421   .     A
C366   H389    1.084   .     S
C366   C367    1.388   .     A
C367   H391    1.084   .     S
C367   C379    1.397   .     A
C368   C379    1.406   .     A
C369   Br414   1.928   .     S
C369   C429    1.340   .     S
C370   C487    1.340   1_455 S
C370   H508    1.086   1_455 S
C371   H394    1.083   .     S
C371   C380    1.391   .     A
C371   C378    1.402   .     A
C372   C375    1.455   .     S
C372   Br2     1.933   1_565 S
C372   C19     1.349   1_565 S
C373   C374    1.429   .     S
C374   O402    1.280   .     A
C374   O408    1.274   .     A
C375   O403    1.264   .     A
C375   O409    1.274   .     A
C376   O400    1.272   .     A
C376   O398    1.275   .     A
C376   C379    1.456   .     S
C377   O399    1.284   .     A
C377   C378    1.468   .     S
C377   O401    1.286   .     A
C378   C381    1.406   .     A
C380   H393    1.084   .     S
C380   C383    1.400   .     A
C381   C382    1.416   .     A
C382   C384    1.424   .     A
C382   C383    1.417   .     A
C383   C918    1.393   .     S
C384   C916    1.425   .     S
C385   C386    1.410   .     A
C385   C915    1.425   1_554 S
C386   H395    1.077   .     S
C386   C387    1.388   .     A
C387   H388    1.084   .     S
C387   C914    1.393   1_554 S
H390   C429    1.086   .     S
O397   Zn413   1.932   .     S
O397   Zn411   1.944   .     S
O397   Zn410   1.972   .     S
O397   Zn412   1.932   .     S
O398   Zn411   1.931   .     S
O399   Zn413   1.946   .     S
O400   Zn412   1.937   .     S
O401   Zn410   1.925   .     S
O402   Zn410   1.934   .     S
O403   Zn413   1.939   .     S
O404   Zn411   1.924   .     S
O405   Zn412   1.939   .     S
O406   Zn413   1.930   .     S
O407   Zn410   1.918   .     S
O408   Zn411   1.949   .     S
O409   Zn412   1.939   .     S
Br416  C78     1.932   1_565 S
Br417  C427    1.940   .     S
Br418  C440    1.943   .     S
C419   C429    1.438   .     S
C419   O463    1.270   .     A
C419   O465    1.271   .     A
C420   C421    1.385   .     A
C420   H455    1.079   .     S
C420   C443    1.408   .     A
C421   H451    1.084   .     S
C421   C954    1.392   .     S
C422   C428    1.459   .     S
C422   O464    1.285   .     A
C422   O466    1.284   .     A
C423   C425    1.399   .     A
C423   C424    1.421   .     A
C423   C952    1.392   1_554 S
C424   C444    1.427   .     A
C424   C427    1.421   .     A
C425   H448    1.084   .     S
C425   C426    1.388   .     A
C426   H450    1.084   .     S
C426   C438    1.397   .     A
C427   C438    1.406   .     A
C428   Br473   1.928   .     S
C428   C488    1.340   .     S
C430   H453    1.083   .     S
C430   C439    1.391   .     A
C430   C437    1.402   .     A
C431   C434    1.455   .     S
C431   Br61    1.933   1_565 S
C431   C78     1.349   1_565 S
C432   C433    1.429   .     S
C433   O461    1.280   .     A
C433   O467    1.274   .     A
C434   O462    1.264   .     A
C434   O468    1.274   .     A
C435   O459    1.272   .     A
C435   O457    1.275   .     A
C435   C438    1.456   .     S
C436   O458    1.284   .     A
C436   C437    1.468   .     S
C436   O460    1.286   .     A
C437   C440    1.406   .     A
C439   H452    1.084   .     S
C439   C442    1.400   .     A
C440   C441    1.416   .     A
C441   C443    1.424   .     A
C441   C442    1.417   .     A
C442   C977    1.393   .     S
C443   C975    1.425   .     S
C444   C445    1.410   .     A
C444   C974    1.425   1_554 S
C445   H454    1.077   .     S
C445   C446    1.388   .     A
C446   H447    1.084   .     S
C446   C973    1.393   1_554 S
H449   C488    1.086   .     S
O456   Zn472   1.932   .     S
O456   Zn470   1.944   .     S
O456   Zn469   1.972   .     S
O456   Zn471   1.932   .     S
O457   Zn470   1.931   .     S
O458   Zn472   1.946   .     S
O459   Zn471   1.937   .     S
O460   Zn469   1.925   .     S
O461   Zn469   1.934   .     S
O462   Zn472   1.939   .     S
O463   Zn470   1.924   .     S
O464   Zn471   1.939   .     S
O465   Zn472   1.930   .     S
O466   Zn469   1.918   .     S
O467   Zn470   1.949   .     S
O468   Zn471   1.939   .     S
Br475  C137    1.932   1_565 S
Br476  C486    1.940   .     S
Br477  C499    1.943   .     S
C478   C488    1.438   .     S
C478   O522    1.270   .     A
C478   O524    1.271   .     A
C479   C480    1.385   .     A
C479   H514    1.079   .     S
C479   C502    1.408   .     A
C480   H510    1.084   .     S
C480   C1013   1.392   .     S
C481   C487    1.459   .     S
C481   O523    1.285   .     A
C481   O525    1.284   .     A
C482   C484    1.399   .     A
C482   C483    1.421   .     A
C482   C1011   1.392   1_554 S
C483   C503    1.427   .     A
C483   C486    1.421   .     A
C484   H507    1.084   .     S
C484   C485    1.388   .     A
C485   H509    1.084   .     S
C485   C497    1.397   .     A
C486   C497    1.406   .     A
C487   Br355   1.928   1_655 S
C487   C370    1.340   1_655 S
C489   H512    1.083   .     S
C489   C498    1.391   .     A
C489   C496    1.402   .     A
C490   C493    1.455   .     S
C490   Br120   1.933   1_565 S
C490   C137    1.349   1_565 S
C491   C492    1.429   .     S
C492   O520    1.280   .     A
C492   O526    1.274   .     A
C493   O521    1.264   .     A
C493   O527    1.274   .     A
C494   O518    1.272   .     A
C494   O516    1.275   .     A
C494   C497    1.456   .     S
C495   O517    1.284   .     A
C495   C496    1.468   .     S
C495   O519    1.286   .     A
C496   C499    1.406   .     A
C498   H511    1.084   .     S
C498   C501    1.400   .     A
C499   C500    1.416   .     A
C500   C502    1.424   .     A
C500   C501    1.417   .     A
C501   C1036   1.393   .     S
C502   C1034   1.425   .     S
C503   C504    1.410   .     A
C503   C1033   1.425   1_554 S
C504   H513    1.077   .     S
C504   C505    1.388   .     A
C505   H506    1.084   .     S
C505   C1032   1.393   1_554 S
H508   C370    1.086   1_655 S
O515   Zn531   1.932   .     S
O515   Zn529   1.944   .     S
O515   Zn528   1.972   .     S
O515   Zn530   1.932   .     S
O516   Zn529   1.931   .     S
O517   Zn531   1.946   .     S
O518   Zn530   1.937   .     S
O519   Zn528   1.925   .     S
O520   Zn528   1.934   .     S
O521   Zn531   1.939   .     S
O522   Zn529   1.924   .     S
O523   Zn530   1.939   .     S
O524   Zn531   1.930   .     S
O525   Zn528   1.918   .     S
O526   Zn529   1.949   .     S
O527   Zn530   1.939   .     S
Br532  C664    1.928   1_455 S
Br533  C903    1.933   1_545 S
Br534  C727    1.932   .     S
Br535  C545    1.940   .     S
Br536  C558    1.943   .     S
C537   C547    1.438   .     S
C537   O581    1.270   .     A
C537   O583    1.271   .     A
C538   C539    1.385   .     A
C538   H573    1.079   .     S
C538   C561    1.408   .     A
C539   H569    1.084   .     S
C539   C10     1.392   1_556 S
C540   C546    1.459   .     S
C540   O582    1.285   .     A
C540   O584    1.284   .     A
C541   C543    1.399   .     A
C541   C542    1.421   .     A
C542   C562    1.427   .     A
C542   C545    1.421   .     A
C543   H566    1.084   .     S
C543   C544    1.388   .     A
C544   H568    1.084   .     S
C544   C556    1.397   .     A
C545   C556    1.406   .     A
C546   Br591   1.928   .     S
C546   C606    1.340   .     S
C547   C664    1.340   1_455 S
C547   H685    1.086   1_455 S
C548   H571    1.083   .     S
C548   C557    1.391   .     A
C548   C555    1.402   .     A
C549   C552    1.455   .     S
C549   Br710   1.933   .     S
C549   C727    1.349   .     S
C550   C551    1.429   .     S
C550   C903    1.349   1_545 S
C550   Br888   1.932   1_545 S
C551   O579    1.280   .     A
C551   O585    1.274   .     A
C552   O580    1.264   .     A
C552   O586    1.274   .     A
C553   O577    1.272   .     A
C553   O575    1.275   .     A
C553   C556    1.456   .     S
C554   O576    1.284   .     A
C554   C555    1.468   .     S
C554   O578    1.286   .     A
C555   C558    1.406   .     A
C557   H570    1.084   .     S
C557   C560    1.400   .     A
C558   C559    1.416   .     A
C559   C561    1.424   .     A
C559   C560    1.417   .     A
C560   C33     1.393   1_556 S
C561   C31     1.425   1_556 S
C562   C563    1.410   .     A
C563   H572    1.077   .     S
C563   C564    1.388   .     A
C564   H565    1.084   .     S
H567   C606    1.086   .     S
O574   Zn590   1.932   .     S
O574   Zn588   1.944   .     S
O574   Zn587   1.972   .     S
O574   Zn589   1.932   .     S
O575   Zn588   1.931   .     S
O576   Zn590   1.946   .     S
O577   Zn589   1.937   .     S
O578   Zn587   1.925   .     S
O579   Zn587   1.934   .     S
O580   Zn590   1.939   .     S
O581   Zn588   1.924   .     S
O582   Zn589   1.939   .     S
O583   Zn590   1.930   .     S
O584   Zn587   1.918   .     S
O585   Zn588   1.949   .     S
O586   Zn589   1.939   .     S
Br592  C962    1.933   1_545 S
Br593  C786    1.932   .     S
Br594  C604    1.940   .     S
Br595  C617    1.943   .     S
C596   C606    1.438   .     S
C596   O640    1.270   .     A
C596   O642    1.271   .     A
C597   C598    1.385   .     A
C597   H632    1.079   .     S
C597   C620    1.408   .     A
C598   H628    1.084   .     S
C598   C69     1.392   1_556 S
C599   C605    1.459   .     S
C599   O641    1.285   .     A
C599   O643    1.284   .     A
C600   C602    1.399   .     A
C600   C601    1.421   .     A
C601   C621    1.427   .     A
C601   C604    1.421   .     A
C602   H625    1.084   .     S
C602   C603    1.388   .     A
C603   H627    1.084   .     S
C603   C615    1.397   .     A
C604   C615    1.406   .     A
C605   Br650   1.928   .     S
C605   C665    1.340   .     S
C607   H630    1.083   .     S
C607   C616    1.391   .     A
C607   C614    1.402   .     A
C608   C611    1.455   .     S
C608   Br769   1.933   .     S
C608   C786    1.349   .     S
C609   C610    1.429   .     S
C609   C962    1.349   1_545 S
C609   Br947   1.932   1_545 S
C610   O638    1.280   .     A
C610   O644    1.274   .     A
C611   O639    1.264   .     A
C611   O645    1.274   .     A
C612   O636    1.272   .     A
C612   O634    1.275   .     A
C612   C615    1.456   .     S
C613   O635    1.284   .     A
C613   C614    1.468   .     S
C613   O637    1.286   .     A
C614   C617    1.406   .     A
C616   H629    1.084   .     S
C616   C619    1.400   .     A
C617   C618    1.416   .     A
C618   C620    1.424   .     A
C618   C619    1.417   .     A
C619   C92     1.393   1_556 S
C620   C90     1.425   1_556 S
C621   C622    1.410   .     A
C622   H631    1.077   .     S
C622   C623    1.388   .     A
C623   H624    1.084   .     S
H626   C665    1.086   .     S
O633   Zn649   1.932   .     S
O633   Zn647   1.944   .     S
O633   Zn646   1.972   .     S
O633   Zn648   1.932   .     S
O634   Zn647   1.931   .     S
O635   Zn649   1.946   .     S
O636   Zn648   1.937   .     S
O637   Zn646   1.925   .     S
O638   Zn646   1.934   .     S
O639   Zn649   1.939   .     S
O640   Zn647   1.924   .     S
O641   Zn648   1.939   .     S
O642   Zn649   1.930   .     S
O643   Zn646   1.918   .     S
O644   Zn647   1.949   .     S
O645   Zn648   1.939   .     S
Br651  C1021   1.933   1_545 S
Br652  C845    1.932   .     S
Br653  C663    1.940   .     S
Br654  C676    1.943   .     S
C655   C665    1.438   .     S
C655   O699    1.270   .     A
C655   O701    1.271   .     A
C656   C657    1.385   .     A
C656   H691    1.079   .     S
C656   C679    1.408   .     A
C657   H687    1.084   .     S
C657   C128    1.392   1_556 S
C658   C664    1.459   .     S
C658   O700    1.285   .     A
C658   O702    1.284   .     A
C659   C661    1.399   .     A
C659   C660    1.421   .     A
C660   C680    1.427   .     A
C660   C663    1.421   .     A
C661   H684    1.084   .     S
C661   C662    1.388   .     A
C662   H686    1.084   .     S
C662   C674    1.397   .     A
C663   C674    1.406   .     A
C664   Br532   1.928   1_655 S
C664   C547    1.340   1_655 S
C666   H689    1.083   .     S
C666   C675    1.391   .     A
C666   C673    1.402   .     A
C667   C670    1.455   .     S
C667   Br828   1.933   .     S
C667   C845    1.349   .     S
C668   C669    1.429   .     S
C668   C1021   1.349   1_545 S
C668   Br1006  1.932   1_545 S
C669   O697    1.280   .     A
C669   O703    1.274   .     A
C670   O698    1.264   .     A
C670   O704    1.274   .     A
C671   O695    1.272   .     A
C671   O693    1.275   .     A
C671   C674    1.456   .     S
C672   O694    1.284   .     A
C672   C673    1.468   .     S
C672   O696    1.286   .     A
C673   C676    1.406   .     A
C675   H688    1.084   .     S
C675   C678    1.400   .     A
C676   C677    1.416   .     A
C677   C679    1.424   .     A
C677   C678    1.417   .     A
C678   C151    1.393   1_556 S
C679   C149    1.425   1_556 S
C680   C681    1.410   .     A
C681   H690    1.077   .     S
C681   C682    1.388   .     A
C682   H683    1.084   .     S
H685   C547    1.086   1_655 S
O692   Zn708   1.932   .     S
O692   Zn706   1.944   .     S
O692   Zn705   1.972   .     S
O692   Zn707   1.932   .     S
O693   Zn706   1.931   .     S
O694   Zn708   1.946   .     S
O695   Zn707   1.937   .     S
O696   Zn705   1.925   .     S
O697   Zn705   1.934   .     S
O698   Zn708   1.939   .     S
O699   Zn706   1.924   .     S
O700   Zn707   1.939   .     S
O701   Zn708   1.930   .     S
O702   Zn705   1.918   .     S
O703   Zn706   1.949   .     S
O704   Zn707   1.939   .     S
Br709  C841    1.928   1_455 S
Br711  C904    1.932   .     S
Br712  C722    1.940   .     S
Br713  C735    1.943   .     S
C714   C724    1.438   .     S
C714   O758    1.270   .     A
C714   O760    1.271   .     A
C715   C716    1.385   .     A
C715   H750    1.079   .     S
C715   C738    1.408   .     A
C716   H746    1.084   .     S
C716   C187    1.392   1_556 S
C717   C723    1.459   .     S
C717   O759    1.285   .     A
C717   O761    1.284   .     A
C718   C720    1.399   .     A
C718   C719    1.421   .     A
C719   C739    1.427   .     A
C719   C722    1.421   .     A
C720   H743    1.084   .     S
C720   C721    1.388   .     A
C721   H745    1.084   .     S
C721   C733    1.397   .     A
C722   C733    1.406   .     A
C723   Br768   1.928   .     S
C723   C783    1.340   .     S
C724   C841    1.340   1_455 S
C724   H862    1.086   1_455 S
C725   H748    1.083   .     S
C725   C734    1.391   .     A
C725   C732    1.402   .     A
C726   C729    1.455   .     S
C726   Br887   1.933   .     S
C726   C904    1.349   .     S
C727   C728    1.429   .     S
C728   O756    1.280   .     A
C728   O762    1.274   .     A
C729   O757    1.264   .     A
C729   O763    1.274   .     A
C730   O754    1.272   .     A
C730   O752    1.275   .     A
C730   C733    1.456   .     S
C731   O753    1.284   .     A
C731   C732    1.468   .     S
C731   O755    1.286   .     A
C732   C735    1.406   .     A
C734   H747    1.084   .     S
C734   C737    1.400   .     A
C735   C736    1.416   .     A
C736   C738    1.424   .     A
C736   C737    1.417   .     A
C737   C210    1.393   1_556 S
C738   C208    1.425   1_556 S
C739   C740    1.410   .     A
C740   H749    1.077   .     S
C740   C741    1.388   .     A
C741   H742    1.084   .     S
H744   C783    1.086   .     S
O751   Zn767   1.932   .     S
O751   Zn765   1.944   .     S
O751   Zn764   1.972   .     S
O751   Zn766   1.932   .     S
O752   Zn765   1.931   .     S
O753   Zn767   1.946   .     S
O754   Zn766   1.937   .     S
O755   Zn764   1.925   .     S
O756   Zn764   1.934   .     S
O757   Zn767   1.939   .     S
O758   Zn765   1.924   .     S
O759   Zn766   1.939   .     S
O760   Zn767   1.930   .     S
O761   Zn764   1.918   .     S
O762   Zn765   1.949   .     S
O763   Zn766   1.939   .     S
Br770  C963    1.932   .     S
Br771  C781    1.940   .     S
Br772  C794    1.943   .     S
C773   C783    1.438   .     S
C773   O817    1.270   .     A
C773   O819    1.271   .     A
C774   C775    1.385   .     A
C774   H809    1.079   .     S
C774   C797    1.408   .     A
C775   H805    1.084   .     S
C775   C246    1.392   1_556 S
C776   C782    1.459   .     S
C776   O818    1.285   .     A
C776   O820    1.284   .     A
C777   C779    1.399   .     A
C777   C778    1.421   .     A
C778   C798    1.427   .     A
C778   C781    1.421   .     A
C779   H802    1.084   .     S
C779   C780    1.388   .     A
C780   H804    1.084   .     S
C780   C792    1.397   .     A
C781   C792    1.406   .     A
C782   Br827   1.928   .     S
C782   C842    1.340   .     S
C784   H807    1.083   .     S
C784   C793    1.391   .     A
C784   C791    1.402   .     A
C785   C788    1.455   .     S
C785   Br946   1.933   .     S
C785   C963    1.349   .     S
C786   C787    1.429   .     S
C787   O815    1.280   .     A
C787   O821    1.274   .     A
C788   O816    1.264   .     A
C788   O822    1.274   .     A
C789   O813    1.272   .     A
C789   O811    1.275   .     A
C789   C792    1.456   .     S
C790   O812    1.284   .     A
C790   C791    1.468   .     S
C790   O814    1.286   .     A
C791   C794    1.406   .     A
C793   H806    1.084   .     S
C793   C796    1.400   .     A
C794   C795    1.416   .     A
C795   C797    1.424   .     A
C795   C796    1.417   .     A
C796   C269    1.393   1_556 S
C797   C267    1.425   1_556 S
C798   C799    1.410   .     A
C799   H808    1.077   .     S
C799   C800    1.388   .     A
C800   H801    1.084   .     S
H803   C842    1.086   .     S
O810   Zn826   1.932   .     S
O810   Zn824   1.944   .     S
O810   Zn823   1.972   .     S
O810   Zn825   1.932   .     S
O811   Zn824   1.931   .     S
O812   Zn826   1.946   .     S
O813   Zn825   1.937   .     S
O814   Zn823   1.925   .     S
O815   Zn823   1.934   .     S
O816   Zn826   1.939   .     S
O817   Zn824   1.924   .     S
O818   Zn825   1.939   .     S
O819   Zn826   1.930   .     S
O820   Zn823   1.918   .     S
O821   Zn824   1.949   .     S
O822   Zn825   1.939   .     S
Br829  C1022   1.932   .     S
Br830  C840    1.940   .     S
Br831  C853    1.943   .     S
C832   C842    1.438   .     S
C832   O876    1.270   .     A
C832   O878    1.271   .     A
C833   C834    1.385   .     A
C833   H868    1.079   .     S
C833   C856    1.408   .     A
C834   H864    1.084   .     S
C834   C305    1.392   1_556 S
C835   C841    1.459   .     S
C835   O877    1.285   .     A
C835   O879    1.284   .     A
C836   C838    1.399   .     A
C836   C837    1.421   .     A
C837   C857    1.427   .     A
C837   C840    1.421   .     A
C838   H861    1.084   .     S
C838   C839    1.388   .     A
C839   H863    1.084   .     S
C839   C851    1.397   .     A
C840   C851    1.406   .     A
C841   Br709   1.928   1_655 S
C841   C724    1.340   1_655 S
C843   H866    1.083   .     S
C843   C852    1.391   .     A
C843   C850    1.402   .     A
C844   C847    1.455   .     S
C844   Br1005  1.933   .     S
C844   C1022   1.349   .     S
C845   C846    1.429   .     S
C846   O874    1.280   .     A
C846   O880    1.274   .     A
C847   O875    1.264   .     A
C847   O881    1.274   .     A
C848   O872    1.272   .     A
C848   O870    1.275   .     A
C848   C851    1.456   .     S
C849   O871    1.284   .     A
C849   C850    1.468   .     S
C849   O873    1.286   .     A
C850   C853    1.406   .     A
C852   H865    1.084   .     S
C852   C855    1.400   .     A
C853   C854    1.416   .     A
C854   C856    1.424   .     A
C854   C855    1.417   .     A
C855   C328    1.393   1_556 S
C856   C326    1.425   1_556 S
C857   C858    1.410   .     A
C858   H867    1.077   .     S
C858   C859    1.388   .     A
C859   H860    1.084   .     S
H862   C724    1.086   1_655 S
O869   Zn885   1.932   .     S
O869   Zn883   1.944   .     S
O869   Zn882   1.972   .     S
O869   Zn884   1.932   .     S
O870   Zn883   1.931   .     S
O871   Zn885   1.946   .     S
O872   Zn884   1.937   .     S
O873   Zn882   1.925   .     S
O874   Zn882   1.934   .     S
O875   Zn885   1.939   .     S
O876   Zn883   1.924   .     S
O877   Zn884   1.939   .     S
O878   Zn885   1.930   .     S
O879   Zn882   1.918   .     S
O880   Zn883   1.949   .     S
O881   Zn884   1.939   .     S
Br886  C1018   1.928   1_455 S
Br888  C550    1.932   1_565 S
Br889  C899    1.940   .     S
Br890  C912    1.943   .     S
C891   C901    1.438   .     S
C891   O935    1.270   .     A
C891   O937    1.271   .     A
C892   C893    1.385   .     A
C892   H927    1.079   .     S
C892   C915    1.408   .     A
C893   H923    1.084   .     S
C893   C364    1.392   1_556 S
C894   C900    1.459   .     S
C894   O936    1.285   .     A
C894   O938    1.284   .     A
C895   C897    1.399   .     A
C895   C896    1.421   .     A
C896   C916    1.427   .     A
C896   C899    1.421   .     A
C897   H920    1.084   .     S
C897   C898    1.388   .     A
C898   H922    1.084   .     S
C898   C910    1.397   .     A
C899   C910    1.406   .     A
C900   Br945   1.928   .     S
C900   C960    1.340   .     S
C901   C1018   1.340   1_455 S
C901   H1039   1.086   1_455 S
C902   H925    1.083   .     S
C902   C911    1.391   .     A
C902   C909    1.402   .     A
C903   C906    1.455   .     S
C903   Br533   1.933   1_565 S
C903   C550    1.349   1_565 S
C904   C905    1.429   .     S
C905   O933    1.280   .     A
C905   O939    1.274   .     A
C906   O934    1.264   .     A
C906   O940    1.274   .     A
C907   O931    1.272   .     A
C907   O929    1.275   .     A
C907   C910    1.456   .     S
C908   O930    1.284   .     A
C908   C909    1.468   .     S
C908   O932    1.286   .     A
C909   C912    1.406   .     A
C911   H924    1.084   .     S
C911   C914    1.400   .     A
C912   C913    1.416   .     A
C913   C915    1.424   .     A
C913   C914    1.417   .     A
C914   C387    1.393   1_556 S
C915   C385    1.425   1_556 S
C916   C917    1.410   .     A
C917   H926    1.077   .     S
C917   C918    1.388   .     A
C918   H919    1.084   .     S
H921   C960    1.086   .     S
O928   Zn944   1.932   .     S
O928   Zn942   1.944   .     S
O928   Zn941   1.972   .     S
O928   Zn943   1.932   .     S
O929   Zn942   1.931   .     S
O930   Zn944   1.946   .     S
O931   Zn943   1.937   .     S
O932   Zn941   1.925   .     S
O933   Zn941   1.934   .     S
O934   Zn944   1.939   .     S
O935   Zn942   1.924   .     S
O936   Zn943   1.939   .     S
O937   Zn944   1.930   .     S
O938   Zn941   1.918   .     S
O939   Zn942   1.949   .     S
O940   Zn943   1.939   .     S
Br947  C609    1.932   1_565 S
Br948  C958    1.940   .     S
Br949  C971    1.943   .     S
C950   C960    1.438   .     S
C950   O994    1.270   .     A
C950   O996    1.271   .     A
C951   C952    1.385   .     A
C951   H986    1.079   .     S
C951   C974    1.408   .     A
C952   H982    1.084   .     S
C952   C423    1.392   1_556 S
C953   C959    1.459   .     S
C953   O995    1.285   .     A
C953   O997    1.284   .     A
C954   C956    1.399   .     A
C954   C955    1.421   .     A
C955   C975    1.427   .     A
C955   C958    1.421   .     A
C956   H979    1.084   .     S
C956   C957    1.388   .     A
C957   H981    1.084   .     S
C957   C969    1.397   .     A
C958   C969    1.406   .     A
C959   Br1004  1.928   .     S
C959   C1019   1.340   .     S
C961   H984    1.083   .     S
C961   C970    1.391   .     A
C961   C968    1.402   .     A
C962   C965    1.455   .     S
C962   Br592   1.933   1_565 S
C962   C609    1.349   1_565 S
C963   C964    1.429   .     S
C964   O992    1.280   .     A
C964   O998    1.274   .     A
C965   O993    1.264   .     A
C965   O999    1.274   .     A
C966   O990    1.272   .     A
C966   O988    1.275   .     A
C966   C969    1.456   .     S
C967   O989    1.284   .     A
C967   C968    1.468   .     S
C967   O991    1.286   .     A
C968   C971    1.406   .     A
C970   H983    1.084   .     S
C970   C973    1.400   .     A
C971   C972    1.416   .     A
C972   C974    1.424   .     A
C972   C973    1.417   .     A
C973   C446    1.393   1_556 S
C974   C444    1.425   1_556 S
C975   C976    1.410   .     A
C976   H985    1.077   .     S
C976   C977    1.388   .     A
C977   H978    1.084   .     S
H980   C1019   1.086   .     S
O987   Zn1003  1.932   .     S
O987   Zn1001  1.944   .     S
O987   Zn1000  1.972   .     S
O987   Zn1002  1.932   .     S
O988   Zn1001  1.931   .     S
O989   Zn1003  1.946   .     S
O990   Zn1002  1.937   .     S
O991   Zn1000  1.925   .     S
O992   Zn1000  1.934   .     S
O993   Zn1003  1.939   .     S
O994   Zn1001  1.924   .     S
O995   Zn1002  1.939   .     S
O996   Zn1003  1.930   .     S
O997   Zn1000  1.918   .     S
O998   Zn1001  1.949   .     S
O999   Zn1002  1.939   .     S
Br1006 C668    1.932   1_565 S
Br1007 C1017   1.940   .     S
Br1008 C1030   1.943   .     S
C1009  C1019   1.438   .     S
C1009  O1053   1.270   .     A
C1009  O1055   1.271   .     A
C1010  C1011   1.385   .     A
C1010  H1045   1.079   .     S
C1010  C1033   1.408   .     A
C1011  H1041   1.084   .     S
C1011  C482    1.392   1_556 S
C1012  C1018   1.459   .     S
C1012  O1054   1.285   .     A
C1012  O1056   1.284   .     A
C1013  C1015   1.399   .     A
C1013  C1014   1.421   .     A
C1014  C1034   1.427   .     A
C1014  C1017   1.421   .     A
C1015  H1038   1.084   .     S
C1015  C1016   1.388   .     A
C1016  H1040   1.084   .     S
C1016  C1028   1.397   .     A
C1017  C1028   1.406   .     A
C1018  Br886   1.928   1_655 S
C1018  C901    1.340   1_655 S
C1020  H1043   1.083   .     S
C1020  C1029   1.391   .     A
C1020  C1027   1.402   .     A
C1021  C1024   1.455   .     S
C1021  Br651   1.933   1_565 S
C1021  C668    1.349   1_565 S
C1022  C1023   1.429   .     S
C1023  O1051   1.280   .     A
C1023  O1057   1.274   .     A
C1024  O1052   1.264   .     A
C1024  O1058   1.274   .     A
C1025  O1049   1.272   .     A
C1025  O1047   1.275   .     A
C1025  C1028   1.456   .     S
C1026  O1048   1.284   .     A
C1026  C1027   1.468   .     S
C1026  O1050   1.286   .     A
C1027  C1030   1.406   .     A
C1029  H1042   1.084   .     S
C1029  C1032   1.400   .     A
C1030  C1031   1.416   .     A
C1031  C1033   1.424   .     A
C1031  C1032   1.417   .     A
C1032  C505    1.393   1_556 S
C1033  C503    1.425   1_556 S
C1034  C1035   1.410   .     A
C1035  H1044   1.077   .     S
C1035  C1036   1.388   .     A
C1036  H1037   1.084   .     S
H1039  C901    1.086   1_655 S
O1046  Zn1062  1.932   .     S
O1046  Zn1060  1.944   .     S
O1046  Zn1059  1.972   .     S
O1046  Zn1061  1.932   .     S
O1047  Zn1060  1.931   .     S
O1048  Zn1062  1.946   .     S
O1049  Zn1061  1.937   .     S
O1050  Zn1059  1.925   .     S
O1051  Zn1059  1.934   .     S
O1052  Zn1062  1.939   .     S
O1053  Zn1060  1.924   .     S
O1054  Zn1061  1.939   .     S
O1055  Zn1062  1.930   .     S
O1056  Zn1059  1.918   .     S
O1057  Zn1060  1.949   .     S
O1058  Zn1061  1.939   .     S
