data_str_m1_o2_o5_pcu_sym.28
_audit_creation_date              2020-01-03
_audit_creation_method            'Materials Studio'
_symmetry_space_group_name_H-M    'P1'
_symmetry_Int_Tables_number       1
_symmetry_cell_setting            triclinic
loop_
_symmetry_equiv_pos_as_xyz
  x,y,z
_cell_length_a                    24.4696
_cell_length_b                    24.5071
_cell_length_c                    22.3839
_cell_angle_alpha                 89.9999
_cell_angle_beta                  89.9999
_cell_angle_gamma                 89.8274
loop_
_atom_site_label
_atom_site_type_symbol
_atom_site_fract_x
_atom_site_fract_y
_atom_site_fract_z
_atom_site_U_iso_or_equiv
_atom_site_adp_type
_atom_site_occupancy
C1     C     0.22963   0.27243   0.25247   0.00000  Uiso   1.00
C2     C     0.22716   0.73058   0.24879   0.00000  Uiso   1.00
C3     C     0.17446   0.66158   0.19537   0.00000  Uiso   1.00
C4     C     0.31010   0.14372   0.70619   0.00000  Uiso   1.00
C5     C     0.67643   0.84166   0.30374   0.00000  Uiso   1.00
C6     C     0.17510   0.66213   0.69630   0.00000  Uiso   1.00
C7     C     0.82550   0.33847   0.19537   0.00000  Uiso   1.00
C8     C     0.36282   0.80156   0.22407   0.00000  Uiso   1.00
C9     C     0.63159   0.20448   0.74137   0.00000  Uiso   1.00
C10    C     0.13515   0.29952   0.27098   0.00000  Uiso   1.00
C11    C     0.83002   0.66675   0.69427   0.00000  Uiso   1.00
C12    C     0.63716   0.19845   0.22408   0.00000  Uiso   1.00
C13    C     0.73000   0.77397   0.74913   0.00000  Uiso   1.00
C14    C     0.36841   0.79551   0.74137   0.00000  Uiso   1.00
C15    C     0.86486   0.70050   0.27091   0.00000  Uiso   1.00
C16    C     0.16998   0.33325   0.69427   0.00000  Uiso   1.00
C17    C     0.14762   0.35276   0.25072   0.00000  Uiso   1.00
C18    C     0.85295   0.64870   0.74932   0.00000  Uiso   1.00
C19    C     0.35222   0.85313   0.25002   0.00000  Uiso   1.00
C20    C     0.64702   0.14908   0.75214   0.00000  Uiso   1.00
C21    C     0.85238   0.64724   0.25072   0.00000  Uiso   1.00
C22    C     0.14705   0.35130   0.74932   0.00000  Uiso   1.00
C23    C     0.64778   0.14687   0.25001   0.00000  Uiso   1.00
C24    C     0.27221   0.22957   0.25210   0.00000  Uiso   1.00
C25    C     0.35298   0.85092   0.75214   0.00000  Uiso   1.00
C26    C     0.85147   0.35304   0.75066   0.00000  Uiso   1.00
C27    C     0.14783   0.64745   0.24958   0.00000  Uiso   1.00
C28    C     0.64736   0.85335   0.74879   0.00000  Uiso   1.00
C29    C     0.35234   0.14734   0.25011   0.00000  Uiso   1.00
C30    C     0.14853   0.64695   0.75066   0.00000  Uiso   1.00
C31    C     0.85216   0.35256   0.24958   0.00000  Uiso   1.00
C32    C     0.35263   0.14665   0.74879   0.00000  Uiso   1.00
C33    C     0.64766   0.85266   0.25011   0.00000  Uiso   1.00
C34    C     0.33036   0.34370   0.26684   0.00000  Uiso   1.00
C35    C     0.23162   0.72563   0.75260   0.00000  Uiso   1.00
C36    C     0.81333   0.79582   0.85731   0.00000  Uiso   1.00
C37    C     0.16991   0.84829   0.24915   0.00000  Uiso   1.00
C38    C     0.82880   0.15943   0.73183   0.00000  Uiso   1.00
C39    C     0.66966   0.65629   0.26703   0.00000  Uiso   1.00
C40    C     0.18667   0.20418   0.85731   0.00000  Uiso   1.00
C41    C     0.83009   0.15171   0.24903   0.00000  Uiso   1.00
C42    C     0.17120   0.84057   0.73184   0.00000  Uiso   1.00
C43    C     0.73740   0.27966   0.88631   0.00000  Uiso   1.00
C44    C     0.26364   0.71347   0.38081   0.00000  Uiso   1.00
C45    C     0.65801   0.68004   0.79684   0.00000  Uiso   1.00
C46    C     0.77284   0.26943   0.24876   0.00000  Uiso   1.00
C47    C     0.24256   0.22168   0.11698   0.00000  Uiso   1.00
C48    C     0.26260   0.72034   0.88630   0.00000  Uiso   1.00
C49    C     0.73640   0.28646   0.38080   0.00000  Uiso   1.00
C50    C     0.34199   0.31996   0.79684   0.00000  Uiso   1.00
C51    C     0.75733   0.77819   0.11695   0.00000  Uiso   1.00
C52    C     0.82104   0.84941   0.70280   0.00000  Uiso   1.00
C53    C     0.27695   0.26086   0.38383   0.00000  Uiso   1.00
C54    C     0.77261   0.24201   0.61797   0.00000  Uiso   1.00
C55    C     0.20714   0.76595   0.11766   0.00000  Uiso   1.00
C56    C     0.17896   0.15059   0.70280   0.00000  Uiso   1.00
C57    C     0.27000   0.22603   0.74913   0.00000  Uiso   1.00
C58    C     0.72316   0.73925   0.38387   0.00000  Uiso   1.00
C59    C     0.22739   0.75799   0.61797   0.00000  Uiso   1.00
C60    C     0.79284   0.23415   0.11759   0.00000  Uiso   1.00
C61    C     0.34919   0.67393   0.24658   0.00000  Uiso   1.00
C62    C     0.65203   0.33172   0.77426   0.00000  Uiso   1.00
C63    C     0.15017   0.17375   0.23970   0.00000  Uiso   1.00
C64    C     0.71417   0.68589   0.63611   0.00000  Uiso   1.00
C65    C     0.65081   0.32607   0.24663   0.00000  Uiso   1.00
C66    C     0.34797   0.66828   0.77426   0.00000  Uiso   1.00
C67    C     0.84982   0.82624   0.23951   0.00000  Uiso   1.00
C68    C     0.72779   0.77043   0.25210   0.00000  Uiso   1.00
C69    C     0.28583   0.31411   0.63610   0.00000  Uiso   1.00
C70    C     0.21506   0.42270   0.20842   0.00000  Uiso   1.00
C71    C     0.23814   0.45963   0.25725   0.00000  Uiso   1.00
C72    C     0.85364   0.65077   0.86458   0.00000  Uiso   1.00
C73    C     0.90160   0.68220   0.89151   0.00000  Uiso   1.00
C74    C     0.29015   0.91836   0.30832   0.00000  Uiso   1.00
C75    C     0.26587   0.96224   0.26769   0.00000  Uiso   1.00
C76    C     0.72276   0.07817   0.77706   0.00000  Uiso   1.00
C77    C     0.72385   0.06592   0.84396   0.00000  Uiso   1.00
C78    C     0.78491   0.57727   0.20854   0.00000  Uiso   1.00
C79    C    -0.00000   0.50000   0.47330   0.00000  Uiso   1.00
C80    C     0.76186   0.54037   0.25743   0.00000  Uiso   1.00
C81    C     0.14636   0.34923   0.86458   0.00000  Uiso   1.00
C82    C     0.09840   0.31780   0.89151   0.00000  Uiso   1.00
C83    C     0.70988   0.08162   0.30824   0.00000  Uiso   1.00
C84    C     0.73416   0.03775   0.26759   0.00000  Uiso   1.00
C85    C     0.27724   0.92183   0.77706   0.00000  Uiso   1.00
C86    C     0.27615   0.93408   0.84397   0.00000  Uiso   1.00
C87    C     0.86088   0.34436   0.86566   0.00000  Uiso   1.00
C88    C     0.90755   0.30603   0.88330   0.00000  Uiso   1.00
C89    C     0.13225   0.66232   0.36217   0.00000  Uiso   1.00
C90    C    -0.00000   0.50000   0.52671   0.00000  Uiso   1.00
C91    C     0.07448   0.68598   0.36240   0.00000  Uiso   1.00
C92    C     0.59976   0.80655   0.83679   0.00000  Uiso   1.00
C93    C     0.61902   0.83000   0.89629   0.00000  Uiso   1.00
C94    C     0.37239   0.16734   0.13963   0.00000  Uiso   1.00
C95    C     0.42923   0.19256   0.14289   0.00000  Uiso   1.00
C96    C     0.13912   0.65563   0.86566   0.00000  Uiso   1.00
C97    C     0.09245   0.69397   0.88330   0.00000  Uiso   1.00
C98    C     0.86779   0.33762   0.36215   0.00000  Uiso   1.00
C99    C     0.92554   0.31395   0.36235   0.00000  Uiso   1.00
C100   C     0.40024   0.19345   0.83679   0.00000  Uiso   1.00
C101   C     0.50000  -0.00000   0.47329   0.00000  Uiso   1.00
C102   C     0.38097   0.17000   0.89629   0.00000  Uiso   1.00
C103   C     0.62754   0.83260   0.13966   0.00000  Uiso   1.00
C104   C     0.57071   0.80736   0.14297   0.00000  Uiso   1.00
C105   C     0.68831   0.89724   0.65503   0.00000  Uiso   1.00
C106   C     0.70386   0.95466   0.67481   0.00000  Uiso   1.00
C107   C     0.33089   0.12277   0.35900   0.00000  Uiso   1.00
C108   C     0.37069   0.14780   0.40379   0.00000  Uiso   1.00
C109   C     0.84171   0.36077   0.63539   0.00000  Uiso   1.00
C110   C     0.89861   0.34124   0.61642   0.00000  Uiso   1.00
C111   C     0.16618   0.62970   0.13754   0.00000  Uiso   1.00
C112   C     0.77357   0.73200   0.74910   0.00000  Uiso   1.00
C113   C     0.50000  -0.00000   0.52671   0.00000  Uiso   1.00
C114   C     0.21591   0.59414   0.12346   0.00000  Uiso   1.00
C115   C     0.31169   0.10276   0.65503   0.00000  Uiso   1.00
C116   C     0.29613   0.04534   0.67481   0.00000  Uiso   1.00
C117   C     0.66919   0.87731   0.35895   0.00000  Uiso   1.00
C118   C     0.62941   0.85231   0.40379   0.00000  Uiso   1.00
C119   C     0.15829   0.63923   0.63539   0.00000  Uiso   1.00
C120   C     0.10139   0.65876   0.61642   0.00000  Uiso   1.00
C121   C     0.83374   0.37041   0.13758   0.00000  Uiso   1.00
C122   C     0.78395   0.40589   0.12351   0.00000  Uiso   1.00
C123   C     0.41621   0.79000   0.19163   0.00000  Uiso   1.00
C124   C     0.50000  -0.00000   0.97330   0.00000  Uiso   1.00
C125   C     0.41371   0.81146   0.12768   0.00000  Uiso   1.00
C126   C     0.57233   0.22243   0.73301   0.00000  Uiso   1.00
C127   C     0.55761   0.22750   0.66689   0.00000  Uiso   1.00
C128   C     0.08002   0.28636   0.29882   0.00000  Uiso   1.00
C129   C     0.07854   0.30469   0.36397   0.00000  Uiso   1.00
C130   C     0.85123   0.64712   0.63372   0.00000  Uiso   1.00
C131   C     0.90900   0.66786   0.62121   0.00000  Uiso   1.00
C132   C     0.58375   0.21003   0.19168   0.00000  Uiso   1.00
C133   C     0.58622   0.18857   0.12773   0.00000  Uiso   1.00
C134   C     0.42766   0.77757   0.73301   0.00000  Uiso   1.00
C135   C     0.50000  -0.00000   0.02671   0.00000  Uiso   1.00
C136   C     0.44239   0.77250   0.66689   0.00000  Uiso   1.00
C137   C     0.92001   0.71369   0.29870   0.00000  Uiso   1.00
C138   C     0.92154   0.69539   0.36386   0.00000  Uiso   1.00
C139   C     0.14876   0.35288   0.63372   0.00000  Uiso   1.00
C140   C     0.09100   0.33214   0.62121   0.00000  Uiso   1.00
C141   C     0.00000   0.50000   0.97328   0.00000  Uiso   1.00
C142   C    -0.00000   0.50000   0.02671   0.00000  Uiso   1.00
C143   C    -0.00000   0.50000   0.09006   0.00000  Uiso   1.00
C144   C     0.00000   0.50000   0.90994   0.00000  Uiso   1.00
C145   C     0.50000  -0.00000   0.09004   0.00000  Uiso   1.00
C146   C     0.50000  -0.00000   0.90996   0.00000  Uiso   1.00
C147   C     0.50000  -0.00000   0.59006   0.00000  Uiso   1.00
C148   C     0.26981   0.77342   0.24844   0.00000  Uiso   1.00
C149   C     0.50000  -0.00000   0.40994   0.00000  Uiso   1.00
C150   C     0.00000   0.50000   0.59004   0.00000  Uiso   1.00
C151   C    -0.00000   0.50000   0.40996   0.00000  Uiso   1.00
C152   C     0.10541   0.60493   0.24971   0.00000  Uiso   1.00
C153   C     0.89458   0.39497   0.75017   0.00000  Uiso   1.00
C154   C     0.60497   0.89478   0.24970   0.00000  Uiso   1.00
C155   C     0.39485   0.10469   0.74953   0.00000  Uiso   1.00
C156   C     0.89459   0.39507   0.24971   0.00000  Uiso   1.00
C157   C     0.10542   0.60503   0.75017   0.00000  Uiso   1.00
C158   C     0.39503   0.10521   0.24970   0.00000  Uiso   1.00
C159   C     0.72653   0.23173   0.75312   0.00000  Uiso   1.00
C160   C     0.60515   0.89531   0.74953   0.00000  Uiso   1.00
C161   C     0.89479   0.60528   0.74994   0.00000  Uiso   1.00
C162   C     0.10492   0.39480   0.25040   0.00000  Uiso   1.00
C163   C     0.39481   0.89451   0.75037   0.00000  Uiso   1.00
C164   C     0.60505   0.10504   0.24988   0.00000  Uiso   1.00
C165   C     0.10520   0.39472   0.74994   0.00000  Uiso   1.00
C166   C     0.89508   0.60521   0.25040   0.00000  Uiso   1.00
C167   C     0.60519   0.10548   0.75037   0.00000  Uiso   1.00
C168   C     0.39495   0.89496   0.24988   0.00000  Uiso   1.00
C169   C     0.24276   0.32642   0.23560   0.00000  Uiso   1.00
C170   C     0.77037   0.72757   0.25247   0.00000  Uiso   1.00
C171   C     0.80040   0.71808   0.80276   0.00000  Uiso   1.00
C172   C     0.25847   0.82599   0.27156   0.00000  Uiso   1.00
C173   C     0.74208   0.17768   0.76534   0.00000  Uiso   1.00
C174   C     0.75723   0.67356   0.23567   0.00000  Uiso   1.00
C175   C     0.19960   0.28192   0.80276   0.00000  Uiso   1.00
C176   C     0.74154   0.17399   0.27149   0.00000  Uiso   1.00
C177   C     0.25792   0.82231   0.76534   0.00000  Uiso   1.00
C178   C     0.79507   0.28827   0.80604   0.00000  Uiso   1.00
C179   C     0.20345   0.71411   0.30324   0.00000  Uiso   1.00
C180   C     0.68477   0.76863   0.78789   0.00000  Uiso   1.00
C181   C     0.22643   0.26799   0.74910   0.00000  Uiso   1.00
C182   C     0.29871   0.21648   0.19802   0.00000  Uiso   1.00
C183   C     0.20493   0.71173   0.80604   0.00000  Uiso   1.00
C184   C     0.79657   0.28587   0.30322   0.00000  Uiso   1.00
C185   C     0.31523   0.23137   0.78789   0.00000  Uiso   1.00
C186   C     0.70125   0.78347   0.19803   0.00000  Uiso   1.00
C187   C     0.73337   0.81888   0.70977   0.00000  Uiso   1.00
C188   C     0.28546   0.20136   0.30527   0.00000  Uiso   1.00
C189   C     0.78250   0.29921   0.69819   0.00000  Uiso   1.00
C190   C     0.21144   0.70545   0.19485   0.00000  Uiso   1.00
C191   C     0.26663   0.18112   0.70977   0.00000  Uiso   1.00
C192   C     0.73019   0.22657   0.24840   0.00000  Uiso   1.00
C193   C     0.71458   0.79868   0.30525   0.00000  Uiso   1.00
C194   C     0.21750   0.70079   0.69819   0.00000  Uiso   1.00
C195   C     0.78853   0.29459   0.19483   0.00000  Uiso   1.00
C196   C     0.32231   0.76100   0.22599   0.00000  Uiso   1.00
C197   C     0.67180   0.24531   0.74107   0.00000  Uiso   1.00
C198   C     0.17579   0.25887   0.26913   0.00000  Uiso   1.00
C199   C     0.78704   0.70503   0.69547   0.00000  Uiso   1.00
C200   C     0.67768   0.23901   0.22599   0.00000  Uiso   1.00
C201   C     0.32820   0.75469   0.74106   0.00000  Uiso   1.00
C202   C     0.82422   0.74115   0.26906   0.00000  Uiso   1.00
C203   C     0.27347   0.76827   0.75311   0.00000  Uiso   1.00
C204   C     0.21296   0.29497   0.69547   0.00000  Uiso   1.00
C205   C     0.20133   0.36622   0.23238   0.00000  Uiso   1.00
C206   C     0.83642   0.67338   0.80399   0.00000  Uiso   1.00
C207   C     0.30046   0.86504   0.27520   0.00000  Uiso   1.00
C208   C     0.70281   0.13604   0.76488   0.00000  Uiso   1.00
C209   C     0.79866   0.63377   0.23244   0.00000  Uiso   1.00
C210   C     0.16358   0.32662   0.80399   0.00000  Uiso   1.00
C211   C     0.69955   0.13495   0.27514   0.00000  Uiso   1.00
C212   C     0.29719   0.86396   0.76489   0.00000  Uiso   1.00
C213   C     0.83605   0.32817   0.80574   0.00000  Uiso   1.00
C214   C     0.76838   0.27437   0.75260   0.00000  Uiso   1.00
C215   C     0.16180   0.67446   0.30368   0.00000  Uiso   1.00
C216   C     0.64489   0.80993   0.79019   0.00000  Uiso   1.00
C217   C     0.34043   0.17685   0.19716   0.00000  Uiso   1.00
C218   C     0.16395   0.67183   0.80574   0.00000  Uiso   1.00
C219   C     0.83822   0.32551   0.30366   0.00000  Uiso   1.00
C220   C     0.35511   0.19007   0.79019   0.00000  Uiso   1.00
C221   C     0.65953   0.82311   0.19717   0.00000  Uiso   1.00
C222   C     0.68990   0.85628   0.70619   0.00000  Uiso   1.00
C223   C     0.32361   0.15838   0.30376   0.00000  Uiso   1.00
C224   C     0.82490   0.33787   0.69630   0.00000  Uiso   1.00
H1     H     0.34930   0.30351   0.27655   0.00000  Uiso   1.00
H2     H     0.84328   0.19965   0.71575   0.00000  Uiso   1.00
H3     H     0.24510   0.41956   0.17134   0.00000  Uiso   1.00
H4     H     0.17859   0.44264   0.18843   0.00000  Uiso   1.00
H5     H     0.91873   0.65885   0.92971   0.00000  Uiso   1.00
H6     H     0.93447   0.68864   0.85812   0.00000  Uiso   1.00
H7     H     0.88781   0.72242   0.90847   0.00000  Uiso   1.00
H8     H     0.81861   0.65235   0.89617   0.00000  Uiso   1.00
H9     H     0.86418   0.60678   0.86170   0.00000  Uiso   1.00
H10    H     0.26540   0.00195   0.29161   0.00000  Uiso   1.00
H11    H     0.29035   0.96688   0.22631   0.00000  Uiso   1.00
H12    H     0.22324   0.95199   0.25549   0.00000  Uiso   1.00
H13    H     0.80847   0.13669   0.69494   0.00000  Uiso   1.00
H14    H     0.26216   0.91156   0.34668   0.00000  Uiso   1.00
H15    H     0.32852   0.93404   0.32840   0.00000  Uiso   1.00
H16    H     0.68310   0.07277   0.86442   0.00000  Uiso   1.00
H17    H     0.73592   0.02270   0.85117   0.00000  Uiso   1.00
H18    H     0.75402   0.09257   0.86669   0.00000  Uiso   1.00
H19    H     0.69837   0.04758   0.75290   0.00000  Uiso   1.00
H20    H     0.76449   0.07170   0.75903   0.00000  Uiso   1.00
H21    H     0.75906   0.49789   0.24067   0.00000  Uiso   1.00
H22    H     0.78846   0.54058   0.29757   0.00000  Uiso   1.00
H23    H     0.72026   0.55377   0.27039   0.00000  Uiso   1.00
H24    H     0.86549   0.13559   0.74490   0.00000  Uiso   1.00
H25    H     0.75484   0.58038   0.17149   0.00000  Uiso   1.00
H26    H     0.82137   0.55731   0.18855   0.00000  Uiso   1.00
H27    H     0.08127   0.34115   0.92971   0.00000  Uiso   1.00
H28    H     0.06553   0.31136   0.85812   0.00000  Uiso   1.00
H29    H     0.11219   0.27758   0.90847   0.00000  Uiso   1.00
H30    H     0.18139   0.34765   0.89617   0.00000  Uiso   1.00
H31    H     0.13582   0.39322   0.86170   0.00000  Uiso   1.00
H32    H     0.77677   0.04802   0.25538   0.00000  Uiso   1.00
H33    H     0.70966   0.03313   0.22622   0.00000  Uiso   1.00
H34    H     0.73463   0.99804   0.29149   0.00000  Uiso   1.00
H35    H     0.65074   0.69649   0.27674   0.00000  Uiso   1.00
H36    H     0.73787   0.08842   0.34660   0.00000  Uiso   1.00
H37    H     0.67152   0.06593   0.32833   0.00000  Uiso   1.00
H38    H     0.31690   0.92722   0.86442   0.00000  Uiso   1.00
H39    H     0.26409   0.97729   0.85117   0.00000  Uiso   1.00
H40    H     0.24598   0.90742   0.86670   0.00000  Uiso   1.00
H41    H     0.30163   0.95242   0.75290   0.00000  Uiso   1.00
H42    H     0.23550   0.92830   0.75904   0.00000  Uiso   1.00
H43    H     0.89186   0.26407   0.89045   0.00000  Uiso   1.00
H44    H     0.93949   0.30468   0.84814   0.00000  Uiso   1.00
H45    H     0.92641   0.32048   0.92553   0.00000  Uiso   1.00
H46    H     0.63600   0.62791   0.25569   0.00000  Uiso   1.00
H47    H     0.87472   0.38737   0.86611   0.00000  Uiso   1.00
H48    H     0.82950   0.34327   0.90141   0.00000  Uiso   1.00
H49    H     0.07576   0.73066   0.35417   0.00000  Uiso   1.00
H50    H     0.04861   0.66643   0.32788   0.00000  Uiso   1.00
H51    H     0.05547   0.67868   0.40672   0.00000  Uiso   1.00
H52    H     0.13116   0.61790   0.37114   0.00000  Uiso   1.00
H53    H     0.15395   0.67985   0.40117   0.00000  Uiso   1.00
H54    H     0.65489   0.80679   0.91319   0.00000  Uiso   1.00
H55    H     0.63043   0.87356   0.89092   0.00000  Uiso   1.00
H56    H     0.58560   0.82719   0.92969   0.00000  Uiso   1.00
H57    H     0.69005   0.63991   0.30780   0.00000  Uiso   1.00
H58    H     0.56231   0.82857   0.82243   0.00000  Uiso   1.00
H59    H     0.58680   0.76360   0.84345   0.00000  Uiso   1.00
H60    H     0.42615   0.23682   0.15309   0.00000  Uiso   1.00
H61    H     0.45442   0.17227   0.17760   0.00000  Uiso   1.00
H62    H     0.44991   0.18750   0.09910   0.00000  Uiso   1.00
H63    H     0.37553   0.12321   0.12934   0.00000  Uiso   1.00
H64    H     0.35137   0.18536   0.10038   0.00000  Uiso   1.00
H65    H     0.10814   0.73593   0.89045   0.00000  Uiso   1.00
H66    H     0.06051   0.69532   0.84815   0.00000  Uiso   1.00
H67    H     0.07359   0.67952   0.92553   0.00000  Uiso   1.00
H68    H     0.21056   0.17362   0.83164   0.00000  Uiso   1.00
H69    H     0.12528   0.61263   0.86611   0.00000  Uiso   1.00
H70    H     0.17050   0.65672   0.90141   0.00000  Uiso   1.00
H71    H     0.92426   0.26927   0.35410   0.00000  Uiso   1.00
H72    H     0.95141   0.33351   0.32783   0.00000  Uiso   1.00
H73    H     0.94457   0.32122   0.40666   0.00000  Uiso   1.00
H74    H     0.86889   0.38205   0.37114   0.00000  Uiso   1.00
H75    H     0.84609   0.32009   0.40115   0.00000  Uiso   1.00
H76    H     0.34511   0.19321   0.91319   0.00000  Uiso   1.00
H77    H     0.36957   0.12644   0.89092   0.00000  Uiso   1.00
H78    H     0.41440   0.17281   0.92969   0.00000  Uiso   1.00
H79    H     0.14369   0.20563   0.84086   0.00000  Uiso   1.00
H80    H     0.43769   0.17142   0.82243   0.00000  Uiso   1.00
H81    H     0.41319   0.23640   0.84345   0.00000  Uiso   1.00
H82    H     0.57380   0.76310   0.15319   0.00000  Uiso   1.00
H83    H     0.54553   0.82766   0.17769   0.00000  Uiso   1.00
H84    H     0.55000   0.81240   0.09920   0.00000  Uiso   1.00
H85    H     0.62438   0.87672   0.12936   0.00000  Uiso   1.00
H86    H     0.64855   0.81457   0.10040   0.00000  Uiso   1.00
H87    H     0.71137   0.98049   0.63490   0.00000  Uiso   1.00
H88    H     0.66994   0.97341   0.70030   0.00000  Uiso   1.00
H89    H     0.74145   0.95405   0.70255   0.00000  Uiso   1.00
H90    H     0.18542   0.18998   0.90433   0.00000  Uiso   1.00
H91    H     0.71642   0.88484   0.61848   0.00000  Uiso   1.00
H92    H     0.64693   0.89794   0.63462   0.00000  Uiso   1.00
H93    H     0.38016   0.11753   0.43925   0.00000  Uiso   1.00
H94    H     0.40943   0.15974   0.38167   0.00000  Uiso   1.00
H95    H     0.35241   0.18420   0.42536   0.00000  Uiso   1.00
H96    H     0.29081   0.11619   0.38119   0.00000  Uiso   1.00
H97    H     0.34547   0.08128   0.34686   0.00000  Uiso   1.00
H98    H     0.90726   0.35558   0.57033   0.00000  Uiso   1.00
H99    H     0.93094   0.35743   0.64613   0.00000  Uiso   1.00
H100   H     0.90064   0.29599   0.61690   0.00000  Uiso   1.00
H101   H     0.84733   0.19056   0.23209   0.00000  Uiso   1.00
H102   H     0.81318   0.34818   0.59950   0.00000  Uiso   1.00
H103   H     0.83903   0.40585   0.63458   0.00000  Uiso   1.00
H104   H     0.22290   0.56450   0.16015   0.00000  Uiso   1.00
H105   H     0.20859   0.57112   0.08151   0.00000  Uiso   1.00
H106   H     0.25315   0.61929   0.11753   0.00000  Uiso   1.00
H107   H     0.13036   0.60241   0.13862   0.00000  Uiso   1.00
H108   H     0.15869   0.65833   0.09994   0.00000  Uiso   1.00
H109   H     0.28864   0.01951   0.63490   0.00000  Uiso   1.00
H110   H     0.33005   0.02660   0.70031   0.00000  Uiso   1.00
H111   H     0.25854   0.04595   0.70253   0.00000  Uiso   1.00
H112   H     0.31002   0.36010   0.30764   0.00000  Uiso   1.00
H113   H     0.81237   0.12777   0.21146   0.00000  Uiso   1.00
H114   H     0.28359   0.11517   0.61848   0.00000  Uiso   1.00
H115   H     0.35307   0.10205   0.63462   0.00000  Uiso   1.00
H116   H     0.61997   0.88261   0.43924   0.00000  Uiso   1.00
H117   H     0.59065   0.84038   0.38172   0.00000  Uiso   1.00
H118   H     0.64770   0.81593   0.42538   0.00000  Uiso   1.00
H119   H     0.70928   0.88390   0.38111   0.00000  Uiso   1.00
H120   H     0.65461   0.91879   0.34679   0.00000  Uiso   1.00
H121   H     0.09936   0.70401   0.61690   0.00000  Uiso   1.00
H122   H     0.06906   0.64257   0.64613   0.00000  Uiso   1.00
H123   H     0.09274   0.64442   0.57033   0.00000  Uiso   1.00
H124   H     0.86457   0.12752   0.26742   0.00000  Uiso   1.00
H125   H     0.18681   0.65182   0.59950   0.00000  Uiso   1.00
H126   H     0.16097   0.59415   0.63458   0.00000  Uiso   1.00
H127   H     0.77675   0.43534   0.16033   0.00000  Uiso   1.00
H128   H     0.79134   0.42912   0.08170   0.00000  Uiso   1.00
H129   H     0.74680   0.38065   0.11730   0.00000  Uiso   1.00
H130   H     0.86950   0.39778   0.13871   0.00000  Uiso   1.00
H131   H     0.84131   0.34182   0.09995   0.00000  Uiso   1.00
H132   H     0.37830   0.79345   0.10375   0.00000  Uiso   1.00
H133   H     0.40984   0.85660   0.12739   0.00000  Uiso   1.00
H134   H     0.45156   0.79994   0.10349   0.00000  Uiso   1.00
H135   H     0.15672   0.80035   0.71575   0.00000  Uiso   1.00
H136   H     0.45135   0.80841   0.21544   0.00000  Uiso   1.00
H137   H     0.42524   0.74562   0.19001   0.00000  Uiso   1.00
H138   H     0.58184   0.26048   0.64570   0.00000  Uiso   1.00
H139   H     0.56576   0.18878   0.64276   0.00000  Uiso   1.00
H140   H     0.51355   0.23769   0.66242   0.00000  Uiso   1.00
H141   H     0.54328   0.19519   0.75640   0.00000  Uiso   1.00
H142   H     0.56508   0.26252   0.75464   0.00000  Uiso   1.00
H143   H     0.11337   0.28657   0.38900   0.00000  Uiso   1.00
H144   H     0.08064   0.34984   0.36707   0.00000  Uiso   1.00
H145   H     0.04005   0.29081   0.38513   0.00000  Uiso   1.00
H146   H     0.19153   0.86331   0.69495   0.00000  Uiso   1.00
H147   H     0.04602   0.30566   0.27372   0.00000  Uiso   1.00
H148   H     0.07145   0.24194   0.29738   0.00000  Uiso   1.00
H149   H     0.90989   0.71311   0.62388   0.00000  Uiso   1.00
H150   H     0.93901   0.65080   0.65332   0.00000  Uiso   1.00
H151   H     0.92163   0.65536   0.57555   0.00000  Uiso   1.00
H152   H     0.84950   0.60211   0.63007   0.00000  Uiso   1.00
H153   H     0.82528   0.66180   0.59639   0.00000  Uiso   1.00
H154   H     0.62162   0.20658   0.10378   0.00000  Uiso   1.00
H155   H     0.59008   0.14343   0.12743   0.00000  Uiso   1.00
H156   H     0.54835   0.20010   0.10357   0.00000  Uiso   1.00
H157   H     0.13451   0.86440   0.74491   0.00000  Uiso   1.00
H158   H     0.54863   0.19162   0.21552   0.00000  Uiso   1.00
H159   H     0.57474   0.25440   0.19007   0.00000  Uiso   1.00
H160   H     0.41816   0.73952   0.64569   0.00000  Uiso   1.00
H161   H     0.43423   0.81122   0.64276   0.00000  Uiso   1.00
H162   H     0.48644   0.76231   0.66242   0.00000  Uiso   1.00
H163   H     0.45672   0.80481   0.75640   0.00000  Uiso   1.00
H164   H     0.43492   0.73747   0.75463   0.00000  Uiso   1.00
H165   H     0.88672   0.71351   0.38890   0.00000  Uiso   1.00
H166   H     0.91946   0.65024   0.36699   0.00000  Uiso   1.00
H167   H     0.96004   0.70930   0.38498   0.00000  Uiso   1.00
H168   H     0.70050   0.26000   0.86744   0.00000  Uiso   1.00
H169   H     0.95399   0.69438   0.27358   0.00000  Uiso   1.00
H170   H     0.92857   0.75810   0.29723   0.00000  Uiso   1.00
H171   H     0.09011   0.28689   0.62388   0.00000  Uiso   1.00
H172   H     0.06099   0.34920   0.65331   0.00000  Uiso   1.00
H173   H     0.07837   0.34464   0.57555   0.00000  Uiso   1.00
H174   H     0.15050   0.39789   0.63007   0.00000  Uiso   1.00
H175   H     0.17472   0.33820   0.59639   0.00000  Uiso   1.00
H176   H     0.73372   0.32494   0.88394   0.00000  Uiso   1.00
H177   H     0.73916   0.26856   0.93431   0.00000  Uiso   1.00
H178   H     0.30140   0.72424   0.35606   0.00000  Uiso   1.00
H179   H     0.25851   0.66831   0.38254   0.00000  Uiso   1.00
H180   H     0.36401   0.37208   0.25545   0.00000  Uiso   1.00
H181   H     0.26883   0.72792   0.42742   0.00000  Uiso   1.00
H182   H     0.68870   0.66008   0.76752   0.00000  Uiso   1.00
H183   H     0.62094   0.69148   0.77068   0.00000  Uiso   1.00
H184   H     0.64526   0.64948   0.83059   0.00000  Uiso   1.00
H185   H     0.20356   0.23229   0.13952   0.00000  Uiso   1.00
H186   H     0.24697   0.17654   0.11297   0.00000  Uiso   1.00
H187   H     0.24048   0.23844   0.07101   0.00000  Uiso   1.00
H188   H     0.29950   0.73999   0.86744   0.00000  Uiso   1.00
H189   H     0.26628   0.67506   0.88394   0.00000  Uiso   1.00
H190   H     0.26084   0.73143   0.93431   0.00000  Uiso   1.00
H191   H     0.78944   0.82638   0.83164   0.00000  Uiso   1.00
H192   H     0.69863   0.27570   0.35606   0.00000  Uiso   1.00
H193   H     0.74153   0.33161   0.38257   0.00000  Uiso   1.00
H194   H     0.73123   0.27199   0.42741   0.00000  Uiso   1.00
H195   H     0.31130   0.33992   0.76752   0.00000  Uiso   1.00
H196   H     0.37906   0.30852   0.77068   0.00000  Uiso   1.00
H197   H     0.35474   0.35052   0.83058   0.00000  Uiso   1.00
H198   H     0.79635   0.76759   0.13946   0.00000  Uiso   1.00
H199   H     0.75293   0.82333   0.11290   0.00000  Uiso   1.00
H200   H     0.75937   0.76140   0.07098   0.00000  Uiso   1.00
H201   H     0.84261   0.81908   0.73113   0.00000  Uiso   1.00
H202   H     0.85631   0.79437   0.84086   0.00000  Uiso   1.00
H203   H     0.80753   0.88484   0.73032   0.00000  Uiso   1.00
H204   H     0.85095   0.86487   0.66970   0.00000  Uiso   1.00
H205   H     0.25355   0.29628   0.36647   0.00000  Uiso   1.00
H206   H     0.32162   0.26735   0.37728   0.00000  Uiso   1.00
H207   H     0.26961   0.25909   0.43269   0.00000  Uiso   1.00
H208   H     0.75605   0.20439   0.63856   0.00000  Uiso   1.00
H209   H     0.81807   0.24052   0.61693   0.00000  Uiso   1.00
H210   H     0.75839   0.24285   0.57092   0.00000  Uiso   1.00
H211   H     0.21956   0.80397   0.14076   0.00000  Uiso   1.00
H212   H     0.16191   0.76092   0.11953   0.00000  Uiso   1.00
H213   H     0.81458   0.81002   0.90433   0.00000  Uiso   1.00
H214   H     0.21856   0.77035   0.06995   0.00000  Uiso   1.00
H215   H     0.14905   0.13513   0.66971   0.00000  Uiso   1.00
H216   H     0.15738   0.18092   0.73112   0.00000  Uiso   1.00
H217   H     0.19247   0.11516   0.73032   0.00000  Uiso   1.00
H218   H     0.74654   0.70382   0.36652   0.00000  Uiso   1.00
H219   H     0.67848   0.73276   0.37738   0.00000  Uiso   1.00
H220   H     0.73054   0.74106   0.43272   0.00000  Uiso   1.00
H221   H     0.24395   0.79561   0.63856   0.00000  Uiso   1.00
H222   H     0.18192   0.75948   0.61693   0.00000  Uiso   1.00
H223   H     0.24160   0.75715   0.57092   0.00000  Uiso   1.00
H224   H     0.15266   0.80945   0.23221   0.00000  Uiso   1.00
H225   H     0.78047   0.19611   0.14067   0.00000  Uiso   1.00
H226   H     0.83807   0.23922   0.11943   0.00000  Uiso   1.00
H227   H     0.78140   0.22976   0.06989   0.00000  Uiso   1.00
H228   H     0.31340   0.66040   0.27313   0.00000  Uiso   1.00
H229   H     0.38105   0.69166   0.27633   0.00000  Uiso   1.00
H230   H     0.36709   0.63709   0.22538   0.00000  Uiso   1.00
H231   H     0.69226   0.34818   0.78798   0.00000  Uiso   1.00
H232   H     0.63172   0.31099   0.81256   0.00000  Uiso   1.00
H233   H     0.62602   0.36708   0.76187   0.00000  Uiso   1.00
H234   H     0.18742   0.16163   0.21466   0.00000  Uiso   1.00
H235   H     0.18762   0.87225   0.21159   0.00000  Uiso   1.00
H236   H     0.12012   0.19382   0.20933   0.00000  Uiso   1.00
H237   H     0.13100   0.13579   0.25655   0.00000  Uiso   1.00
H238   H     0.68156   0.69825   0.66786   0.00000  Uiso   1.00
H239   H     0.72399   0.64171   0.64130   0.00000  Uiso   1.00
H240   H     0.69784   0.69174   0.59032   0.00000  Uiso   1.00
H241   H     0.68661   0.33959   0.27318   0.00000  Uiso   1.00
H242   H     0.61895   0.30833   0.27639   0.00000  Uiso   1.00
H243   H     0.63290   0.36292   0.22546   0.00000  Uiso   1.00
H244   H     0.30774   0.65182   0.78797   0.00000  Uiso   1.00
H245   H     0.36828   0.68901   0.81255   0.00000  Uiso   1.00
H246   H     0.13544   0.87248   0.26758   0.00000  Uiso   1.00
H247   H     0.37398   0.63292   0.76186   0.00000  Uiso   1.00
H248   H     0.81255   0.83833   0.21449   0.00000  Uiso   1.00
H249   H     0.87985   0.80614   0.20913   0.00000  Uiso   1.00
H250   H     0.86900   0.86421   0.25629   0.00000  Uiso   1.00
H251   H     0.31844   0.30175   0.66786   0.00000  Uiso   1.00
H252   H     0.27601   0.35829   0.64130   0.00000  Uiso   1.00
H253   H     0.30216   0.30826   0.59032   0.00000  Uiso   1.00
H254   H     0.24102   0.50208   0.24041   0.00000  Uiso   1.00
H255   H     0.21153   0.45953   0.29737   0.00000  Uiso   1.00
H256   H     0.27972   0.44619   0.27025   0.00000  Uiso   1.00
O1     O     0.00000   0.50000   0.25000   0.00000  Uiso   1.00
O2     O    -0.00000   0.45454   0.88202   0.00000  Uiso   1.00
O3     O     0.54546  -0.00000   0.11798   0.00000  Uiso   1.00
O4     O     0.45454  -0.00000   0.88202   0.00000  Uiso   1.00
O5     O     0.50000   0.95454   0.61798   0.00000  Uiso   1.00
O6     O     0.50000   0.04546   0.38202   0.00000  Uiso   1.00
O7     O     0.95454   0.50000   0.61798   0.00000  Uiso   1.00
O8     O     0.04546   0.50000   0.38202   0.00000  Uiso   1.00
O9     O     0.50000   0.04546   0.61798   0.00000  Uiso   1.00
O10    O     0.50000   0.95454   0.38202   0.00000  Uiso   1.00
O11    O     0.04546   0.50000   0.61798   0.00000  Uiso   1.00
O12    O    -0.00000   0.50000   0.75000   0.00000  Uiso   1.00
O13    O     0.95454   0.50000   0.38202   0.00000  Uiso   1.00
O14    O     0.06399   0.60947   0.21539   0.00000  Uiso   1.00
O15    O     0.93601   0.39053   0.78461   0.00000  Uiso   1.00
O16    O     0.60947   0.93601   0.21539   0.00000  Uiso   1.00
O17    O     0.39053   0.06399   0.78461   0.00000  Uiso   1.00
O18    O     0.93601   0.39053   0.21539   0.00000  Uiso   1.00
O19    O     0.06399   0.60947   0.78461   0.00000  Uiso   1.00
O20    O     0.39053   0.06399   0.21539   0.00000  Uiso   1.00
O21    O     0.60947   0.93601   0.78461   0.00000  Uiso   1.00
O22    O     0.93601   0.60947   0.78461   0.00000  Uiso   1.00
O23    O     0.50000  -0.00000   0.25000   0.00000  Uiso   1.00
O24    O     0.06399   0.39053   0.21539   0.00000  Uiso   1.00
O25    O     0.39053   0.93601   0.78461   0.00000  Uiso   1.00
O26    O     0.60947   0.06399   0.21539   0.00000  Uiso   1.00
O27    O     0.06399   0.39053   0.78461   0.00000  Uiso   1.00
O28    O     0.93601   0.60947   0.21539   0.00000  Uiso   1.00
O29    O     0.60947   0.06399   0.78461   0.00000  Uiso   1.00
O30    O     0.39053   0.93601   0.21539   0.00000  Uiso   1.00
O31    O     0.56399   0.10947   0.71539   0.00000  Uiso   1.00
O32    O     0.43601   0.89053   0.28461   0.00000  Uiso   1.00
O33    O     0.10947   0.43601   0.71539   0.00000  Uiso   1.00
O34    O     0.50000  -0.00000   0.75000   0.00000  Uiso   1.00
O35    O     0.89053   0.56399   0.28461   0.00000  Uiso   1.00
O36    O     0.43601   0.89053   0.71539   0.00000  Uiso   1.00
O37    O     0.56399   0.10947   0.28461   0.00000  Uiso   1.00
O38    O     0.89053   0.56399   0.71539   0.00000  Uiso   1.00
O39    O     0.10947   0.43601   0.28461   0.00000  Uiso   1.00
O40    O     0.43601   0.10947   0.28461   0.00000  Uiso   1.00
O41    O     0.56399   0.89053   0.71539   0.00000  Uiso   1.00
O42    O     0.89053   0.43601   0.28461   0.00000  Uiso   1.00
O43    O     0.10947   0.56399   0.71539   0.00000  Uiso   1.00
O44    O     0.56399   0.89053   0.28461   0.00000  Uiso   1.00
O45    O    -0.00000   0.45454   0.11798   0.00000  Uiso   1.00
O46    O     0.43601   0.10947   0.71539   0.00000  Uiso   1.00
O47    O     0.10947   0.56399   0.28461   0.00000  Uiso   1.00
O48    O     0.89053   0.43601   0.71539   0.00000  Uiso   1.00
O49    O     0.29513   0.33991   0.21705   0.00000  Uiso   1.00
O50    O     0.78761   0.74434   0.85587   0.00000  Uiso   1.00
O51    O     0.20768   0.83833   0.29560   0.00000  Uiso   1.00
O52    O     0.79527   0.16575   0.78272   0.00000  Uiso   1.00
O53    O     0.70484   0.66006   0.21718   0.00000  Uiso   1.00
O54    O     0.21239   0.25565   0.85587   0.00000  Uiso   1.00
O55    O     0.79235   0.16165   0.29550   0.00000  Uiso   1.00
O56    O    -0.00000   0.54546   0.88202   0.00000  Uiso   1.00
O57    O     0.20473   0.83425   0.78272   0.00000  Uiso   1.00
O58    O     0.78492   0.25936   0.85821   0.00000  Uiso   1.00
O59    O     0.21783   0.74010   0.35588   0.00000  Uiso   1.00
O60    O     0.68115   0.72494   0.82697   0.00000  Uiso   1.00
O61    O     0.28716   0.24594   0.14667   0.00000  Uiso   1.00
O62    O     0.21508   0.74064   0.85821   0.00000  Uiso   1.00
O63    O     0.78220   0.25984   0.35585   0.00000  Uiso   1.00
O64    O     0.31885   0.27506   0.82697   0.00000  Uiso   1.00
O65    O     0.71275   0.75397   0.14670   0.00000  Uiso   1.00
O66    O     0.77760   0.82462   0.67164   0.00000  Uiso   1.00
O67    O     0.45454  -0.00000   0.11798   0.00000  Uiso   1.00
O68    O     0.25774   0.21192   0.35812   0.00000  Uiso   1.00
O69    O     0.75191   0.28866   0.64729   0.00000  Uiso   1.00
O70    O     0.23552   0.72073   0.14138   0.00000  Uiso   1.00
O71    O     0.22240   0.17538   0.67164   0.00000  Uiso   1.00
O72    O     0.74235   0.78817   0.35809   0.00000  Uiso   1.00
O73    O     0.24809   0.71134   0.64729   0.00000  Uiso   1.00
O74    O     0.76444   0.27933   0.14136   0.00000  Uiso   1.00
O75    O     0.33291   0.71030   0.20105   0.00000  Uiso   1.00
O76    O     0.65775   0.29787   0.72361   0.00000  Uiso   1.00
O77    O     0.16384   0.20673   0.28909   0.00000  Uiso   1.00
O78    O     0.54546  -0.00000   0.88202   0.00000  Uiso   1.00
O79    O     0.76067   0.71915   0.64290   0.00000  Uiso   1.00
O80    O     0.66707   0.28972   0.20108   0.00000  Uiso   1.00
O81    O     0.34225   0.70213   0.72361   0.00000  Uiso   1.00
O82    O     0.83619   0.79331   0.28895   0.00000  Uiso   1.00
O83    O     0.23933   0.28085   0.64290   0.00000  Uiso   1.00
O84    O    -0.00000   0.54546   0.11798   0.00000  Uiso   1.00
Zn1    Zn    0.06497   0.50000   0.29947   0.00000  Uiso   1.00
Zn2    Zn    0.43503  -0.00000   0.20053   0.00000  Uiso   1.00
Zn3    Zn   -0.00000   0.43503   0.79947   0.00000  Uiso   1.00
Zn4    Zn   -0.00000   0.56497   0.20053   0.00000  Uiso   1.00
Zn5    Zn    0.43503  -0.00000   0.79947   0.00000  Uiso   1.00
Zn6    Zn    0.56497  -0.00000   0.20053   0.00000  Uiso   1.00
Zn7    Zn   -0.00000   0.56497   0.79947   0.00000  Uiso   1.00
Zn8    Zn    0.00000   0.43503   0.20053   0.00000  Uiso   1.00
Zn9    Zn    0.93503   0.50000   0.70053   0.00000  Uiso   1.00
Zn10   Zn    0.50000   0.93503   0.29947   0.00000  Uiso   1.00
Zn11   Zn    0.50000   0.06497   0.70053   0.00000  Uiso   1.00
Zn12   Zn    0.93503   0.50000   0.29947   0.00000  Uiso   1.00
Zn13   Zn    0.06497   0.50000   0.70053   0.00000  Uiso   1.00
Zn14   Zn    0.50000   0.06497   0.29947   0.00000  Uiso   1.00
Zn15   Zn    0.50000   0.93503   0.70053   0.00000  Uiso   1.00
Zn16   Zn    0.56497  -0.00000   0.79947   0.00000  Uiso   1.00
loop_
_geom_bond_atom_site_label_1
_geom_bond_atom_site_label_2
_geom_bond_distance
_geom_bond_site_symmetry_2
_ccdc_geom_bond_type
C1     C198    1.410   .     A
C1     C169    1.414   .     A
C1     C24     1.477   .     S
C2     C190    1.409   .     A
C2     C148    1.483   .     S
C2     C179    1.409   .     A
C3     C111    1.526   .     S
C3     C190    1.407   .     A
C3     C27     1.421   .     A
C4     C191    1.404   .     A
C4     C32     1.414   .     A
C4     C115    1.523   .     S
C5     C33     1.417   .     A
C5     C193    1.406   .     A
C5     C117    1.524   .     S
C6     C30     1.429   .     A
C6     C194    1.408   .     A
C6     C119    1.531   .     S
C7     C121    1.526   .     S
C7     C195    1.407   .     A
C7     C31     1.421   .     A
C8     C123    1.521   .     S
C8     C196    1.407   .     A
C8     C19     1.414   .     A
C9     C197    1.405   .     A
C9     C20     1.429   .     A
C9     C126    1.525   .     S
C10    C128    1.522   .     S
C10    C17     1.416   .     A
C10    C198    1.406   .     A
C11    C18     1.424   .     A
C11    C130    1.529   .     S
C11    C199    1.408   .     A
C12    C23     1.414   .     A
C12    C132    1.521   .     S
C12    C200    1.407   .     A
C13    C112    1.479   .     S
C13    C187    1.412   .     A
C13    C180    1.413   .     A
C14    C201    1.405   .     A
C14    C25     1.429   .     A
C14    C134    1.525   .     S
C15    C137    1.522   .     S
C15    C202    1.406   .     A
C15    C21     1.416   .     A
C16    C204    1.408   .     A
C16    C22     1.424   .     A
C16    C139    1.529   .     S
C17    C205    1.417   .     A
C17    C162    1.465   .     S
C18    C161    1.475   .     S
C18    C206    1.423   .     A
C19    C168    1.466   .     S
C19    C207    1.416   .     A
C20    C167    1.482   .     S
C20    C208    1.430   .     A
C21    C166    1.465   .     S
C21    C209    1.417   .     A
C22    C210    1.423   .     A
C22    C165    1.475   .     S
C23    C211    1.416   .     A
C23    C164    1.467   .     S
C24    C188    1.413   .     A
C24    C182    1.410   .     A
C25    C163    1.482   .     S
C25    C212    1.430   .     A
C26    C224    1.429   .     A
C26    C213    1.427   .     A
C26    C153    1.475   .     S
C27    C152    1.473   .     S
C27    C215    1.422   .     A
C28    C216    1.413   .     A
C28    C222    1.414   .     A
C28    C160    1.455   .     S
C29    C158    1.466   .     S
C29    C223    1.417   .     A
C29    C217    1.418   .     A
C30    C218    1.427   .     A
C30    C157    1.475   .     S
C31    C156    1.473   .     S
C31    C219    1.422   .     A
C32    C155    1.455   .     S
C32    C220    1.413   .     A
C33    C221    1.418   .     A
C33    C154    1.466   .     S
C34    H1      1.109   .     S
C34    H112    1.114   .     S
C34    H180    1.109   .     S
C34    O49     1.412   .     S
C35    C183    1.405   .     A
C35    C194    1.405   .     A
C35    C203    1.465   .     S
C36    O50     1.412   .     S
C36    H202    1.115   .     S
C36    H213    1.109   .     S
C36    H191    1.109   .     S
C37    O51     1.412   .     S
C37    H235    1.114   .     S
C37    H224    1.109   .     S
C37    H246    1.109   .     S
C38    H2      1.108   .     S
C38    H24     1.109   .     S
C38    O52     1.412   .     S
C38    H13     1.114   .     S
C39    O53     1.412   .     S
C39    H46     1.109   .     S
C39    H35     1.109   .     S
C39    H57     1.114   .     S
C40    O54     1.412   .     S
C40    H79     1.115   .     S
C40    H90     1.109   .     S
C40    H68     1.109   .     S
C41    H113    1.114   .     S
C41    H101    1.109   .     S
C41    H124    1.109   .     S
C41    O55     1.412   .     S
C42    H157    1.109   .     S
C42    O57     1.412   .     S
C42    H135    1.108   .     S
C42    H146    1.114   .     S
C43    O58     1.411   .     S
C43    H176    1.114   .     S
C43    H177    1.109   .     S
C43    H168    1.108   .     S
C44    H181    1.109   .     S
C44    H178    1.110   .     S
C44    H179    1.115   .     S
C44    O59     1.410   .     S
C45    H184    1.109   .     S
C45    H183    1.115   .     S
C45    H182    1.110   .     S
C45    O60     1.411   .     S
C46    C192    1.483   .     S
C46    C195    1.409   .     A
C46    C184    1.409   .     A
C47    O61     1.411   .     S
C47    H187    1.109   .     S
C47    H185    1.110   .     S
C47    H186    1.115   .     S
C48    O62     1.411   .     S
C48    H188    1.108   .     S
C48    H189    1.114   .     S
C48    H190    1.109   .     S
C49    H192    1.110   .     S
C49    H194    1.109   .     S
C49    O63     1.410   .     S
C49    H193    1.115   .     S
C50    O64     1.411   .     S
C50    H195    1.110   .     S
C50    H196    1.115   .     S
C50    H197    1.109   .     S
C51    O65     1.411   .     S
C51    H200    1.109   .     S
C51    H198    1.110   .     S
C51    H199    1.115   .     S
C52    O66     1.410   .     S
C52    H201    1.109   .     S
C52    H203    1.114   .     S
C52    H204    1.109   .     S
C53    H206    1.115   .     S
C53    H205    1.109   .     S
C53    H207    1.109   .     S
C53    O68     1.412   .     S
C54    H209    1.113   .     S
C54    O69     1.411   .     S
C54    H208    1.108   .     S
C54    H210    1.109   .     S
C55    H211    1.109   .     S
C55    H214    1.109   .     S
C55    H212    1.115   .     S
C55    O70     1.410   .     S
C56    H217    1.114   .     S
C56    H215    1.109   .     S
C56    H216    1.109   .     S
C56    O71     1.410   .     S
C57    C185    1.413   .     A
C57    C191    1.412   .     A
C57    C181    1.479   .     S
C58    H220    1.109   .     S
C58    H218    1.109   .     S
C58    O72     1.412   .     S
C58    H219    1.115   .     S
C59    H222    1.113   .     S
C59    O73     1.411   .     S
C59    H223    1.109   .     S
C59    H221    1.108   .     S
C60    H226    1.115   .     S
C60    O74     1.410   .     S
C60    H225    1.109   .     S
C60    H227    1.109   .     S
C61    H229    1.115   .     S
C61    H228    1.110   .     S
C61    H230    1.109   .     S
C61    O75     1.410   .     S
C62    H232    1.114   .     S
C62    H233    1.109   .     S
C62    O76     1.411   .     S
C62    H231    1.108   .     S
C63    O77     1.410   .     S
C63    H237    1.109   .     S
C63    H236    1.115   .     S
C63    H234    1.110   .     S
C64    H238    1.110   .     S
C64    H240    1.109   .     S
C64    O79     1.410   .     S
C64    H239    1.114   .     S
C65    H242    1.115   .     S
C65    H241    1.110   .     S
C65    H243    1.109   .     S
C65    O80     1.410   .     S
C66    H244    1.108   .     S
C66    H247    1.109   .     S
C66    H245    1.114   .     S
C66    O81     1.411   .     S
C67    H249    1.115   .     S
C67    H250    1.109   .     S
C67    H248    1.110   .     S
C67    O82     1.410   .     S
C68    C193    1.413   .     A
C68    C186    1.410   .     A
C68    C170    1.477   .     S
C69    H251    1.110   .     S
C69    H253    1.109   .     S
C69    H252    1.114   .     S
C69    O83     1.410   .     S
C70    H4      1.110   .     S
C70    C205    1.523   .     S
C70    C71     1.528   .     S
C70    H3      1.111   .     S
C71    H256    1.107   .     S
C71    H254    1.109   .     S
C71    H255    1.109   .     S
C72    C206    1.524   .     S
C72    C73     1.529   .     S
C72    H8      1.112   .     S
C72    H9      1.110   .     S
C73    H5      1.110   .     S
C73    H7      1.108   .     S
C73    H6      1.110   .     S
C74    H14     1.111   .     S
C74    C207    1.523   .     S
C74    H15     1.111   .     S
C74    C75     1.527   .     S
C75    H12     1.108   .     S
C75    H11     1.109   .     S
C75    H10     1.111   1_565 S
C76    C208    1.523   .     S
C76    H19     1.102   .     S
C76    H20     1.109   .     S
C76    C77     1.528   .     S
C77    H17     1.110   .     S
C77    H16     1.110   .     S
C77    H18     1.111   .     S
C78    H26     1.110   .     S
C78    C80     1.528   .     S
C78    H25     1.111   .     S
C78    C209    1.523   .     S
C79    C90     1.196   .     T
C79    C151    1.418   .     S
C80    H23     1.107   .     S
C80    H22     1.109   .     S
C80    H21     1.109   .     S
C81    H31     1.110   .     S
C81    C210    1.524   .     S
C81    C82     1.529   .     S
C81    H30     1.112   .     S
C82    H28     1.110   .     S
C82    H29     1.108   .     S
C82    H27     1.110   .     S
C83    H36     1.111   .     S
C83    C84     1.527   .     S
C83    H37     1.111   .     S
C83    C211    1.523   .     S
C84    H32     1.108   .     S
C84    H33     1.109   .     S
C84    H34     1.111   1_545 S
C85    H42     1.109   .     S
C85    C86     1.528   .     S
C85    H41     1.102   .     S
C85    C212    1.523   .     S
C86    H40     1.111   .     S
C86    H38     1.110   .     S
C86    H39     1.110   .     S
C87    H48     1.109   .     S
C87    C88     1.528   .     S
C87    H47     1.108   .     S
C87    C213    1.525   .     S
C88    H44     1.110   .     S
C88    H45     1.110   .     S
C88    H43     1.110   .     S
C89    C91     1.526   .     S
C89    H53     1.109   .     S
C89    H52     1.108   .     S
C89    C215    1.525   .     S
C90    C150    1.418   .     S
C91    H51     1.110   .     S
C91    H49     1.111   .     S
C91    H50     1.109   .     S
C92    H59     1.110   .     S
C92    H58     1.110   .     S
C92    C93     1.526   .     S
C92    C216    1.521   .     S
C93    H55     1.111   .     S
C93    H54     1.111   .     S
C93    H56     1.110   .     S
C94    H63     1.108   .     S
C94    C217    1.524   .     S
C94    H64     1.109   .     S
C94    C95     1.525   .     S
C95    H62     1.110   .     S
C95    H61     1.109   .     S
C95    H60     1.111   .     S
C96    H69     1.108   .     S
C96    H70     1.109   .     S
C96    C97     1.528   .     S
C96    C218    1.525   .     S
C97    H65     1.110   .     S
C97    H67     1.110   .     S
C97    H66     1.110   .     S
C98    C99     1.526   .     S
C98    H75     1.109   .     S
C98    C219    1.525   .     S
C98    H74     1.108   .     S
C99    H72     1.109   .     S
C99    H73     1.110   .     S
C99    H71     1.111   .     S
C100   H80     1.110   .     S
C100   H81     1.110   .     S
C100   C220    1.521   .     S
C100   C102    1.526   .     S
C101   C149    1.418   .     S
C101   C113    1.196   .     S
C102   H78     1.110   .     S
C102   H76     1.111   .     S
C102   H77     1.111   .     S
C103   C221    1.524   .     S
C103   H85     1.108   .     S
C103   C104    1.525   .     S
C103   H86     1.109   .     S
C104   H83     1.109   .     S
C104   H82     1.111   .     S
C104   H84     1.110   .     S
C105   C222    1.523   .     S
C105   H92     1.111   .     S
C105   C106    1.525   .     S
C105   H91     1.111   .     S
C106   H87     1.110   .     S
C106   H89     1.110   .     S
C106   H88     1.106   .     S
C107   C108    1.528   .     S
C107   H97     1.110   .     S
C107   H96     1.111   .     S
C107   C223    1.524   .     S
C108   H93     1.111   .     S
C108   H95     1.108   .     S
C108   H94     1.109   .     S
C109   H102    1.109   .     S
C109   C110    1.531   .     S
C109   H103    1.107   .     S
C109   C224    1.531   .     S
C110   H100    1.110   .     S
C110   H98     1.111   .     S
C110   H99     1.108   .     S
C111   H107    1.104   .     S
C111   C114    1.527   .     S
C111   H108    1.111   .     S
C112   C171    1.410   .     A
C112   C199    1.409   .     A
C113   C147    1.418   .     S
C114   H104    1.109   .     S
C114   H106    1.110   .     S
C114   H105    1.110   .     S
C115   C116    1.525   .     S
C115   H114    1.111   .     S
C115   H115    1.111   .     S
C116   H109    1.110   .     S
C116   H111    1.110   .     S
C116   H110    1.106   .     S
C117   H120    1.110   .     S
C117   C118    1.528   .     S
C117   H119    1.111   .     S
C118   H118    1.108   .     S
C118   H116    1.111   .     S
C118   H117    1.109   .     S
C119   H126    1.107   .     S
C119   H125    1.109   .     S
C119   C120    1.531   .     S
C120   H121    1.110   .     S
C120   H123    1.111   .     S
C120   H122    1.108   .     S
C121   H131    1.111   .     S
C121   H130    1.104   .     S
C121   C122    1.528   .     S
C122   H127    1.109   .     S
C122   H128    1.111   .     S
C122   H129    1.110   .     S
C123   C125    1.526   .     S
C123   H137    1.110   .     S
C123   H136    1.109   .     S
C124   C135    1.196   1_556 S
C124   C146    1.418   .     S
C125   H133    1.110   .     S
C125   H134    1.109   .     S
C125   H132    1.111   .     S
C126   C127    1.528   .     S
C126   H141    1.108   .     S
C126   H142    1.109   .     S
C127   H139    1.109   .     S
C127   H138    1.110   .     S
C127   H140    1.110   .     S
C128   C129    1.526   .     S
C128   H148    1.110   .     S
C128   H147    1.108   .     S
C129   H145    1.109   .     S
C129   H144    1.110   .     S
C129   H143    1.111   .     S
C130   H152    1.107   .     S
C130   C131    1.529   .     S
C130   H153    1.109   .     S
C131   H151    1.111   .     S
C131   H149    1.111   .     S
C131   H150    1.108   .     S
C132   H158    1.109   .     S
C132   C133    1.526   .     S
C132   H159    1.110   .     S
C133   H154    1.111   .     S
C133   H156    1.109   .     S
C133   H155    1.110   .     S
C134   H163    1.108   .     S
C134   H164    1.109   .     S
C134   C136    1.528   .     S
C135   C145    1.418   .     S
C135   C124    1.196   1_554 S
C136   H161    1.109   .     S
C136   H162    1.110   .     S
C136   H160    1.110   .     S
C137   H170    1.110   .     S
C137   C138    1.526   .     S
C137   H169    1.108   .     S
C138   H166    1.110   .     S
C138   H167    1.109   .     S
C138   H165    1.111   .     S
C139   C140    1.529   .     S
C139   H174    1.107   .     S
C139   H175    1.109   .     S
C140   H171    1.111   .     S
C140   H173    1.111   .     S
C140   H172    1.108   .     S
C141   C144    1.418   .     S
C141   C142    1.196   1_556 S
C142   C143    1.418   .     S
C142   C141    1.196   1_554 S
C143   O45     1.277   .     A
C143   O84     1.277   .     A
C144   O2      1.277   .     S
C144   O56     1.277   .     S
C145   O3      1.276   .     A
C145   O67     1.276   .     A
C146   O78     1.276   .     A
C146   O4      1.276   .     A
C147   O5      1.277   1_545 A
C147   O9      1.277   .     S
C148   C196    1.412   .     A
C148   C172    1.415   .     A
C149   O10     1.277   1_545 A
C149   O6      1.277   .     S
C150   O11     1.276   .     A
C150   O7      1.276   1_455 S
C151   O13     1.276   1_455 A
C151   O8      1.276   .     S
C152   O14     1.276   .     A
C152   O47     1.275   .     A
C153   O48     1.276   .     A
C153   O15     1.278   .     A
C154   O44     1.276   .     A
C154   O16     1.274   .     A
C155   O17     1.274   .     A
C155   O46     1.270   .     A
C156   O18     1.276   .     A
C156   O42     1.275   .     A
C157   O19     1.278   .     A
C157   O43     1.276   .     A
C158   O40     1.276   .     A
C158   O20     1.274   .     A
C159   C214    1.465   .     S
C159   C197    1.405   .     A
C159   C173    1.404   .     A
C160   O21     1.274   .     A
C160   O41     1.270   .     A
C161   O22     1.277   .     A
C161   O38     1.278   .     A
C162   O24     1.276   .     A
C162   O39     1.273   .     A
C163   O25     1.277   .     A
C163   O36     1.280   .     A
C164   O26     1.272   .     A
C164   O37     1.275   .     A
C165   O27     1.277   .     A
C165   O33     1.278   .     A
C166   O28     1.276   .     A
C166   O35     1.273   .     A
C167   O31     1.280   .     A
C167   O29     1.277   .     A
C168   O30     1.272   .     A
C168   O32     1.275   .     A
C169   C205    1.406   .     A
C169   O49     1.388   .     S
C170   C174    1.414   .     A
C170   C202    1.410   .     A
C171   C206    1.404   .     A
C171   O50     1.387   .     S
C172   C207    1.408   .     A
C172   O51     1.387   .     S
C173   O52     1.389   .     S
C173   C208    1.404   .     A
C174   C209    1.406   .     A
C174   O53     1.388   .     S
C175   C210    1.404   .     A
C175   O54     1.387   .     S
C175   C181    1.410   .     A
C176   C211    1.408   .     A
C176   O55     1.387   .     S
C176   C192    1.415   .     A
C177   O57     1.389   .     S
C177   C212    1.404   .     A
C177   C203    1.404   .     A
C178   C213    1.403   .     A
C178   C214    1.405   .     A
C178   O58     1.389   .     S
C179   O59     1.386   .     S
C179   C215    1.410   .     A
C180   O60     1.386   .     S
C180   C216    1.405   .     A
C181   C204    1.409   .     A
C182   O61     1.386   .     S
C182   C217    1.407   .     A
C183   O62     1.389   .     S
C183   C218    1.403   .     A
C184   O63     1.386   .     S
C184   C219    1.410   .     A
C185   C220    1.405   .     A
C185   O64     1.386   .     S
C186   O65     1.386   .     S
C186   C221    1.407   .     A
C187   O66     1.386   .     S
C187   C222    1.404   .     A
C188   O68     1.388   .     S
C188   C223    1.406   .     A
C189   C224    1.408   .     A
C189   O69     1.388   .     S
C189   C214    1.405   .     A
C190   O70     1.386   .     S
C191   O71     1.386   .     S
C192   C200    1.412   .     A
C193   O72     1.388   .     S
C194   O73     1.388   .     S
C195   O74     1.386   .     S
C196   O75     1.386   .     S
C197   O76     1.388   .     S
C198   O77     1.386   .     S
C199   O79     1.385   .     S
C200   O80     1.386   .     S
C201   O81     1.388   .     S
C201   C203    1.405   .     A
C202   O82     1.386   .     S
C204   O83     1.385   .     S
H10    C75     1.111   1_545 S
H34    C84     1.111   1_565 S
O1     Zn8     1.939   .     S
O1     Zn1     1.937   .     S
O1     Zn4     1.939   .     S
O1     Zn12    1.937   1_455 S
O2     Zn3     1.909   .     S
O3     Zn6     1.908   .     S
O4     Zn5     1.908   .     S
O5     C147    1.277   1_565 A
O5     Zn15    1.909   .     S
O6     Zn14    1.909   .     S
O7     Zn9     1.908   .     S
O7     C150    1.276   1_655 S
O8     Zn1     1.908   .     S
O9     Zn11    1.909   .     S
O10    Zn10    1.909   .     S
O10    C149    1.277   1_565 A
O11    Zn13    1.908   .     S
O12    Zn3     1.939   .     S
O12    Zn7     1.939   .     S
O12    Zn9     1.937   1_455 S
O12    Zn13    1.937   .     S
O13    C151    1.276   1_655 A
O13    Zn12    1.908   .     S
O14    Zn4     1.940   .     S
O15    Zn3     1.940   1_655 S
O16    Zn6     1.935   1_565 S
O17    Zn5     1.935   .     S
O18    Zn8     1.940   1_655 S
O19    Zn7     1.940   .     S
O20    Zn2     1.935   .     S
O21    Zn16    1.935   1_565 S
O22    Zn7     1.934   1_655 S
O23    Zn6     1.937   .     S
O23    Zn10    1.939   1_545 S
O23    Zn2     1.937   .     S
O23    Zn14    1.939   .     S
O24    Zn8     1.934   .     S
O25    Zn5     1.941   1_565 S
O26    Zn6     1.941   .     S
O27    Zn3     1.934   .     S
O28    Zn4     1.934   1_655 S
O29    Zn16    1.941   .     S
O30    Zn2     1.941   1_565 S
O31    Zn11    1.940   .     S
O32    Zn10    1.940   .     S
O33    Zn13    1.935   .     S
O34    Zn15    1.939   1_545 S
O34    Zn5     1.937   .     S
O34    Zn16    1.937   .     S
O34    Zn11    1.939   .     S
O35    Zn12    1.935   .     S
O36    Zn15    1.940   .     S
O37    Zn14    1.940   .     S
O38    Zn9     1.935   .     S
O39    Zn1     1.935   .     S
O40    Zn14    1.934   .     S
O41    Zn15    1.934   .     S
O42    Zn12    1.941   .     S
O43    Zn13    1.941   .     S
O44    Zn10    1.934   .     S
O45    Zn8     1.909   .     S
O46    Zn11    1.934   .     S
O47    Zn1     1.941   .     S
O48    Zn9     1.941   .     S
O56    Zn7     1.909   .     S
O67    Zn2     1.908   .     S
O78    Zn16    1.908   .     S
O84    Zn4     1.909   .     S
Zn2    O30     1.941   1_545 S
Zn3    O15     1.940   1_455 S
Zn4    O28     1.934   1_455 S
Zn5    O25     1.941   1_545 S
Zn6    O16     1.935   1_545 S
Zn7    O22     1.934   1_455 S
Zn8    O18     1.940   1_455 S
Zn9    O12     1.937   1_655 S
Zn10   O23     1.939   1_565 S
Zn12   O1      1.937   1_655 S
Zn15   O34     1.939   1_565 S
Zn16   O21     1.935   1_545 S
