data_str_m1_o10_o16_pcu_sym.260
_audit_creation_date              2020-01-03
_audit_creation_method            'Materials Studio'
_symmetry_space_group_name_H-M    'P1'
_symmetry_Int_Tables_number       1
_symmetry_cell_setting            triclinic
loop_
_symmetry_equiv_pos_as_xyz
  x,y,z
_cell_length_a                    32.6376
_cell_length_b                    32.5000
_cell_length_c                    31.0289
_cell_angle_alpha                 96.3090
_cell_angle_beta                  74.6398
_cell_angle_gamma                 98.6233
loop_
_atom_site_label
_atom_site_type_symbol
_atom_site_fract_x
_atom_site_fract_y
_atom_site_fract_z
_atom_site_U_iso_or_equiv
_atom_site_adp_type
_atom_site_occupancy
C1     C     0.05308   0.15982   0.25962   0.00000  Uiso   1.00
C2     C     0.17429   0.16573   0.06011   0.00000  Uiso   1.00
C3     C     0.21976   0.11179   0.05619   0.00000  Uiso   1.00
C4     C     0.28077   0.17404   0.24029   0.00000  Uiso   1.00
C5     C     0.14441   0.19589   0.41951   0.00000  Uiso   1.00
C6     C     0.32658   0.17797   0.23775   0.00000  Uiso   1.00
C7     C     0.00769   0.15632   0.26422   0.00000  Uiso   1.00
C8     C     0.18089   0.32302   0.23572   0.00000  Uiso   1.00
C9     C     0.15223   0.01175   0.26380   0.00000  Uiso   1.00
C10    C     0.15562   0.05596   0.26076   0.00000  Uiso   1.00
C11    C     0.17674   0.27803   0.23997   0.00000  Uiso   1.00
C12    C     0.09610   0.21761   0.48917   0.00000  Uiso   1.00
C13    C     0.18549   0.14806   0.12948   0.00000  Uiso   1.00
C14    C     0.15026   0.18617   0.37065   0.00000  Uiso   1.00
C15    C     0.22950   0.11057   0.00965   0.00000  Uiso   1.00
C16    C     0.19315   0.14103   0.08129   0.00000  Uiso   1.00
C17    C     0.10886   0.21566   0.44288   0.00000  Uiso   1.00
C18    C     0.24471   0.08785   0.38517   0.00000  Uiso   1.00
C19    C     0.21844   0.04876   0.40690   0.00000  Uiso   1.00
C20    C     0.20316   0.01750   0.37218   0.00000  Uiso   1.00
C21    C     0.06844   0.16145   0.06788   0.00000  Uiso   1.00
C22    C     0.02408   0.17505   0.08871   0.00000  Uiso   1.00
C23    C     0.11728   0.19850   0.01353   0.00000  Uiso   1.00
C24    C     0.32457   0.13831   0.10649   0.00000  Uiso   1.00
C25    C     0.25369   0.22439   0.39077   0.00000  Uiso   1.00
C26    C     0.28379   0.24011   0.34745   0.00000  Uiso   1.00
C27    C     0.30539   0.28433   0.35512   0.00000  Uiso   1.00
C28    C     0.02324   0.24450   0.22339   0.00000  Uiso   1.00
C29    C     0.06048   0.27044   0.19307   0.00000  Uiso   1.00
C30    C     0.06278   0.31655   0.20945   0.00000  Uiso   1.00
C31    C     0.15590   0.18112   0.49126   0.00000  Uiso   1.00
C32    C     0.17049   0.18199   0.44378   0.00000  Uiso   1.00
C33    C     0.17970   0.16113   0.01358   0.00000  Uiso   1.00
C34    C     0.21113   0.13604   0.48807   0.00000  Uiso   1.00
C35    C     0.22564   0.13866   0.44169   0.00000  Uiso   1.00
C36    C     0.21054   0.16794   0.42202   0.00000  Uiso   1.00
H37    H     0.12614   0.33088   0.28957   0.00000  Uiso   1.00
H38    H     0.22645   0.10156   0.36583   0.00000  Uiso   1.00
H39    H     0.23848   0.03378   0.42297   0.00000  Uiso   1.00
H40    H     0.18996   0.05748   0.43312   0.00000  Uiso   1.00
H41    H     0.23076   0.00886   0.34471   0.00000  Uiso   1.00
H42    H     0.18598   0.32214   0.38838   0.00000  Uiso   1.00
H43    H     0.18092   0.03110   0.35777   0.00000  Uiso   1.00
H44    H     0.07718   0.14418   0.09245   0.00000  Uiso   1.00
H45    H     0.06715   0.13911   0.03801   0.00000  Uiso   1.00
H46    H     0.02580   0.19908   0.11676   0.00000  Uiso   1.00
H47    H     0.01339   0.18904   0.06309   0.00000  Uiso   1.00
H48    H     0.25216   0.09003   0.49048   0.00000  Uiso   1.00
H49    H     0.32242   0.11373   0.07905   0.00000  Uiso   1.00
H50    H     0.29265   0.14911   0.12037   0.00000  Uiso   1.00
H51    H     0.00032   0.12497   0.13361   0.00000  Uiso   1.00
H52    H     0.27234   0.22603   0.41642   0.00000  Uiso   1.00
H53    H     0.22803   0.24511   0.40266   0.00000  Uiso   1.00
H54    H     0.30888   0.21907   0.33440   0.00000  Uiso   1.00
H55    H     0.26533   0.23976   0.32197   0.00000  Uiso   1.00
H56    H     0.32610   0.28478   0.37844   0.00000  Uiso   1.00
H57    H     0.28101   0.30585   0.36946   0.00000  Uiso   1.00
H58    H     0.32559   0.29552   0.32276   0.00000  Uiso   1.00
H59    H     0.15744   0.18985   0.08074   0.00000  Uiso   1.00
H60    H     0.02834   0.24821   0.25783   0.00000  Uiso   1.00
H61    H     0.32615   0.25651   0.22419   0.00000  Uiso   1.00
H62    H     0.09102   0.25894   0.19262   0.00000  Uiso   1.00
H63    H     0.05647   0.26687   0.15833   0.00000  Uiso   1.00
H64    H     0.03324   0.32912   0.20845   0.00000  Uiso   1.00
H65    H     0.09076   0.00103   0.18746   0.00000  Uiso   1.00
H66    H     0.06646   0.32083   0.24429   0.00000  Uiso   1.00
H67    H     0.08928   0.22791   0.42530   0.00000  Uiso   1.00
H68    H     0.06769   0.23192   0.00631   0.00000  Uiso   1.00
H69    H     0.22772   0.08817   0.10825   0.00000  Uiso   1.00
H70    H     0.33108   0.11803   0.31081   0.00000  Uiso   1.00
H71    H     0.23187   0.32246   0.18576   0.00000  Uiso   1.00
H72    H     0.27349   0.07791   0.36044   0.00000  Uiso   1.00
O73    O     0.16667   0.16667   0.25000   0.00000  Uiso   1.00
O74    O     0.15451   0.12637   0.15459   0.00000  Uiso   1.00
O75    O     0.12940   0.20391   0.34968   0.00000  Uiso   1.00
O76    O     0.20824   0.17759   0.14606   0.00000  Uiso   1.00
O77    O     0.17451   0.15880   0.34968   0.00000  Uiso   1.00
O78    O     0.23835   0.08542   0.07524   0.00000  Uiso   1.00
O79    O     0.31370   0.13054   0.29507   0.00000  Uiso   1.00
O80    O     0.21350   0.00977   0.20364   0.00000  Uiso   1.00
O81    O     0.25901   0.11717   0.41713   0.00000  Uiso   1.00
O82    O     0.09911   0.19726   0.05901   0.00000  Uiso   1.00
O83    O     0.23604   0.18285   0.38221   0.00000  Uiso   1.00
O84    O     0.17930   0.08019   0.28214   0.00000  Uiso   1.00
O85    O     0.02202   0.20236   0.20627   0.00000  Uiso   1.00
O86    O     0.14632   0.26085   0.27014   0.00000  Uiso   1.00
O87    O     0.07412   0.13291   0.23413   0.00000  Uiso   1.00
O88    O     0.26693   0.19272   0.21361   0.00000  Uiso   1.00
O89    O     0.07071   0.18878   0.28213   0.00000  Uiso   1.00
O90    O     0.25491   0.15226   0.27014   0.00000  Uiso   1.00
O91    O     0.13760   0.06944   0.23413   0.00000  Uiso   1.00
O92    O     0.20345   0.25620   0.21361   0.00000  Uiso   1.00
Zn93   Zn    0.19338   0.13994   0.28734   0.00000  Uiso   1.00
Zn94   Zn    0.13379   0.12458   0.21876   0.00000  Uiso   1.00
Zn95   Zn    0.21056   0.19775   0.20657   0.00000  Uiso   1.00
Zn96   Zn    0.12893   0.20439   0.28734   0.00000  Uiso   1.00
C97    C     0.38641   0.15982   0.25962   0.00000  Uiso   1.00
C98    C     0.50763   0.16573   0.06011   0.00000  Uiso   1.00
C99    C     0.55309   0.11179   0.05619   0.00000  Uiso   1.00
C100   C     0.61411   0.17404   0.24029   0.00000  Uiso   1.00
C101   C     0.47775   0.19589   0.41951   0.00000  Uiso   1.00
C102   C     0.65992   0.17797   0.23775   0.00000  Uiso   1.00
C103   C     0.34103   0.15632   0.26422   0.00000  Uiso   1.00
C104   C     0.51422   0.32302   0.23572   0.00000  Uiso   1.00
C105   C     0.48557   0.01175   0.26380   0.00000  Uiso   1.00
C106   C     0.48895   0.05596   0.26076   0.00000  Uiso   1.00
C107   C     0.51007   0.27803   0.23997   0.00000  Uiso   1.00
C108   C     0.42943   0.21761   0.48917   0.00000  Uiso   1.00
C109   C     0.51883   0.14806   0.12948   0.00000  Uiso   1.00
C110   C     0.48359   0.18617   0.37065   0.00000  Uiso   1.00
C111   C     0.56283   0.11057   0.00965   0.00000  Uiso   1.00
C112   C     0.52648   0.14103   0.08129   0.00000  Uiso   1.00
C113   C     0.44220   0.21566   0.44288   0.00000  Uiso   1.00
C114   C     0.57804   0.08785   0.38517   0.00000  Uiso   1.00
C115   C     0.55178   0.04876   0.40690   0.00000  Uiso   1.00
C116   C     0.53649   0.01750   0.37218   0.00000  Uiso   1.00
C117   C     0.40177   0.16145   0.06788   0.00000  Uiso   1.00
C118   C     0.35742   0.17505   0.08871   0.00000  Uiso   1.00
C119   C     0.45062   0.19850   0.01353   0.00000  Uiso   1.00
C120   C     0.65790   0.13831   0.10649   0.00000  Uiso   1.00
C121   C     0.58702   0.22439   0.39077   0.00000  Uiso   1.00
C122   C     0.61712   0.24011   0.34745   0.00000  Uiso   1.00
C123   C     0.63873   0.28433   0.35512   0.00000  Uiso   1.00
C124   C     0.35657   0.24450   0.22339   0.00000  Uiso   1.00
C125   C     0.39381   0.27044   0.19307   0.00000  Uiso   1.00
C126   C     0.39611   0.31655   0.20945   0.00000  Uiso   1.00
C127   C     0.48923   0.18112   0.49126   0.00000  Uiso   1.00
C128   C     0.50383   0.18199   0.44378   0.00000  Uiso   1.00
C129   C     0.51303   0.16113   0.01358   0.00000  Uiso   1.00
C130   C     0.54447   0.13604   0.48807   0.00000  Uiso   1.00
C131   C     0.55897   0.13866   0.44169   0.00000  Uiso   1.00
C132   C     0.54387   0.16794   0.42202   0.00000  Uiso   1.00
H133   H     0.45947   0.33088   0.28957   0.00000  Uiso   1.00
H134   H     0.55978   0.10156   0.36583   0.00000  Uiso   1.00
H135   H     0.57181   0.03378   0.42297   0.00000  Uiso   1.00
H136   H     0.52329   0.05748   0.43312   0.00000  Uiso   1.00
H137   H     0.56409   0.00886   0.34471   0.00000  Uiso   1.00
H138   H     0.51931   0.32214   0.38838   0.00000  Uiso   1.00
H139   H     0.51426   0.03110   0.35777   0.00000  Uiso   1.00
H140   H     0.41051   0.14418   0.09245   0.00000  Uiso   1.00
H141   H     0.40049   0.13911   0.03801   0.00000  Uiso   1.00
H142   H     0.35913   0.19908   0.11676   0.00000  Uiso   1.00
H143   H     0.34673   0.18904   0.06309   0.00000  Uiso   1.00
H144   H     0.58549   0.09003   0.49048   0.00000  Uiso   1.00
H145   H     0.65576   0.11373   0.07905   0.00000  Uiso   1.00
H146   H     0.62599   0.14911   0.12037   0.00000  Uiso   1.00
H147   H     0.33365   0.12497   0.13361   0.00000  Uiso   1.00
H148   H     0.60568   0.22603   0.41642   0.00000  Uiso   1.00
H149   H     0.56136   0.24511   0.40266   0.00000  Uiso   1.00
H150   H     0.64221   0.21907   0.33440   0.00000  Uiso   1.00
H151   H     0.59867   0.23976   0.32197   0.00000  Uiso   1.00
H152   H     0.65943   0.28478   0.37844   0.00000  Uiso   1.00
H153   H     0.61435   0.30585   0.36946   0.00000  Uiso   1.00
H154   H     0.65892   0.29552   0.32276   0.00000  Uiso   1.00
H155   H     0.49078   0.18985   0.08074   0.00000  Uiso   1.00
H156   H     0.36168   0.24821   0.25783   0.00000  Uiso   1.00
H157   H     0.65948   0.25651   0.22419   0.00000  Uiso   1.00
H158   H     0.42436   0.25894   0.19262   0.00000  Uiso   1.00
H159   H     0.38981   0.26687   0.15833   0.00000  Uiso   1.00
H160   H     0.36657   0.32912   0.20845   0.00000  Uiso   1.00
H161   H     0.42409   0.00103   0.18746   0.00000  Uiso   1.00
H162   H     0.39979   0.32083   0.24429   0.00000  Uiso   1.00
H163   H     0.42261   0.22791   0.42530   0.00000  Uiso   1.00
H164   H     0.40102   0.23192   0.00631   0.00000  Uiso   1.00
H165   H     0.56106   0.08817   0.10825   0.00000  Uiso   1.00
H166   H     0.66441   0.11803   0.31081   0.00000  Uiso   1.00
H167   H     0.56520   0.32246   0.18576   0.00000  Uiso   1.00
H168   H     0.60682   0.07791   0.36044   0.00000  Uiso   1.00
O169   O     0.50000   0.16667   0.25000   0.00000  Uiso   1.00
O170   O     0.48784   0.12637   0.15459   0.00000  Uiso   1.00
O171   O     0.46274   0.20391   0.34968   0.00000  Uiso   1.00
O172   O     0.54157   0.17759   0.14606   0.00000  Uiso   1.00
O173   O     0.50785   0.15880   0.34968   0.00000  Uiso   1.00
O174   O     0.57169   0.08542   0.07524   0.00000  Uiso   1.00
O175   O     0.64704   0.13054   0.29507   0.00000  Uiso   1.00
O176   O     0.54683   0.00977   0.20364   0.00000  Uiso   1.00
O177   O     0.59234   0.11717   0.41713   0.00000  Uiso   1.00
O178   O     0.43244   0.19726   0.05901   0.00000  Uiso   1.00
O179   O     0.56937   0.18285   0.38221   0.00000  Uiso   1.00
O180   O     0.51264   0.08019   0.28214   0.00000  Uiso   1.00
O181   O     0.35535   0.20236   0.20627   0.00000  Uiso   1.00
O182   O     0.47965   0.26085   0.27014   0.00000  Uiso   1.00
O183   O     0.40745   0.13291   0.23413   0.00000  Uiso   1.00
O184   O     0.60026   0.19272   0.21361   0.00000  Uiso   1.00
O185   O     0.40405   0.18878   0.28213   0.00000  Uiso   1.00
O186   O     0.58824   0.15226   0.27014   0.00000  Uiso   1.00
O187   O     0.47093   0.06944   0.23413   0.00000  Uiso   1.00
O188   O     0.53678   0.25620   0.21361   0.00000  Uiso   1.00
Zn189  Zn    0.52672   0.13994   0.28734   0.00000  Uiso   1.00
Zn190  Zn    0.46713   0.12458   0.21876   0.00000  Uiso   1.00
Zn191  Zn    0.54389   0.19775   0.20657   0.00000  Uiso   1.00
Zn192  Zn    0.46226   0.20439   0.28734   0.00000  Uiso   1.00
C193   C     0.71975   0.15982   0.25962   0.00000  Uiso   1.00
C194   C     0.84096   0.16573   0.06011   0.00000  Uiso   1.00
C195   C     0.88642   0.11179   0.05619   0.00000  Uiso   1.00
C196   C     0.94744   0.17404   0.24029   0.00000  Uiso   1.00
C197   C     0.81108   0.19589   0.41951   0.00000  Uiso   1.00
C198   C     0.99325   0.17797   0.23775   0.00000  Uiso   1.00
C199   C     0.67436   0.15632   0.26422   0.00000  Uiso   1.00
C200   C     0.84755   0.32302   0.23572   0.00000  Uiso   1.00
C201   C     0.81890   0.01175   0.26380   0.00000  Uiso   1.00
C202   C     0.82229   0.05596   0.26076   0.00000  Uiso   1.00
C203   C     0.84340   0.27803   0.23997   0.00000  Uiso   1.00
C204   C     0.76277   0.21761   0.48917   0.00000  Uiso   1.00
C205   C     0.85216   0.14806   0.12948   0.00000  Uiso   1.00
C206   C     0.81692   0.18617   0.37065   0.00000  Uiso   1.00
C207   C     0.89616   0.11057   0.00965   0.00000  Uiso   1.00
C208   C     0.85982   0.14103   0.08129   0.00000  Uiso   1.00
C209   C     0.77553   0.21566   0.44288   0.00000  Uiso   1.00
C210   C     0.91137   0.08785   0.38517   0.00000  Uiso   1.00
C211   C     0.88511   0.04876   0.40690   0.00000  Uiso   1.00
C212   C     0.86983   0.01750   0.37218   0.00000  Uiso   1.00
C213   C     0.73510   0.16145   0.06788   0.00000  Uiso   1.00
C214   C     0.69075   0.17505   0.08871   0.00000  Uiso   1.00
C215   C     0.78395   0.19850   0.01353   0.00000  Uiso   1.00
C216   C     0.99124   0.13831   0.10649   0.00000  Uiso   1.00
C217   C     0.92035   0.22439   0.39077   0.00000  Uiso   1.00
C218   C     0.95046   0.24011   0.34745   0.00000  Uiso   1.00
C219   C     0.97206   0.28433   0.35512   0.00000  Uiso   1.00
C220   C     0.68991   0.24450   0.22339   0.00000  Uiso   1.00
C221   C     0.72715   0.27044   0.19307   0.00000  Uiso   1.00
C222   C     0.72944   0.31655   0.20945   0.00000  Uiso   1.00
C223   C     0.82257   0.18112   0.49126   0.00000  Uiso   1.00
C224   C     0.83716   0.18199   0.44378   0.00000  Uiso   1.00
C225   C     0.84637   0.16113   0.01358   0.00000  Uiso   1.00
C226   C     0.87780   0.13604   0.48807   0.00000  Uiso   1.00
C227   C     0.89230   0.13866   0.44169   0.00000  Uiso   1.00
C228   C     0.87721   0.16794   0.42202   0.00000  Uiso   1.00
H229   H     0.79280   0.33088   0.28957   0.00000  Uiso   1.00
H230   H     0.89312   0.10156   0.36583   0.00000  Uiso   1.00
H231   H     0.90515   0.03378   0.42297   0.00000  Uiso   1.00
H232   H     0.85662   0.05748   0.43312   0.00000  Uiso   1.00
H233   H     0.89743   0.00886   0.34471   0.00000  Uiso   1.00
H234   H     0.85264   0.32214   0.38838   0.00000  Uiso   1.00
H235   H     0.84759   0.03110   0.35777   0.00000  Uiso   1.00
H236   H     0.74385   0.14418   0.09245   0.00000  Uiso   1.00
H237   H     0.73382   0.13911   0.03801   0.00000  Uiso   1.00
H238   H     0.69246   0.19908   0.11676   0.00000  Uiso   1.00
H239   H     0.68006   0.18904   0.06309   0.00000  Uiso   1.00
H240   H     0.91882   0.09003   0.49048   0.00000  Uiso   1.00
H241   H     0.98909   0.11373   0.07905   0.00000  Uiso   1.00
H242   H     0.95932   0.14911   0.12037   0.00000  Uiso   1.00
H243   H     0.66698   0.12497   0.13361   0.00000  Uiso   1.00
H244   H     0.93901   0.22603   0.41642   0.00000  Uiso   1.00
H245   H     0.89470   0.24511   0.40266   0.00000  Uiso   1.00
H246   H     0.97555   0.21907   0.33440   0.00000  Uiso   1.00
H247   H     0.93200   0.23976   0.32197   0.00000  Uiso   1.00
H248   H     0.99277   0.28478   0.37844   0.00000  Uiso   1.00
H249   H     0.94768   0.30585   0.36946   0.00000  Uiso   1.00
H250   H     0.99225   0.29552   0.32276   0.00000  Uiso   1.00
H251   H     0.82411   0.18985   0.08074   0.00000  Uiso   1.00
H252   H     0.69501   0.24821   0.25783   0.00000  Uiso   1.00
H253   H     0.99282   0.25651   0.22419   0.00000  Uiso   1.00
H254   H     0.75769   0.25894   0.19262   0.00000  Uiso   1.00
H255   H     0.72314   0.26687   0.15833   0.00000  Uiso   1.00
H256   H     0.69991   0.32912   0.20845   0.00000  Uiso   1.00
H257   H     0.75743   0.00103   0.18746   0.00000  Uiso   1.00
H258   H     0.73312   0.32083   0.24429   0.00000  Uiso   1.00
H259   H     0.75594   0.22791   0.42530   0.00000  Uiso   1.00
H260   H     0.73436   0.23192   0.00631   0.00000  Uiso   1.00
H261   H     0.89439   0.08817   0.10825   0.00000  Uiso   1.00
H262   H     0.99774   0.11803   0.31081   0.00000  Uiso   1.00
H263   H     0.89853   0.32246   0.18576   0.00000  Uiso   1.00
H264   H     0.94015   0.07791   0.36044   0.00000  Uiso   1.00
O265   O     0.83333   0.16667   0.25000   0.00000  Uiso   1.00
O266   O     0.82118   0.12637   0.15459   0.00000  Uiso   1.00
O267   O     0.79607   0.20391   0.34968   0.00000  Uiso   1.00
O268   O     0.87491   0.17759   0.14606   0.00000  Uiso   1.00
O269   O     0.84118   0.15880   0.34968   0.00000  Uiso   1.00
O270   O     0.90502   0.08542   0.07524   0.00000  Uiso   1.00
O271   O     0.98037   0.13054   0.29507   0.00000  Uiso   1.00
O272   O     0.88016   0.00977   0.20364   0.00000  Uiso   1.00
O273   O     0.92567   0.11717   0.41713   0.00000  Uiso   1.00
O274   O     0.76577   0.19726   0.05901   0.00000  Uiso   1.00
O275   O     0.90271   0.18285   0.38221   0.00000  Uiso   1.00
O276   O     0.84597   0.08019   0.28214   0.00000  Uiso   1.00
O277   O     0.68868   0.20236   0.20627   0.00000  Uiso   1.00
O278   O     0.81298   0.26085   0.27014   0.00000  Uiso   1.00
O279   O     0.74078   0.13291   0.23413   0.00000  Uiso   1.00
O280   O     0.93360   0.19272   0.21361   0.00000  Uiso   1.00
O281   O     0.73738   0.18878   0.28213   0.00000  Uiso   1.00
O282   O     0.92158   0.15226   0.27014   0.00000  Uiso   1.00
O283   O     0.80426   0.06944   0.23413   0.00000  Uiso   1.00
O284   O     0.87012   0.25620   0.21361   0.00000  Uiso   1.00
Zn285  Zn    0.86005   0.13994   0.28734   0.00000  Uiso   1.00
Zn286  Zn    0.80046   0.12458   0.21876   0.00000  Uiso   1.00
Zn287  Zn    0.87723   0.19775   0.20657   0.00000  Uiso   1.00
Zn288  Zn    0.79560   0.20439   0.28734   0.00000  Uiso   1.00
C289   C     0.05308   0.49315   0.25962   0.00000  Uiso   1.00
C290   C     0.17429   0.49906   0.06011   0.00000  Uiso   1.00
C291   C     0.21976   0.44513   0.05619   0.00000  Uiso   1.00
C292   C     0.28077   0.50737   0.24029   0.00000  Uiso   1.00
C293   C     0.14441   0.52922   0.41951   0.00000  Uiso   1.00
C294   C     0.32658   0.51131   0.23775   0.00000  Uiso   1.00
C295   C     0.00769   0.48965   0.26422   0.00000  Uiso   1.00
C296   C     0.18089   0.65636   0.23572   0.00000  Uiso   1.00
C297   C     0.15223   0.34508   0.26380   0.00000  Uiso   1.00
C298   C     0.15562   0.38930   0.26076   0.00000  Uiso   1.00
C299   C     0.17674   0.61137   0.23997   0.00000  Uiso   1.00
C300   C     0.09610   0.55095   0.48917   0.00000  Uiso   1.00
C301   C     0.18549   0.48139   0.12948   0.00000  Uiso   1.00
C302   C     0.15026   0.51951   0.37065   0.00000  Uiso   1.00
C303   C     0.22950   0.44390   0.00965   0.00000  Uiso   1.00
C304   C     0.19315   0.47437   0.08129   0.00000  Uiso   1.00
C305   C     0.10886   0.54900   0.44288   0.00000  Uiso   1.00
C306   C     0.24471   0.42119   0.38517   0.00000  Uiso   1.00
C307   C     0.21844   0.38209   0.40690   0.00000  Uiso   1.00
C308   C     0.20316   0.35083   0.37218   0.00000  Uiso   1.00
C309   C     0.06844   0.49478   0.06788   0.00000  Uiso   1.00
C310   C     0.02408   0.50838   0.08871   0.00000  Uiso   1.00
C311   C     0.11728   0.53184   0.01353   0.00000  Uiso   1.00
C312   C     0.32457   0.47165   0.10649   0.00000  Uiso   1.00
C313   C     0.25369   0.55773   0.39077   0.00000  Uiso   1.00
C314   C     0.28379   0.57344   0.34745   0.00000  Uiso   1.00
C315   C     0.30539   0.61766   0.35512   0.00000  Uiso   1.00
C316   C     0.02324   0.57784   0.22339   0.00000  Uiso   1.00
C317   C     0.06048   0.60377   0.19307   0.00000  Uiso   1.00
C318   C     0.06278   0.64988   0.20945   0.00000  Uiso   1.00
C319   C     0.15590   0.51446   0.49126   0.00000  Uiso   1.00
C320   C     0.17049   0.51533   0.44378   0.00000  Uiso   1.00
C321   C     0.17970   0.49447   0.01358   0.00000  Uiso   1.00
C322   C     0.21113   0.46938   0.48807   0.00000  Uiso   1.00
C323   C     0.22564   0.47199   0.44169   0.00000  Uiso   1.00
C324   C     0.21054   0.50128   0.42202   0.00000  Uiso   1.00
H325   H     0.12614   0.66421   0.28957   0.00000  Uiso   1.00
H326   H     0.22645   0.43489   0.36583   0.00000  Uiso   1.00
H327   H     0.23848   0.36711   0.42297   0.00000  Uiso   1.00
H328   H     0.18996   0.39081   0.43312   0.00000  Uiso   1.00
H329   H     0.23076   0.34219   0.34471   0.00000  Uiso   1.00
H330   H     0.18598   0.65547   0.38838   0.00000  Uiso   1.00
H331   H     0.18092   0.36443   0.35777   0.00000  Uiso   1.00
H332   H     0.07718   0.47751   0.09245   0.00000  Uiso   1.00
H333   H     0.06715   0.47244   0.03801   0.00000  Uiso   1.00
H334   H     0.02580   0.53241   0.11676   0.00000  Uiso   1.00
H335   H     0.01339   0.52238   0.06309   0.00000  Uiso   1.00
H336   H     0.25216   0.42336   0.49048   0.00000  Uiso   1.00
H337   H     0.32242   0.44706   0.07905   0.00000  Uiso   1.00
H338   H     0.29265   0.48244   0.12037   0.00000  Uiso   1.00
H339   H     0.00032   0.45831   0.13361   0.00000  Uiso   1.00
H340   H     0.27234   0.55936   0.41642   0.00000  Uiso   1.00
H341   H     0.22803   0.57845   0.40266   0.00000  Uiso   1.00
H342   H     0.30888   0.55240   0.33440   0.00000  Uiso   1.00
H343   H     0.26533   0.57309   0.32197   0.00000  Uiso   1.00
H344   H     0.32610   0.61812   0.37844   0.00000  Uiso   1.00
H345   H     0.28101   0.63919   0.36946   0.00000  Uiso   1.00
H346   H     0.32559   0.62885   0.32276   0.00000  Uiso   1.00
H347   H     0.15744   0.52319   0.08074   0.00000  Uiso   1.00
H348   H     0.02834   0.58155   0.25783   0.00000  Uiso   1.00
H349   H     0.32615   0.58985   0.22419   0.00000  Uiso   1.00
H350   H     0.09102   0.59227   0.19262   0.00000  Uiso   1.00
H351   H     0.05647   0.60021   0.15833   0.00000  Uiso   1.00
H352   H     0.03324   0.66245   0.20845   0.00000  Uiso   1.00
H353   H     0.09076   0.33437   0.18746   0.00000  Uiso   1.00
H354   H     0.06646   0.65417   0.24429   0.00000  Uiso   1.00
H355   H     0.08928   0.56124   0.42530   0.00000  Uiso   1.00
H356   H     0.06769   0.56525   0.00631   0.00000  Uiso   1.00
H357   H     0.22772   0.42151   0.10825   0.00000  Uiso   1.00
H358   H     0.33108   0.45137   0.31081   0.00000  Uiso   1.00
H359   H     0.23187   0.65579   0.18576   0.00000  Uiso   1.00
H360   H     0.27349   0.41125   0.36044   0.00000  Uiso   1.00
O361   O     0.16667   0.50000   0.25000   0.00000  Uiso   1.00
O362   O     0.15451   0.45970   0.15459   0.00000  Uiso   1.00
O363   O     0.12940   0.53724   0.34968   0.00000  Uiso   1.00
O364   O     0.20824   0.51092   0.14606   0.00000  Uiso   1.00
O365   O     0.17451   0.49213   0.34968   0.00000  Uiso   1.00
O366   O     0.23835   0.41876   0.07524   0.00000  Uiso   1.00
O367   O     0.31370   0.46388   0.29507   0.00000  Uiso   1.00
O368   O     0.21350   0.34310   0.20364   0.00000  Uiso   1.00
O369   O     0.25901   0.45050   0.41713   0.00000  Uiso   1.00
O370   O     0.09911   0.53059   0.05901   0.00000  Uiso   1.00
O371   O     0.23604   0.51618   0.38221   0.00000  Uiso   1.00
O372   O     0.17930   0.41352   0.28214   0.00000  Uiso   1.00
O373   O     0.02202   0.53569   0.20627   0.00000  Uiso   1.00
O374   O     0.14632   0.59418   0.27014   0.00000  Uiso   1.00
O375   O     0.07412   0.46625   0.23413   0.00000  Uiso   1.00
O376   O     0.26693   0.52605   0.21361   0.00000  Uiso   1.00
O377   O     0.07071   0.52211   0.28213   0.00000  Uiso   1.00
O378   O     0.25491   0.48559   0.27014   0.00000  Uiso   1.00
O379   O     0.13760   0.40277   0.23413   0.00000  Uiso   1.00
O380   O     0.20345   0.58953   0.21361   0.00000  Uiso   1.00
Zn381  Zn    0.19338   0.47327   0.28734   0.00000  Uiso   1.00
Zn382  Zn    0.13379   0.45791   0.21876   0.00000  Uiso   1.00
Zn383  Zn    0.21056   0.53109   0.20657   0.00000  Uiso   1.00
Zn384  Zn    0.12893   0.53773   0.28734   0.00000  Uiso   1.00
C385   C     0.38641   0.49315   0.25962   0.00000  Uiso   1.00
C386   C     0.50763   0.49906   0.06011   0.00000  Uiso   1.00
C387   C     0.55309   0.44513   0.05619   0.00000  Uiso   1.00
C388   C     0.61411   0.50737   0.24029   0.00000  Uiso   1.00
C389   C     0.47775   0.52922   0.41951   0.00000  Uiso   1.00
C390   C     0.65992   0.51131   0.23775   0.00000  Uiso   1.00
C391   C     0.34103   0.48965   0.26422   0.00000  Uiso   1.00
C392   C     0.51422   0.65636   0.23572   0.00000  Uiso   1.00
C393   C     0.48557   0.34508   0.26380   0.00000  Uiso   1.00
C394   C     0.48895   0.38930   0.26076   0.00000  Uiso   1.00
C395   C     0.51007   0.61137   0.23997   0.00000  Uiso   1.00
C396   C     0.42943   0.55095   0.48917   0.00000  Uiso   1.00
C397   C     0.51883   0.48139   0.12948   0.00000  Uiso   1.00
C398   C     0.48359   0.51951   0.37065   0.00000  Uiso   1.00
C399   C     0.56283   0.44390   0.00965   0.00000  Uiso   1.00
C400   C     0.52648   0.47437   0.08129   0.00000  Uiso   1.00
C401   C     0.44220   0.54900   0.44288   0.00000  Uiso   1.00
C402   C     0.57804   0.42119   0.38517   0.00000  Uiso   1.00
C403   C     0.55178   0.38209   0.40690   0.00000  Uiso   1.00
C404   C     0.53649   0.35083   0.37218   0.00000  Uiso   1.00
C405   C     0.40177   0.49478   0.06788   0.00000  Uiso   1.00
C406   C     0.35742   0.50838   0.08871   0.00000  Uiso   1.00
C407   C     0.45062   0.53184   0.01353   0.00000  Uiso   1.00
C408   C     0.65790   0.47165   0.10649   0.00000  Uiso   1.00
C409   C     0.58702   0.55773   0.39077   0.00000  Uiso   1.00
C410   C     0.61712   0.57344   0.34745   0.00000  Uiso   1.00
C411   C     0.63873   0.61766   0.35512   0.00000  Uiso   1.00
C412   C     0.35657   0.57784   0.22339   0.00000  Uiso   1.00
C413   C     0.39381   0.60377   0.19307   0.00000  Uiso   1.00
C414   C     0.39611   0.64988   0.20945   0.00000  Uiso   1.00
C415   C     0.48923   0.51446   0.49126   0.00000  Uiso   1.00
C416   C     0.50383   0.51533   0.44378   0.00000  Uiso   1.00
C417   C     0.51303   0.49447   0.01358   0.00000  Uiso   1.00
C418   C     0.54447   0.46938   0.48807   0.00000  Uiso   1.00
C419   C     0.55897   0.47199   0.44169   0.00000  Uiso   1.00
C420   C     0.54387   0.50128   0.42202   0.00000  Uiso   1.00
H421   H     0.45947   0.66421   0.28957   0.00000  Uiso   1.00
H422   H     0.55978   0.43489   0.36583   0.00000  Uiso   1.00
H423   H     0.57181   0.36711   0.42297   0.00000  Uiso   1.00
H424   H     0.52329   0.39081   0.43312   0.00000  Uiso   1.00
H425   H     0.56409   0.34219   0.34471   0.00000  Uiso   1.00
H426   H     0.51931   0.65547   0.38838   0.00000  Uiso   1.00
H427   H     0.51426   0.36443   0.35777   0.00000  Uiso   1.00
H428   H     0.41051   0.47751   0.09245   0.00000  Uiso   1.00
H429   H     0.40049   0.47244   0.03801   0.00000  Uiso   1.00
H430   H     0.35913   0.53241   0.11676   0.00000  Uiso   1.00
H431   H     0.34673   0.52238   0.06309   0.00000  Uiso   1.00
H432   H     0.58549   0.42336   0.49048   0.00000  Uiso   1.00
H433   H     0.65576   0.44706   0.07905   0.00000  Uiso   1.00
H434   H     0.62599   0.48244   0.12037   0.00000  Uiso   1.00
H435   H     0.33365   0.45831   0.13361   0.00000  Uiso   1.00
H436   H     0.60568   0.55936   0.41642   0.00000  Uiso   1.00
H437   H     0.56136   0.57845   0.40266   0.00000  Uiso   1.00
H438   H     0.64221   0.55240   0.33440   0.00000  Uiso   1.00
H439   H     0.59867   0.57309   0.32197   0.00000  Uiso   1.00
H440   H     0.65943   0.61812   0.37844   0.00000  Uiso   1.00
H441   H     0.61435   0.63919   0.36946   0.00000  Uiso   1.00
H442   H     0.65892   0.62885   0.32276   0.00000  Uiso   1.00
H443   H     0.49078   0.52319   0.08074   0.00000  Uiso   1.00
H444   H     0.36168   0.58155   0.25783   0.00000  Uiso   1.00
H445   H     0.65948   0.58985   0.22419   0.00000  Uiso   1.00
H446   H     0.42436   0.59227   0.19262   0.00000  Uiso   1.00
H447   H     0.38981   0.60021   0.15833   0.00000  Uiso   1.00
H448   H     0.36657   0.66245   0.20845   0.00000  Uiso   1.00
H449   H     0.42409   0.33437   0.18746   0.00000  Uiso   1.00
H450   H     0.39979   0.65417   0.24429   0.00000  Uiso   1.00
H451   H     0.42261   0.56124   0.42530   0.00000  Uiso   1.00
H452   H     0.40102   0.56525   0.00631   0.00000  Uiso   1.00
H453   H     0.56106   0.42151   0.10825   0.00000  Uiso   1.00
H454   H     0.66441   0.45137   0.31081   0.00000  Uiso   1.00
H455   H     0.56520   0.65579   0.18576   0.00000  Uiso   1.00
H456   H     0.60682   0.41125   0.36044   0.00000  Uiso   1.00
O457   O     0.50000   0.50000   0.25000   0.00000  Uiso   1.00
O458   O     0.48784   0.45970   0.15459   0.00000  Uiso   1.00
O459   O     0.46274   0.53724   0.34968   0.00000  Uiso   1.00
O460   O     0.54157   0.51092   0.14606   0.00000  Uiso   1.00
O461   O     0.50785   0.49213   0.34968   0.00000  Uiso   1.00
O462   O     0.57169   0.41876   0.07524   0.00000  Uiso   1.00
O463   O     0.64704   0.46388   0.29507   0.00000  Uiso   1.00
O464   O     0.54683   0.34310   0.20364   0.00000  Uiso   1.00
O465   O     0.59234   0.45050   0.41713   0.00000  Uiso   1.00
O466   O     0.43244   0.53059   0.05901   0.00000  Uiso   1.00
O467   O     0.56937   0.51618   0.38221   0.00000  Uiso   1.00
O468   O     0.51264   0.41352   0.28214   0.00000  Uiso   1.00
O469   O     0.35535   0.53569   0.20627   0.00000  Uiso   1.00
O470   O     0.47965   0.59418   0.27014   0.00000  Uiso   1.00
O471   O     0.40745   0.46625   0.23413   0.00000  Uiso   1.00
O472   O     0.60026   0.52605   0.21361   0.00000  Uiso   1.00
O473   O     0.40405   0.52211   0.28213   0.00000  Uiso   1.00
O474   O     0.58824   0.48559   0.27014   0.00000  Uiso   1.00
O475   O     0.47093   0.40277   0.23413   0.00000  Uiso   1.00
O476   O     0.53678   0.58953   0.21361   0.00000  Uiso   1.00
Zn477  Zn    0.52672   0.47327   0.28734   0.00000  Uiso   1.00
Zn478  Zn    0.46713   0.45791   0.21876   0.00000  Uiso   1.00
Zn479  Zn    0.54389   0.53109   0.20657   0.00000  Uiso   1.00
Zn480  Zn    0.46226   0.53773   0.28734   0.00000  Uiso   1.00
C481   C     0.71975   0.49315   0.25962   0.00000  Uiso   1.00
C482   C     0.84096   0.49906   0.06011   0.00000  Uiso   1.00
C483   C     0.88642   0.44513   0.05619   0.00000  Uiso   1.00
C484   C     0.94744   0.50737   0.24029   0.00000  Uiso   1.00
C485   C     0.81108   0.52922   0.41951   0.00000  Uiso   1.00
C486   C     0.99325   0.51131   0.23775   0.00000  Uiso   1.00
C487   C     0.67436   0.48965   0.26422   0.00000  Uiso   1.00
C488   C     0.84755   0.65636   0.23572   0.00000  Uiso   1.00
C489   C     0.81890   0.34508   0.26380   0.00000  Uiso   1.00
C490   C     0.82229   0.38930   0.26076   0.00000  Uiso   1.00
C491   C     0.84340   0.61137   0.23997   0.00000  Uiso   1.00
C492   C     0.76277   0.55095   0.48917   0.00000  Uiso   1.00
C493   C     0.85216   0.48139   0.12948   0.00000  Uiso   1.00
C494   C     0.81692   0.51951   0.37065   0.00000  Uiso   1.00
C495   C     0.89616   0.44390   0.00965   0.00000  Uiso   1.00
C496   C     0.85982   0.47437   0.08129   0.00000  Uiso   1.00
C497   C     0.77553   0.54900   0.44288   0.00000  Uiso   1.00
C498   C     0.91137   0.42119   0.38517   0.00000  Uiso   1.00
C499   C     0.88511   0.38209   0.40690   0.00000  Uiso   1.00
C500   C     0.86983   0.35083   0.37218   0.00000  Uiso   1.00
C501   C     0.73510   0.49478   0.06788   0.00000  Uiso   1.00
C502   C     0.69075   0.50838   0.08871   0.00000  Uiso   1.00
C503   C     0.78395   0.53184   0.01353   0.00000  Uiso   1.00
C504   C     0.99124   0.47165   0.10649   0.00000  Uiso   1.00
C505   C     0.92035   0.55773   0.39077   0.00000  Uiso   1.00
C506   C     0.95046   0.57344   0.34745   0.00000  Uiso   1.00
C507   C     0.97206   0.61766   0.35512   0.00000  Uiso   1.00
C508   C     0.68991   0.57784   0.22339   0.00000  Uiso   1.00
C509   C     0.72715   0.60377   0.19307   0.00000  Uiso   1.00
C510   C     0.72944   0.64988   0.20945   0.00000  Uiso   1.00
C511   C     0.82257   0.51446   0.49126   0.00000  Uiso   1.00
C512   C     0.83716   0.51533   0.44378   0.00000  Uiso   1.00
C513   C     0.84637   0.49447   0.01358   0.00000  Uiso   1.00
C514   C     0.87780   0.46938   0.48807   0.00000  Uiso   1.00
C515   C     0.89230   0.47199   0.44169   0.00000  Uiso   1.00
C516   C     0.87721   0.50128   0.42202   0.00000  Uiso   1.00
H517   H     0.79280   0.66421   0.28957   0.00000  Uiso   1.00
H518   H     0.89312   0.43489   0.36583   0.00000  Uiso   1.00
H519   H     0.90515   0.36711   0.42297   0.00000  Uiso   1.00
H520   H     0.85662   0.39081   0.43312   0.00000  Uiso   1.00
H521   H     0.89743   0.34219   0.34471   0.00000  Uiso   1.00
H522   H     0.85264   0.65547   0.38838   0.00000  Uiso   1.00
H523   H     0.84759   0.36443   0.35777   0.00000  Uiso   1.00
H524   H     0.74385   0.47751   0.09245   0.00000  Uiso   1.00
H525   H     0.73382   0.47244   0.03801   0.00000  Uiso   1.00
H526   H     0.69246   0.53241   0.11676   0.00000  Uiso   1.00
H527   H     0.68006   0.52238   0.06309   0.00000  Uiso   1.00
H528   H     0.91882   0.42336   0.49048   0.00000  Uiso   1.00
H529   H     0.98909   0.44706   0.07905   0.00000  Uiso   1.00
H530   H     0.95932   0.48244   0.12037   0.00000  Uiso   1.00
H531   H     0.66698   0.45831   0.13361   0.00000  Uiso   1.00
H532   H     0.93901   0.55936   0.41642   0.00000  Uiso   1.00
H533   H     0.89470   0.57845   0.40266   0.00000  Uiso   1.00
H534   H     0.97555   0.55240   0.33440   0.00000  Uiso   1.00
H535   H     0.93200   0.57309   0.32197   0.00000  Uiso   1.00
H536   H     0.99277   0.61812   0.37844   0.00000  Uiso   1.00
H537   H     0.94768   0.63919   0.36946   0.00000  Uiso   1.00
H538   H     0.99225   0.62885   0.32276   0.00000  Uiso   1.00
H539   H     0.82411   0.52319   0.08074   0.00000  Uiso   1.00
H540   H     0.69501   0.58155   0.25783   0.00000  Uiso   1.00
H541   H     0.99282   0.58985   0.22419   0.00000  Uiso   1.00
H542   H     0.75769   0.59227   0.19262   0.00000  Uiso   1.00
H543   H     0.72314   0.60021   0.15833   0.00000  Uiso   1.00
H544   H     0.69991   0.66245   0.20845   0.00000  Uiso   1.00
H545   H     0.75743   0.33437   0.18746   0.00000  Uiso   1.00
H546   H     0.73312   0.65417   0.24429   0.00000  Uiso   1.00
H547   H     0.75594   0.56124   0.42530   0.00000  Uiso   1.00
H548   H     0.73436   0.56525   0.00631   0.00000  Uiso   1.00
H549   H     0.89439   0.42151   0.10825   0.00000  Uiso   1.00
H550   H     0.99774   0.45137   0.31081   0.00000  Uiso   1.00
H551   H     0.89853   0.65579   0.18576   0.00000  Uiso   1.00
H552   H     0.94015   0.41125   0.36044   0.00000  Uiso   1.00
O553   O     0.83333   0.50000   0.25000   0.00000  Uiso   1.00
O554   O     0.82118   0.45970   0.15459   0.00000  Uiso   1.00
O555   O     0.79607   0.53724   0.34968   0.00000  Uiso   1.00
O556   O     0.87491   0.51092   0.14606   0.00000  Uiso   1.00
O557   O     0.84118   0.49213   0.34968   0.00000  Uiso   1.00
O558   O     0.90502   0.41876   0.07524   0.00000  Uiso   1.00
O559   O     0.98037   0.46388   0.29507   0.00000  Uiso   1.00
O560   O     0.88016   0.34310   0.20364   0.00000  Uiso   1.00
O561   O     0.92567   0.45050   0.41713   0.00000  Uiso   1.00
O562   O     0.76577   0.53059   0.05901   0.00000  Uiso   1.00
O563   O     0.90271   0.51618   0.38221   0.00000  Uiso   1.00
O564   O     0.84597   0.41352   0.28214   0.00000  Uiso   1.00
O565   O     0.68868   0.53569   0.20627   0.00000  Uiso   1.00
O566   O     0.81298   0.59418   0.27014   0.00000  Uiso   1.00
O567   O     0.74078   0.46625   0.23413   0.00000  Uiso   1.00
O568   O     0.93360   0.52605   0.21361   0.00000  Uiso   1.00
O569   O     0.73738   0.52211   0.28213   0.00000  Uiso   1.00
O570   O     0.92158   0.48559   0.27014   0.00000  Uiso   1.00
O571   O     0.80426   0.40277   0.23413   0.00000  Uiso   1.00
O572   O     0.87012   0.58953   0.21361   0.00000  Uiso   1.00
Zn573  Zn    0.86005   0.47327   0.28734   0.00000  Uiso   1.00
Zn574  Zn    0.80046   0.45791   0.21876   0.00000  Uiso   1.00
Zn575  Zn    0.87723   0.53109   0.20657   0.00000  Uiso   1.00
Zn576  Zn    0.79560   0.53773   0.28734   0.00000  Uiso   1.00
C577   C     0.05308   0.82649   0.25962   0.00000  Uiso   1.00
C578   C     0.17429   0.83239   0.06011   0.00000  Uiso   1.00
C579   C     0.21976   0.77846   0.05619   0.00000  Uiso   1.00
C580   C     0.28077   0.84070   0.24029   0.00000  Uiso   1.00
C581   C     0.14441   0.86255   0.41951   0.00000  Uiso   1.00
C582   C     0.32658   0.84464   0.23775   0.00000  Uiso   1.00
C583   C     0.00769   0.82299   0.26422   0.00000  Uiso   1.00
C584   C     0.18089   0.98969   0.23572   0.00000  Uiso   1.00
C585   C     0.15223   0.67842   0.26380   0.00000  Uiso   1.00
C586   C     0.15562   0.72263   0.26076   0.00000  Uiso   1.00
C587   C     0.17674   0.94470   0.23997   0.00000  Uiso   1.00
C588   C     0.09610   0.88428   0.48917   0.00000  Uiso   1.00
C589   C     0.18549   0.81472   0.12948   0.00000  Uiso   1.00
C590   C     0.15026   0.85284   0.37065   0.00000  Uiso   1.00
C591   C     0.22950   0.77724   0.00965   0.00000  Uiso   1.00
C592   C     0.19315   0.80770   0.08129   0.00000  Uiso   1.00
C593   C     0.10886   0.88233   0.44288   0.00000  Uiso   1.00
C594   C     0.24471   0.75452   0.38517   0.00000  Uiso   1.00
C595   C     0.21844   0.71542   0.40690   0.00000  Uiso   1.00
C596   C     0.20316   0.68416   0.37218   0.00000  Uiso   1.00
C597   C     0.06844   0.82812   0.06788   0.00000  Uiso   1.00
C598   C     0.02408   0.84171   0.08871   0.00000  Uiso   1.00
C599   C     0.11728   0.86517   0.01353   0.00000  Uiso   1.00
C600   C     0.32457   0.80498   0.10649   0.00000  Uiso   1.00
C601   C     0.25369   0.89106   0.39077   0.00000  Uiso   1.00
C602   C     0.28379   0.90677   0.34745   0.00000  Uiso   1.00
C603   C     0.30539   0.95100   0.35512   0.00000  Uiso   1.00
C604   C     0.02324   0.91117   0.22339   0.00000  Uiso   1.00
C605   C     0.06048   0.93710   0.19307   0.00000  Uiso   1.00
C606   C     0.06278   0.98322   0.20945   0.00000  Uiso   1.00
C607   C     0.15590   0.84779   0.49126   0.00000  Uiso   1.00
C608   C     0.17049   0.84866   0.44378   0.00000  Uiso   1.00
C609   C     0.17970   0.82780   0.01358   0.00000  Uiso   1.00
C610   C     0.21113   0.80271   0.48807   0.00000  Uiso   1.00
C611   C     0.22564   0.80532   0.44169   0.00000  Uiso   1.00
C612   C     0.21054   0.83461   0.42202   0.00000  Uiso   1.00
H613   H     0.12614   0.99755   0.28957   0.00000  Uiso   1.00
H614   H     0.22645   0.76822   0.36583   0.00000  Uiso   1.00
H615   H     0.23848   0.70044   0.42297   0.00000  Uiso   1.00
H616   H     0.18996   0.72415   0.43312   0.00000  Uiso   1.00
H617   H     0.23076   0.67553   0.34471   0.00000  Uiso   1.00
H618   H     0.18598   0.98880   0.38838   0.00000  Uiso   1.00
H619   H     0.18092   0.69777   0.35777   0.00000  Uiso   1.00
H620   H     0.07718   0.81084   0.09245   0.00000  Uiso   1.00
H621   H     0.06715   0.80578   0.03801   0.00000  Uiso   1.00
H622   H     0.02580   0.86574   0.11676   0.00000  Uiso   1.00
H623   H     0.01339   0.85571   0.06309   0.00000  Uiso   1.00
H624   H     0.25216   0.75670   0.49048   0.00000  Uiso   1.00
H625   H     0.32242   0.78040   0.07905   0.00000  Uiso   1.00
H626   H     0.29265   0.81578   0.12037   0.00000  Uiso   1.00
H627   H     0.00032   0.79164   0.13361   0.00000  Uiso   1.00
H628   H     0.27234   0.89269   0.41642   0.00000  Uiso   1.00
H629   H     0.22803   0.91178   0.40266   0.00000  Uiso   1.00
H630   H     0.30888   0.88573   0.33440   0.00000  Uiso   1.00
H631   H     0.26533   0.90643   0.32197   0.00000  Uiso   1.00
H632   H     0.32610   0.95145   0.37844   0.00000  Uiso   1.00
H633   H     0.28101   0.97252   0.36946   0.00000  Uiso   1.00
H634   H     0.32559   0.96219   0.32276   0.00000  Uiso   1.00
H635   H     0.15744   0.85652   0.08074   0.00000  Uiso   1.00
H636   H     0.02834   0.91488   0.25783   0.00000  Uiso   1.00
H637   H     0.32615   0.92318   0.22419   0.00000  Uiso   1.00
H638   H     0.09102   0.92561   0.19262   0.00000  Uiso   1.00
H639   H     0.05647   0.93354   0.15833   0.00000  Uiso   1.00
H640   H     0.03324   0.99579   0.20845   0.00000  Uiso   1.00
H641   H     0.09076   0.66770   0.18746   0.00000  Uiso   1.00
H642   H     0.06646   0.98750   0.24429   0.00000  Uiso   1.00
H643   H     0.08928   0.89457   0.42530   0.00000  Uiso   1.00
H644   H     0.06769   0.89859   0.00631   0.00000  Uiso   1.00
H645   H     0.22772   0.75484   0.10825   0.00000  Uiso   1.00
H646   H     0.33108   0.78470   0.31081   0.00000  Uiso   1.00
H647   H     0.23187   0.98913   0.18576   0.00000  Uiso   1.00
H648   H     0.27349   0.74458   0.36044   0.00000  Uiso   1.00
O649   O     0.16667   0.83333   0.25000   0.00000  Uiso   1.00
O650   O     0.15451   0.79304   0.15459   0.00000  Uiso   1.00
O651   O     0.12940   0.87058   0.34968   0.00000  Uiso   1.00
O652   O     0.20824   0.84425   0.14606   0.00000  Uiso   1.00
O653   O     0.17451   0.82546   0.34968   0.00000  Uiso   1.00
O654   O     0.23835   0.75209   0.07524   0.00000  Uiso   1.00
O655   O     0.31370   0.79721   0.29507   0.00000  Uiso   1.00
O656   O     0.21350   0.67643   0.20364   0.00000  Uiso   1.00
O657   O     0.25901   0.78383   0.41713   0.00000  Uiso   1.00
O658   O     0.09911   0.86392   0.05901   0.00000  Uiso   1.00
O659   O     0.23604   0.84951   0.38221   0.00000  Uiso   1.00
O660   O     0.17930   0.74686   0.28214   0.00000  Uiso   1.00
O661   O     0.02202   0.86903   0.20627   0.00000  Uiso   1.00
O662   O     0.14632   0.92751   0.27014   0.00000  Uiso   1.00
O663   O     0.07412   0.79958   0.23413   0.00000  Uiso   1.00
O664   O     0.26693   0.85939   0.21361   0.00000  Uiso   1.00
O665   O     0.07071   0.85544   0.28213   0.00000  Uiso   1.00
O666   O     0.25491   0.81892   0.27014   0.00000  Uiso   1.00
O667   O     0.13760   0.73610   0.23413   0.00000  Uiso   1.00
O668   O     0.20345   0.92286   0.21361   0.00000  Uiso   1.00
Zn669  Zn    0.19338   0.80661   0.28734   0.00000  Uiso   1.00
Zn670  Zn    0.13379   0.79124   0.21876   0.00000  Uiso   1.00
Zn671  Zn    0.21056   0.86442   0.20657   0.00000  Uiso   1.00
Zn672  Zn    0.12893   0.87106   0.28734   0.00000  Uiso   1.00
C673   C     0.38641   0.82649   0.25962   0.00000  Uiso   1.00
C674   C     0.50763   0.83239   0.06011   0.00000  Uiso   1.00
C675   C     0.55309   0.77846   0.05619   0.00000  Uiso   1.00
C676   C     0.61411   0.84070   0.24029   0.00000  Uiso   1.00
C677   C     0.47775   0.86255   0.41951   0.00000  Uiso   1.00
C678   C     0.65992   0.84464   0.23775   0.00000  Uiso   1.00
C679   C     0.34103   0.82299   0.26422   0.00000  Uiso   1.00
C680   C     0.51422   0.98969   0.23572   0.00000  Uiso   1.00
C681   C     0.48557   0.67842   0.26380   0.00000  Uiso   1.00
C682   C     0.48895   0.72263   0.26076   0.00000  Uiso   1.00
C683   C     0.51007   0.94470   0.23997   0.00000  Uiso   1.00
C684   C     0.42943   0.88428   0.48917   0.00000  Uiso   1.00
C685   C     0.51883   0.81472   0.12948   0.00000  Uiso   1.00
C686   C     0.48359   0.85284   0.37065   0.00000  Uiso   1.00
C687   C     0.56283   0.77724   0.00965   0.00000  Uiso   1.00
C688   C     0.52648   0.80770   0.08129   0.00000  Uiso   1.00
C689   C     0.44220   0.88233   0.44288   0.00000  Uiso   1.00
C690   C     0.57804   0.75452   0.38517   0.00000  Uiso   1.00
C691   C     0.55178   0.71542   0.40690   0.00000  Uiso   1.00
C692   C     0.53649   0.68416   0.37218   0.00000  Uiso   1.00
C693   C     0.40177   0.82812   0.06788   0.00000  Uiso   1.00
C694   C     0.35742   0.84171   0.08871   0.00000  Uiso   1.00
C695   C     0.45062   0.86517   0.01353   0.00000  Uiso   1.00
C696   C     0.65790   0.80498   0.10649   0.00000  Uiso   1.00
C697   C     0.58702   0.89106   0.39077   0.00000  Uiso   1.00
C698   C     0.61712   0.90677   0.34745   0.00000  Uiso   1.00
C699   C     0.63873   0.95100   0.35512   0.00000  Uiso   1.00
C700   C     0.35657   0.91117   0.22339   0.00000  Uiso   1.00
C701   C     0.39381   0.93710   0.19307   0.00000  Uiso   1.00
C702   C     0.39611   0.98322   0.20945   0.00000  Uiso   1.00
C703   C     0.48923   0.84779   0.49126   0.00000  Uiso   1.00
C704   C     0.50383   0.84866   0.44378   0.00000  Uiso   1.00
C705   C     0.51303   0.82780   0.01358   0.00000  Uiso   1.00
C706   C     0.54447   0.80271   0.48807   0.00000  Uiso   1.00
C707   C     0.55897   0.80532   0.44169   0.00000  Uiso   1.00
C708   C     0.54387   0.83461   0.42202   0.00000  Uiso   1.00
H709   H     0.45947   0.99755   0.28957   0.00000  Uiso   1.00
H710   H     0.55978   0.76822   0.36583   0.00000  Uiso   1.00
H711   H     0.57181   0.70044   0.42297   0.00000  Uiso   1.00
H712   H     0.52329   0.72415   0.43312   0.00000  Uiso   1.00
H713   H     0.56409   0.67553   0.34471   0.00000  Uiso   1.00
H714   H     0.51931   0.98880   0.38838   0.00000  Uiso   1.00
H715   H     0.51426   0.69777   0.35777   0.00000  Uiso   1.00
H716   H     0.41051   0.81084   0.09245   0.00000  Uiso   1.00
H717   H     0.40049   0.80578   0.03801   0.00000  Uiso   1.00
H718   H     0.35913   0.86574   0.11676   0.00000  Uiso   1.00
H719   H     0.34673   0.85571   0.06309   0.00000  Uiso   1.00
H720   H     0.58549   0.75670   0.49048   0.00000  Uiso   1.00
H721   H     0.65576   0.78040   0.07905   0.00000  Uiso   1.00
H722   H     0.62599   0.81578   0.12037   0.00000  Uiso   1.00
H723   H     0.33365   0.79164   0.13361   0.00000  Uiso   1.00
H724   H     0.60568   0.89269   0.41642   0.00000  Uiso   1.00
H725   H     0.56136   0.91178   0.40266   0.00000  Uiso   1.00
H726   H     0.64221   0.88573   0.33440   0.00000  Uiso   1.00
H727   H     0.59867   0.90643   0.32197   0.00000  Uiso   1.00
H728   H     0.65943   0.95145   0.37844   0.00000  Uiso   1.00
H729   H     0.61435   0.97252   0.36946   0.00000  Uiso   1.00
H730   H     0.65892   0.96219   0.32276   0.00000  Uiso   1.00
H731   H     0.49078   0.85652   0.08074   0.00000  Uiso   1.00
H732   H     0.36168   0.91488   0.25783   0.00000  Uiso   1.00
H733   H     0.65948   0.92318   0.22419   0.00000  Uiso   1.00
H734   H     0.42436   0.92561   0.19262   0.00000  Uiso   1.00
H735   H     0.38981   0.93354   0.15833   0.00000  Uiso   1.00
H736   H     0.36657   0.99579   0.20845   0.00000  Uiso   1.00
H737   H     0.42409   0.66770   0.18746   0.00000  Uiso   1.00
H738   H     0.39979   0.98750   0.24429   0.00000  Uiso   1.00
H739   H     0.42261   0.89457   0.42530   0.00000  Uiso   1.00
H740   H     0.40102   0.89859   0.00631   0.00000  Uiso   1.00
H741   H     0.56106   0.75484   0.10825   0.00000  Uiso   1.00
H742   H     0.66441   0.78470   0.31081   0.00000  Uiso   1.00
H743   H     0.56520   0.98913   0.18576   0.00000  Uiso   1.00
H744   H     0.60682   0.74458   0.36044   0.00000  Uiso   1.00
O745   O     0.50000   0.83333   0.25000   0.00000  Uiso   1.00
O746   O     0.48784   0.79304   0.15459   0.00000  Uiso   1.00
O747   O     0.46274   0.87058   0.34968   0.00000  Uiso   1.00
O748   O     0.54157   0.84425   0.14606   0.00000  Uiso   1.00
O749   O     0.50785   0.82546   0.34968   0.00000  Uiso   1.00
O750   O     0.57169   0.75209   0.07524   0.00000  Uiso   1.00
O751   O     0.64704   0.79721   0.29507   0.00000  Uiso   1.00
O752   O     0.54683   0.67643   0.20364   0.00000  Uiso   1.00
O753   O     0.59234   0.78383   0.41713   0.00000  Uiso   1.00
O754   O     0.43244   0.86392   0.05901   0.00000  Uiso   1.00
O755   O     0.56937   0.84951   0.38221   0.00000  Uiso   1.00
O756   O     0.51264   0.74686   0.28214   0.00000  Uiso   1.00
O757   O     0.35535   0.86903   0.20627   0.00000  Uiso   1.00
O758   O     0.47965   0.92751   0.27014   0.00000  Uiso   1.00
O759   O     0.40745   0.79958   0.23413   0.00000  Uiso   1.00
O760   O     0.60026   0.85939   0.21361   0.00000  Uiso   1.00
O761   O     0.40405   0.85544   0.28213   0.00000  Uiso   1.00
O762   O     0.58824   0.81892   0.27014   0.00000  Uiso   1.00
O763   O     0.47093   0.73610   0.23413   0.00000  Uiso   1.00
O764   O     0.53678   0.92286   0.21361   0.00000  Uiso   1.00
Zn765  Zn    0.52672   0.80661   0.28734   0.00000  Uiso   1.00
Zn766  Zn    0.46713   0.79124   0.21876   0.00000  Uiso   1.00
Zn767  Zn    0.54389   0.86442   0.20657   0.00000  Uiso   1.00
Zn768  Zn    0.46226   0.87106   0.28734   0.00000  Uiso   1.00
C769   C     0.71975   0.82649   0.25962   0.00000  Uiso   1.00
C770   C     0.84096   0.83239   0.06011   0.00000  Uiso   1.00
C771   C     0.88642   0.77846   0.05619   0.00000  Uiso   1.00
C772   C     0.94744   0.84070   0.24029   0.00000  Uiso   1.00
C773   C     0.81108   0.86255   0.41951   0.00000  Uiso   1.00
C774   C     0.99325   0.84464   0.23775   0.00000  Uiso   1.00
C775   C     0.67436   0.82299   0.26422   0.00000  Uiso   1.00
C776   C     0.84755   0.98969   0.23572   0.00000  Uiso   1.00
C777   C     0.81890   0.67842   0.26380   0.00000  Uiso   1.00
C778   C     0.82229   0.72263   0.26076   0.00000  Uiso   1.00
C779   C     0.84340   0.94470   0.23997   0.00000  Uiso   1.00
C780   C     0.76277   0.88428   0.48917   0.00000  Uiso   1.00
C781   C     0.85216   0.81472   0.12948   0.00000  Uiso   1.00
C782   C     0.81692   0.85284   0.37065   0.00000  Uiso   1.00
C783   C     0.89616   0.77724   0.00965   0.00000  Uiso   1.00
C784   C     0.85982   0.80770   0.08129   0.00000  Uiso   1.00
C785   C     0.77553   0.88233   0.44288   0.00000  Uiso   1.00
C786   C     0.91137   0.75452   0.38517   0.00000  Uiso   1.00
C787   C     0.88511   0.71542   0.40690   0.00000  Uiso   1.00
C788   C     0.86983   0.68416   0.37218   0.00000  Uiso   1.00
C789   C     0.73510   0.82812   0.06788   0.00000  Uiso   1.00
C790   C     0.69075   0.84171   0.08871   0.00000  Uiso   1.00
C791   C     0.78395   0.86517   0.01353   0.00000  Uiso   1.00
C792   C     0.99124   0.80498   0.10649   0.00000  Uiso   1.00
C793   C     0.92035   0.89106   0.39077   0.00000  Uiso   1.00
C794   C     0.95046   0.90677   0.34745   0.00000  Uiso   1.00
C795   C     0.97206   0.95100   0.35512   0.00000  Uiso   1.00
C796   C     0.68991   0.91117   0.22339   0.00000  Uiso   1.00
C797   C     0.72715   0.93710   0.19307   0.00000  Uiso   1.00
C798   C     0.72944   0.98322   0.20945   0.00000  Uiso   1.00
C799   C     0.82257   0.84779   0.49126   0.00000  Uiso   1.00
C800   C     0.83716   0.84866   0.44378   0.00000  Uiso   1.00
C801   C     0.84637   0.82780   0.01358   0.00000  Uiso   1.00
C802   C     0.87780   0.80271   0.48807   0.00000  Uiso   1.00
C803   C     0.89230   0.80532   0.44169   0.00000  Uiso   1.00
C804   C     0.87721   0.83461   0.42202   0.00000  Uiso   1.00
H805   H     0.79280   0.99755   0.28957   0.00000  Uiso   1.00
H806   H     0.89312   0.76822   0.36583   0.00000  Uiso   1.00
H807   H     0.90515   0.70044   0.42297   0.00000  Uiso   1.00
H808   H     0.85662   0.72415   0.43312   0.00000  Uiso   1.00
H809   H     0.89743   0.67553   0.34471   0.00000  Uiso   1.00
H810   H     0.85264   0.98880   0.38838   0.00000  Uiso   1.00
H811   H     0.84759   0.69777   0.35777   0.00000  Uiso   1.00
H812   H     0.74385   0.81084   0.09245   0.00000  Uiso   1.00
H813   H     0.73382   0.80578   0.03801   0.00000  Uiso   1.00
H814   H     0.69246   0.86574   0.11676   0.00000  Uiso   1.00
H815   H     0.68006   0.85571   0.06309   0.00000  Uiso   1.00
H816   H     0.91882   0.75670   0.49048   0.00000  Uiso   1.00
H817   H     0.98909   0.78040   0.07905   0.00000  Uiso   1.00
H818   H     0.95932   0.81578   0.12037   0.00000  Uiso   1.00
H819   H     0.66698   0.79164   0.13361   0.00000  Uiso   1.00
H820   H     0.93901   0.89269   0.41642   0.00000  Uiso   1.00
H821   H     0.89470   0.91178   0.40266   0.00000  Uiso   1.00
H822   H     0.97555   0.88573   0.33440   0.00000  Uiso   1.00
H823   H     0.93200   0.90643   0.32197   0.00000  Uiso   1.00
H824   H     0.99277   0.95145   0.37844   0.00000  Uiso   1.00
H825   H     0.94768   0.97252   0.36946   0.00000  Uiso   1.00
H826   H     0.99225   0.96219   0.32276   0.00000  Uiso   1.00
H827   H     0.82411   0.85652   0.08074   0.00000  Uiso   1.00
H828   H     0.69501   0.91488   0.25783   0.00000  Uiso   1.00
H829   H     0.99282   0.92318   0.22419   0.00000  Uiso   1.00
H830   H     0.75769   0.92561   0.19262   0.00000  Uiso   1.00
H831   H     0.72314   0.93354   0.15833   0.00000  Uiso   1.00
H832   H     0.69991   0.99579   0.20845   0.00000  Uiso   1.00
H833   H     0.75743   0.66770   0.18746   0.00000  Uiso   1.00
H834   H     0.73312   0.98750   0.24429   0.00000  Uiso   1.00
H835   H     0.75594   0.89457   0.42530   0.00000  Uiso   1.00
H836   H     0.73436   0.89859   0.00631   0.00000  Uiso   1.00
H837   H     0.89439   0.75484   0.10825   0.00000  Uiso   1.00
H838   H     0.99774   0.78470   0.31081   0.00000  Uiso   1.00
H839   H     0.89853   0.98913   0.18576   0.00000  Uiso   1.00
H840   H     0.94015   0.74458   0.36044   0.00000  Uiso   1.00
O841   O     0.83333   0.83333   0.25000   0.00000  Uiso   1.00
O842   O     0.82118   0.79304   0.15459   0.00000  Uiso   1.00
O843   O     0.79607   0.87058   0.34968   0.00000  Uiso   1.00
O844   O     0.87491   0.84425   0.14606   0.00000  Uiso   1.00
O845   O     0.84118   0.82546   0.34968   0.00000  Uiso   1.00
O846   O     0.90502   0.75209   0.07524   0.00000  Uiso   1.00
O847   O     0.98037   0.79721   0.29507   0.00000  Uiso   1.00
O848   O     0.88016   0.67643   0.20364   0.00000  Uiso   1.00
O849   O     0.92567   0.78383   0.41713   0.00000  Uiso   1.00
O850   O     0.76577   0.86392   0.05901   0.00000  Uiso   1.00
O851   O     0.90271   0.84951   0.38221   0.00000  Uiso   1.00
O852   O     0.84597   0.74686   0.28214   0.00000  Uiso   1.00
O853   O     0.68868   0.86903   0.20627   0.00000  Uiso   1.00
O854   O     0.81298   0.92751   0.27014   0.00000  Uiso   1.00
O855   O     0.74078   0.79958   0.23413   0.00000  Uiso   1.00
O856   O     0.93360   0.85939   0.21361   0.00000  Uiso   1.00
O857   O     0.73738   0.85544   0.28213   0.00000  Uiso   1.00
O858   O     0.92158   0.81892   0.27014   0.00000  Uiso   1.00
O859   O     0.80426   0.73610   0.23413   0.00000  Uiso   1.00
O860   O     0.87012   0.92286   0.21361   0.00000  Uiso   1.00
Zn861  Zn    0.86005   0.80661   0.28734   0.00000  Uiso   1.00
Zn862  Zn    0.80046   0.79124   0.21876   0.00000  Uiso   1.00
Zn863  Zn    0.87723   0.86442   0.20657   0.00000  Uiso   1.00
Zn864  Zn    0.79560   0.87106   0.28734   0.00000  Uiso   1.00
C865   C     0.05308   0.15982   0.75962   0.00000  Uiso   1.00
C866   C     0.17429   0.16573   0.56011   0.00000  Uiso   1.00
C867   C     0.21976   0.11179   0.55619   0.00000  Uiso   1.00
C868   C     0.28077   0.17404   0.74029   0.00000  Uiso   1.00
C869   C     0.14441   0.19589   0.91951   0.00000  Uiso   1.00
C870   C     0.32658   0.17797   0.73775   0.00000  Uiso   1.00
C871   C     0.00769   0.15632   0.76422   0.00000  Uiso   1.00
C872   C     0.18089   0.32302   0.73572   0.00000  Uiso   1.00
C873   C     0.15223   0.01175   0.76380   0.00000  Uiso   1.00
C874   C     0.15562   0.05596   0.76076   0.00000  Uiso   1.00
C875   C     0.17674   0.27803   0.73997   0.00000  Uiso   1.00
C876   C     0.09610   0.21761   0.98917   0.00000  Uiso   1.00
C877   C     0.18549   0.14806   0.62948   0.00000  Uiso   1.00
C878   C     0.15026   0.18617   0.87065   0.00000  Uiso   1.00
C879   C     0.22950   0.11057   0.50965   0.00000  Uiso   1.00
C880   C     0.19315   0.14103   0.58129   0.00000  Uiso   1.00
C881   C     0.10886   0.21566   0.94288   0.00000  Uiso   1.00
C882   C     0.24471   0.08785   0.88517   0.00000  Uiso   1.00
C883   C     0.21844   0.04876   0.90690   0.00000  Uiso   1.00
C884   C     0.20316   0.01750   0.87218   0.00000  Uiso   1.00
C885   C     0.06844   0.16145   0.56788   0.00000  Uiso   1.00
C886   C     0.02408   0.17505   0.58871   0.00000  Uiso   1.00
C887   C     0.11728   0.19850   0.51353   0.00000  Uiso   1.00
C888   C     0.32457   0.13831   0.60649   0.00000  Uiso   1.00
C889   C     0.25369   0.22439   0.89077   0.00000  Uiso   1.00
C890   C     0.28379   0.24011   0.84745   0.00000  Uiso   1.00
C891   C     0.30539   0.28433   0.85512   0.00000  Uiso   1.00
C892   C     0.02324   0.24450   0.72339   0.00000  Uiso   1.00
C893   C     0.06048   0.27044   0.69307   0.00000  Uiso   1.00
C894   C     0.06278   0.31655   0.70945   0.00000  Uiso   1.00
C895   C     0.15590   0.18112   0.99126   0.00000  Uiso   1.00
C896   C     0.17049   0.18199   0.94378   0.00000  Uiso   1.00
C897   C     0.17970   0.16113   0.51358   0.00000  Uiso   1.00
C898   C     0.21113   0.13604   0.98807   0.00000  Uiso   1.00
C899   C     0.22564   0.13866   0.94169   0.00000  Uiso   1.00
C900   C     0.21054   0.16794   0.92202   0.00000  Uiso   1.00
H901   H     0.12614   0.33088   0.78957   0.00000  Uiso   1.00
H902   H     0.22645   0.10156   0.86583   0.00000  Uiso   1.00
H903   H     0.23848   0.03378   0.92297   0.00000  Uiso   1.00
H904   H     0.18996   0.05748   0.93312   0.00000  Uiso   1.00
H905   H     0.23076   0.00886   0.84471   0.00000  Uiso   1.00
H906   H     0.18598   0.32214   0.88838   0.00000  Uiso   1.00
H907   H     0.18092   0.03110   0.85777   0.00000  Uiso   1.00
H908   H     0.07718   0.14418   0.59245   0.00000  Uiso   1.00
H909   H     0.06715   0.13911   0.53801   0.00000  Uiso   1.00
H910   H     0.02580   0.19908   0.61676   0.00000  Uiso   1.00
H911   H     0.01339   0.18904   0.56309   0.00000  Uiso   1.00
H912   H     0.25216   0.09003   0.99048   0.00000  Uiso   1.00
H913   H     0.32242   0.11373   0.57905   0.00000  Uiso   1.00
H914   H     0.29265   0.14911   0.62037   0.00000  Uiso   1.00
H915   H     0.00032   0.12497   0.63361   0.00000  Uiso   1.00
H916   H     0.27234   0.22603   0.91642   0.00000  Uiso   1.00
H917   H     0.22803   0.24511   0.90266   0.00000  Uiso   1.00
H918   H     0.30888   0.21907   0.83440   0.00000  Uiso   1.00
H919   H     0.26533   0.23976   0.82197   0.00000  Uiso   1.00
H920   H     0.32610   0.28478   0.87844   0.00000  Uiso   1.00
H921   H     0.28101   0.30585   0.86946   0.00000  Uiso   1.00
H922   H     0.32559   0.29552   0.82276   0.00000  Uiso   1.00
H923   H     0.15744   0.18985   0.58074   0.00000  Uiso   1.00
H924   H     0.02834   0.24821   0.75783   0.00000  Uiso   1.00
H925   H     0.32615   0.25651   0.72419   0.00000  Uiso   1.00
H926   H     0.09102   0.25894   0.69262   0.00000  Uiso   1.00
H927   H     0.05647   0.26687   0.65833   0.00000  Uiso   1.00
H928   H     0.03324   0.32912   0.70845   0.00000  Uiso   1.00
H929   H     0.09076   0.00103   0.68746   0.00000  Uiso   1.00
H930   H     0.06646   0.32083   0.74429   0.00000  Uiso   1.00
H931   H     0.08928   0.22791   0.92530   0.00000  Uiso   1.00
H932   H     0.06769   0.23192   0.50631   0.00000  Uiso   1.00
H933   H     0.22772   0.08817   0.60825   0.00000  Uiso   1.00
H934   H     0.33108   0.11803   0.81081   0.00000  Uiso   1.00
H935   H     0.23187   0.32246   0.68576   0.00000  Uiso   1.00
H936   H     0.27349   0.07791   0.86044   0.00000  Uiso   1.00
O937   O     0.16667   0.16667   0.75000   0.00000  Uiso   1.00
O938   O     0.15451   0.12637   0.65459   0.00000  Uiso   1.00
O939   O     0.12940   0.20391   0.84968   0.00000  Uiso   1.00
O940   O     0.20824   0.17759   0.64606   0.00000  Uiso   1.00
O941   O     0.17451   0.15880   0.84968   0.00000  Uiso   1.00
O942   O     0.23835   0.08542   0.57524   0.00000  Uiso   1.00
O943   O     0.31370   0.13054   0.79507   0.00000  Uiso   1.00
O944   O     0.21350   0.00977   0.70364   0.00000  Uiso   1.00
O945   O     0.25901   0.11717   0.91713   0.00000  Uiso   1.00
O946   O     0.09911   0.19726   0.55901   0.00000  Uiso   1.00
O947   O     0.23604   0.18285   0.88221   0.00000  Uiso   1.00
O948   O     0.17930   0.08019   0.78214   0.00000  Uiso   1.00
O949   O     0.02202   0.20236   0.70627   0.00000  Uiso   1.00
O950   O     0.14632   0.26085   0.77014   0.00000  Uiso   1.00
O951   O     0.07412   0.13291   0.73413   0.00000  Uiso   1.00
O952   O     0.26693   0.19272   0.71361   0.00000  Uiso   1.00
O953   O     0.07071   0.18878   0.78213   0.00000  Uiso   1.00
O954   O     0.25491   0.15226   0.77014   0.00000  Uiso   1.00
O955   O     0.13760   0.06944   0.73413   0.00000  Uiso   1.00
O956   O     0.20345   0.25620   0.71361   0.00000  Uiso   1.00
Zn957  Zn    0.19338   0.13994   0.78734   0.00000  Uiso   1.00
Zn958  Zn    0.13379   0.12458   0.71876   0.00000  Uiso   1.00
Zn959  Zn    0.21056   0.19775   0.70657   0.00000  Uiso   1.00
Zn960  Zn    0.12893   0.20439   0.78734   0.00000  Uiso   1.00
C961   C     0.38641   0.15982   0.75962   0.00000  Uiso   1.00
C962   C     0.50763   0.16573   0.56011   0.00000  Uiso   1.00
C963   C     0.55309   0.11179   0.55619   0.00000  Uiso   1.00
C964   C     0.61411   0.17404   0.74029   0.00000  Uiso   1.00
C965   C     0.47775   0.19589   0.91951   0.00000  Uiso   1.00
C966   C     0.65992   0.17797   0.73775   0.00000  Uiso   1.00
C967   C     0.34103   0.15632   0.76422   0.00000  Uiso   1.00
C968   C     0.51422   0.32302   0.73572   0.00000  Uiso   1.00
C969   C     0.48557   0.01175   0.76380   0.00000  Uiso   1.00
C970   C     0.48895   0.05596   0.76076   0.00000  Uiso   1.00
C971   C     0.51007   0.27803   0.73997   0.00000  Uiso   1.00
C972   C     0.42943   0.21761   0.98917   0.00000  Uiso   1.00
C973   C     0.51883   0.14806   0.62948   0.00000  Uiso   1.00
C974   C     0.48359   0.18617   0.87065   0.00000  Uiso   1.00
C975   C     0.56283   0.11057   0.50965   0.00000  Uiso   1.00
C976   C     0.52648   0.14103   0.58129   0.00000  Uiso   1.00
C977   C     0.44220   0.21566   0.94288   0.00000  Uiso   1.00
C978   C     0.57804   0.08785   0.88517   0.00000  Uiso   1.00
C979   C     0.55178   0.04876   0.90690   0.00000  Uiso   1.00
C980   C     0.53649   0.01750   0.87218   0.00000  Uiso   1.00
C981   C     0.40177   0.16145   0.56788   0.00000  Uiso   1.00
C982   C     0.35742   0.17505   0.58871   0.00000  Uiso   1.00
C983   C     0.45062   0.19850   0.51353   0.00000  Uiso   1.00
C984   C     0.65790   0.13831   0.60649   0.00000  Uiso   1.00
C985   C     0.58702   0.22439   0.89077   0.00000  Uiso   1.00
C986   C     0.61712   0.24011   0.84745   0.00000  Uiso   1.00
C987   C     0.63873   0.28433   0.85512   0.00000  Uiso   1.00
C988   C     0.35657   0.24450   0.72339   0.00000  Uiso   1.00
C989   C     0.39381   0.27044   0.69307   0.00000  Uiso   1.00
C990   C     0.39611   0.31655   0.70945   0.00000  Uiso   1.00
C991   C     0.48923   0.18112   0.99126   0.00000  Uiso   1.00
C992   C     0.50383   0.18199   0.94378   0.00000  Uiso   1.00
C993   C     0.51303   0.16113   0.51358   0.00000  Uiso   1.00
C994   C     0.54447   0.13604   0.98807   0.00000  Uiso   1.00
C995   C     0.55897   0.13866   0.94169   0.00000  Uiso   1.00
C996   C     0.54387   0.16794   0.92202   0.00000  Uiso   1.00
H997   H     0.45947   0.33088   0.78957   0.00000  Uiso   1.00
H998   H     0.55978   0.10156   0.86583   0.00000  Uiso   1.00
H999   H     0.57181   0.03378   0.92297   0.00000  Uiso   1.00
H1000  H     0.52329   0.05748   0.93312   0.00000  Uiso   1.00
H1001  H     0.56409   0.00886   0.84471   0.00000  Uiso   1.00
H1002  H     0.51931   0.32214   0.88838   0.00000  Uiso   1.00
H1003  H     0.51426   0.03110   0.85777   0.00000  Uiso   1.00
H1004  H     0.41051   0.14418   0.59245   0.00000  Uiso   1.00
H1005  H     0.40049   0.13911   0.53801   0.00000  Uiso   1.00
H1006  H     0.35913   0.19908   0.61676   0.00000  Uiso   1.00
H1007  H     0.34673   0.18904   0.56309   0.00000  Uiso   1.00
H1008  H     0.58549   0.09003   0.99048   0.00000  Uiso   1.00
H1009  H     0.65576   0.11373   0.57905   0.00000  Uiso   1.00
H1010  H     0.62599   0.14911   0.62037   0.00000  Uiso   1.00
H1011  H     0.33365   0.12497   0.63361   0.00000  Uiso   1.00
H1012  H     0.60568   0.22603   0.91642   0.00000  Uiso   1.00
H1013  H     0.56136   0.24511   0.90266   0.00000  Uiso   1.00
H1014  H     0.64221   0.21907   0.83440   0.00000  Uiso   1.00
H1015  H     0.59867   0.23976   0.82197   0.00000  Uiso   1.00
H1016  H     0.65943   0.28478   0.87844   0.00000  Uiso   1.00
H1017  H     0.61435   0.30585   0.86946   0.00000  Uiso   1.00
H1018  H     0.65892   0.29552   0.82276   0.00000  Uiso   1.00
H1019  H     0.49078   0.18985   0.58074   0.00000  Uiso   1.00
H1020  H     0.36168   0.24821   0.75783   0.00000  Uiso   1.00
H1021  H     0.65948   0.25651   0.72419   0.00000  Uiso   1.00
H1022  H     0.42436   0.25894   0.69262   0.00000  Uiso   1.00
H1023  H     0.38981   0.26687   0.65833   0.00000  Uiso   1.00
H1024  H     0.36657   0.32912   0.70845   0.00000  Uiso   1.00
H1025  H     0.42409   0.00103   0.68746   0.00000  Uiso   1.00
H1026  H     0.39979   0.32083   0.74429   0.00000  Uiso   1.00
H1027  H     0.42261   0.22791   0.92530   0.00000  Uiso   1.00
H1028  H     0.40102   0.23192   0.50631   0.00000  Uiso   1.00
H1029  H     0.56106   0.08817   0.60825   0.00000  Uiso   1.00
H1030  H     0.66441   0.11803   0.81081   0.00000  Uiso   1.00
H1031  H     0.56520   0.32246   0.68576   0.00000  Uiso   1.00
H1032  H     0.60682   0.07791   0.86044   0.00000  Uiso   1.00
O1033  O     0.50000   0.16667   0.75000   0.00000  Uiso   1.00
O1034  O     0.48784   0.12637   0.65459   0.00000  Uiso   1.00
O1035  O     0.46274   0.20391   0.84968   0.00000  Uiso   1.00
O1036  O     0.54157   0.17759   0.64606   0.00000  Uiso   1.00
O1037  O     0.50785   0.15880   0.84968   0.00000  Uiso   1.00
O1038  O     0.57169   0.08542   0.57524   0.00000  Uiso   1.00
O1039  O     0.64704   0.13054   0.79507   0.00000  Uiso   1.00
O1040  O     0.54683   0.00977   0.70364   0.00000  Uiso   1.00
O1041  O     0.59234   0.11717   0.91713   0.00000  Uiso   1.00
O1042  O     0.43244   0.19726   0.55901   0.00000  Uiso   1.00
O1043  O     0.56937   0.18285   0.88221   0.00000  Uiso   1.00
O1044  O     0.51264   0.08019   0.78214   0.00000  Uiso   1.00
O1045  O     0.35535   0.20236   0.70627   0.00000  Uiso   1.00
O1046  O     0.47965   0.26085   0.77014   0.00000  Uiso   1.00
O1047  O     0.40745   0.13291   0.73413   0.00000  Uiso   1.00
O1048  O     0.60026   0.19272   0.71361   0.00000  Uiso   1.00
O1049  O     0.40405   0.18878   0.78213   0.00000  Uiso   1.00
O1050  O     0.58824   0.15226   0.77014   0.00000  Uiso   1.00
O1051  O     0.47093   0.06944   0.73413   0.00000  Uiso   1.00
O1052  O     0.53678   0.25620   0.71361   0.00000  Uiso   1.00
Zn1053 Zn    0.52672   0.13994   0.78734   0.00000  Uiso   1.00
Zn1054 Zn    0.46713   0.12458   0.71876   0.00000  Uiso   1.00
Zn1055 Zn    0.54389   0.19775   0.70657   0.00000  Uiso   1.00
Zn1056 Zn    0.46226   0.20439   0.78734   0.00000  Uiso   1.00
C1057  C     0.71975   0.15982   0.75962   0.00000  Uiso   1.00
C1058  C     0.84096   0.16573   0.56011   0.00000  Uiso   1.00
C1059  C     0.88642   0.11179   0.55619   0.00000  Uiso   1.00
C1060  C     0.94744   0.17404   0.74029   0.00000  Uiso   1.00
C1061  C     0.81108   0.19589   0.91951   0.00000  Uiso   1.00
C1062  C     0.99325   0.17797   0.73775   0.00000  Uiso   1.00
C1063  C     0.67436   0.15632   0.76422   0.00000  Uiso   1.00
C1064  C     0.84755   0.32302   0.73572   0.00000  Uiso   1.00
C1065  C     0.81890   0.01175   0.76380   0.00000  Uiso   1.00
C1066  C     0.82229   0.05596   0.76076   0.00000  Uiso   1.00
C1067  C     0.84340   0.27803   0.73997   0.00000  Uiso   1.00
C1068  C     0.76277   0.21761   0.98917   0.00000  Uiso   1.00
C1069  C     0.85216   0.14806   0.62948   0.00000  Uiso   1.00
C1070  C     0.81692   0.18617   0.87065   0.00000  Uiso   1.00
C1071  C     0.89616   0.11057   0.50965   0.00000  Uiso   1.00
C1072  C     0.85982   0.14103   0.58129   0.00000  Uiso   1.00
C1073  C     0.77553   0.21566   0.94288   0.00000  Uiso   1.00
C1074  C     0.91137   0.08785   0.88517   0.00000  Uiso   1.00
C1075  C     0.88511   0.04876   0.90690   0.00000  Uiso   1.00
C1076  C     0.86983   0.01750   0.87218   0.00000  Uiso   1.00
C1077  C     0.73510   0.16145   0.56788   0.00000  Uiso   1.00
C1078  C     0.69075   0.17505   0.58871   0.00000  Uiso   1.00
C1079  C     0.78395   0.19850   0.51353   0.00000  Uiso   1.00
C1080  C     0.99124   0.13831   0.60649   0.00000  Uiso   1.00
C1081  C     0.92035   0.22439   0.89077   0.00000  Uiso   1.00
C1082  C     0.95046   0.24011   0.84745   0.00000  Uiso   1.00
C1083  C     0.97206   0.28433   0.85512   0.00000  Uiso   1.00
C1084  C     0.68991   0.24450   0.72339   0.00000  Uiso   1.00
C1085  C     0.72715   0.27044   0.69307   0.00000  Uiso   1.00
C1086  C     0.72944   0.31655   0.70945   0.00000  Uiso   1.00
C1087  C     0.82257   0.18112   0.99126   0.00000  Uiso   1.00
C1088  C     0.83716   0.18199   0.94378   0.00000  Uiso   1.00
C1089  C     0.84637   0.16113   0.51358   0.00000  Uiso   1.00
C1090  C     0.87780   0.13604   0.98807   0.00000  Uiso   1.00
C1091  C     0.89230   0.13866   0.94169   0.00000  Uiso   1.00
C1092  C     0.87721   0.16794   0.92202   0.00000  Uiso   1.00
H1093  H     0.79280   0.33088   0.78957   0.00000  Uiso   1.00
H1094  H     0.89312   0.10156   0.86583   0.00000  Uiso   1.00
H1095  H     0.90515   0.03378   0.92297   0.00000  Uiso   1.00
H1096  H     0.85662   0.05748   0.93312   0.00000  Uiso   1.00
H1097  H     0.89743   0.00886   0.84471   0.00000  Uiso   1.00
H1098  H     0.85264   0.32214   0.88838   0.00000  Uiso   1.00
H1099  H     0.84759   0.03110   0.85777   0.00000  Uiso   1.00
H1100  H     0.74385   0.14418   0.59245   0.00000  Uiso   1.00
H1101  H     0.73382   0.13911   0.53801   0.00000  Uiso   1.00
H1102  H     0.69246   0.19908   0.61676   0.00000  Uiso   1.00
H1103  H     0.68006   0.18904   0.56309   0.00000  Uiso   1.00
H1104  H     0.91882   0.09003   0.99048   0.00000  Uiso   1.00
H1105  H     0.98909   0.11373   0.57905   0.00000  Uiso   1.00
H1106  H     0.95932   0.14911   0.62037   0.00000  Uiso   1.00
H1107  H     0.66698   0.12497   0.63361   0.00000  Uiso   1.00
H1108  H     0.93901   0.22603   0.91642   0.00000  Uiso   1.00
H1109  H     0.89470   0.24511   0.90266   0.00000  Uiso   1.00
H1110  H     0.97555   0.21907   0.83440   0.00000  Uiso   1.00
H1111  H     0.93200   0.23976   0.82197   0.00000  Uiso   1.00
H1112  H     0.99277   0.28478   0.87844   0.00000  Uiso   1.00
H1113  H     0.94768   0.30585   0.86946   0.00000  Uiso   1.00
H1114  H     0.99225   0.29552   0.82276   0.00000  Uiso   1.00
H1115  H     0.82411   0.18985   0.58074   0.00000  Uiso   1.00
H1116  H     0.69501   0.24821   0.75783   0.00000  Uiso   1.00
H1117  H     0.99282   0.25651   0.72419   0.00000  Uiso   1.00
H1118  H     0.75769   0.25894   0.69262   0.00000  Uiso   1.00
H1119  H     0.72314   0.26687   0.65833   0.00000  Uiso   1.00
H1120  H     0.69991   0.32912   0.70845   0.00000  Uiso   1.00
H1121  H     0.75743   0.00103   0.68746   0.00000  Uiso   1.00
H1122  H     0.73312   0.32083   0.74429   0.00000  Uiso   1.00
H1123  H     0.75594   0.22791   0.92530   0.00000  Uiso   1.00
H1124  H     0.73436   0.23192   0.50631   0.00000  Uiso   1.00
H1125  H     0.89439   0.08817   0.60825   0.00000  Uiso   1.00
H1126  H     0.99774   0.11803   0.81081   0.00000  Uiso   1.00
H1127  H     0.89853   0.32246   0.68576   0.00000  Uiso   1.00
H1128  H     0.94015   0.07791   0.86044   0.00000  Uiso   1.00
O1129  O     0.83333   0.16667   0.75000   0.00000  Uiso   1.00
O1130  O     0.82118   0.12637   0.65459   0.00000  Uiso   1.00
O1131  O     0.79607   0.20391   0.84968   0.00000  Uiso   1.00
O1132  O     0.87491   0.17759   0.64606   0.00000  Uiso   1.00
O1133  O     0.84118   0.15880   0.84968   0.00000  Uiso   1.00
O1134  O     0.90502   0.08542   0.57524   0.00000  Uiso   1.00
O1135  O     0.98037   0.13054   0.79507   0.00000  Uiso   1.00
O1136  O     0.88016   0.00977   0.70364   0.00000  Uiso   1.00
O1137  O     0.92567   0.11717   0.91713   0.00000  Uiso   1.00
O1138  O     0.76577   0.19726   0.55901   0.00000  Uiso   1.00
O1139  O     0.90271   0.18285   0.88221   0.00000  Uiso   1.00
O1140  O     0.84597   0.08019   0.78214   0.00000  Uiso   1.00
O1141  O     0.68868   0.20236   0.70627   0.00000  Uiso   1.00
O1142  O     0.81298   0.26085   0.77014   0.00000  Uiso   1.00
O1143  O     0.74078   0.13291   0.73413   0.00000  Uiso   1.00
O1144  O     0.93360   0.19272   0.71361   0.00000  Uiso   1.00
O1145  O     0.73738   0.18878   0.78213   0.00000  Uiso   1.00
O1146  O     0.92158   0.15226   0.77014   0.00000  Uiso   1.00
O1147  O     0.80426   0.06944   0.73413   0.00000  Uiso   1.00
O1148  O     0.87012   0.25620   0.71361   0.00000  Uiso   1.00
Zn1149 Zn    0.86005   0.13994   0.78734   0.00000  Uiso   1.00
Zn1150 Zn    0.80046   0.12458   0.71876   0.00000  Uiso   1.00
Zn1151 Zn    0.87723   0.19775   0.70657   0.00000  Uiso   1.00
Zn1152 Zn    0.79560   0.20439   0.78734   0.00000  Uiso   1.00
C1153  C     0.05308   0.49315   0.75962   0.00000  Uiso   1.00
C1154  C     0.17429   0.49906   0.56011   0.00000  Uiso   1.00
C1155  C     0.21976   0.44513   0.55619   0.00000  Uiso   1.00
C1156  C     0.28077   0.50737   0.74029   0.00000  Uiso   1.00
C1157  C     0.14441   0.52922   0.91951   0.00000  Uiso   1.00
C1158  C     0.32658   0.51131   0.73775   0.00000  Uiso   1.00
C1159  C     0.00769   0.48965   0.76422   0.00000  Uiso   1.00
C1160  C     0.18089   0.65636   0.73572   0.00000  Uiso   1.00
C1161  C     0.15223   0.34508   0.76380   0.00000  Uiso   1.00
C1162  C     0.15562   0.38930   0.76076   0.00000  Uiso   1.00
C1163  C     0.17674   0.61137   0.73997   0.00000  Uiso   1.00
C1164  C     0.09610   0.55095   0.98917   0.00000  Uiso   1.00
C1165  C     0.18549   0.48139   0.62948   0.00000  Uiso   1.00
C1166  C     0.15026   0.51951   0.87065   0.00000  Uiso   1.00
C1167  C     0.22950   0.44390   0.50965   0.00000  Uiso   1.00
C1168  C     0.19315   0.47437   0.58129   0.00000  Uiso   1.00
C1169  C     0.10886   0.54900   0.94288   0.00000  Uiso   1.00
C1170  C     0.24471   0.42119   0.88517   0.00000  Uiso   1.00
C1171  C     0.21844   0.38209   0.90690   0.00000  Uiso   1.00
C1172  C     0.20316   0.35083   0.87218   0.00000  Uiso   1.00
C1173  C     0.06844   0.49478   0.56788   0.00000  Uiso   1.00
C1174  C     0.02408   0.50838   0.58871   0.00000  Uiso   1.00
C1175  C     0.11728   0.53184   0.51353   0.00000  Uiso   1.00
C1176  C     0.32457   0.47165   0.60649   0.00000  Uiso   1.00
C1177  C     0.25369   0.55773   0.89077   0.00000  Uiso   1.00
C1178  C     0.28379   0.57344   0.84745   0.00000  Uiso   1.00
C1179  C     0.30539   0.61766   0.85512   0.00000  Uiso   1.00
C1180  C     0.02324   0.57784   0.72339   0.00000  Uiso   1.00
C1181  C     0.06048   0.60377   0.69307   0.00000  Uiso   1.00
C1182  C     0.06278   0.64988   0.70945   0.00000  Uiso   1.00
C1183  C     0.15590   0.51446   0.99126   0.00000  Uiso   1.00
C1184  C     0.17049   0.51533   0.94378   0.00000  Uiso   1.00
C1185  C     0.17970   0.49447   0.51358   0.00000  Uiso   1.00
C1186  C     0.21113   0.46938   0.98807   0.00000  Uiso   1.00
C1187  C     0.22564   0.47199   0.94169   0.00000  Uiso   1.00
C1188  C     0.21054   0.50128   0.92202   0.00000  Uiso   1.00
H1189  H     0.12614   0.66421   0.78957   0.00000  Uiso   1.00
H1190  H     0.22645   0.43489   0.86583   0.00000  Uiso   1.00
H1191  H     0.23848   0.36711   0.92297   0.00000  Uiso   1.00
H1192  H     0.18996   0.39081   0.93312   0.00000  Uiso   1.00
H1193  H     0.23076   0.34219   0.84471   0.00000  Uiso   1.00
H1194  H     0.18598   0.65547   0.88838   0.00000  Uiso   1.00
H1195  H     0.18092   0.36443   0.85777   0.00000  Uiso   1.00
H1196  H     0.07718   0.47751   0.59245   0.00000  Uiso   1.00
H1197  H     0.06715   0.47244   0.53801   0.00000  Uiso   1.00
H1198  H     0.02580   0.53241   0.61676   0.00000  Uiso   1.00
H1199  H     0.01339   0.52238   0.56309   0.00000  Uiso   1.00
H1200  H     0.25216   0.42336   0.99048   0.00000  Uiso   1.00
H1201  H     0.32242   0.44706   0.57905   0.00000  Uiso   1.00
H1202  H     0.29265   0.48244   0.62037   0.00000  Uiso   1.00
H1203  H     0.00032   0.45831   0.63361   0.00000  Uiso   1.00
H1204  H     0.27234   0.55936   0.91642   0.00000  Uiso   1.00
H1205  H     0.22803   0.57845   0.90266   0.00000  Uiso   1.00
H1206  H     0.30888   0.55240   0.83440   0.00000  Uiso   1.00
H1207  H     0.26533   0.57309   0.82197   0.00000  Uiso   1.00
H1208  H     0.32610   0.61812   0.87844   0.00000  Uiso   1.00
H1209  H     0.28101   0.63919   0.86946   0.00000  Uiso   1.00
H1210  H     0.32559   0.62885   0.82276   0.00000  Uiso   1.00
H1211  H     0.15744   0.52319   0.58074   0.00000  Uiso   1.00
H1212  H     0.02834   0.58155   0.75783   0.00000  Uiso   1.00
H1213  H     0.32615   0.58985   0.72419   0.00000  Uiso   1.00
H1214  H     0.09102   0.59227   0.69262   0.00000  Uiso   1.00
H1215  H     0.05647   0.60021   0.65833   0.00000  Uiso   1.00
H1216  H     0.03324   0.66245   0.70845   0.00000  Uiso   1.00
H1217  H     0.09076   0.33437   0.68746   0.00000  Uiso   1.00
H1218  H     0.06646   0.65417   0.74429   0.00000  Uiso   1.00
H1219  H     0.08928   0.56124   0.92530   0.00000  Uiso   1.00
H1220  H     0.06769   0.56525   0.50631   0.00000  Uiso   1.00
H1221  H     0.22772   0.42151   0.60825   0.00000  Uiso   1.00
H1222  H     0.33108   0.45137   0.81081   0.00000  Uiso   1.00
H1223  H     0.23187   0.65579   0.68576   0.00000  Uiso   1.00
H1224  H     0.27349   0.41125   0.86044   0.00000  Uiso   1.00
O1225  O     0.16667   0.50000   0.75000   0.00000  Uiso   1.00
O1226  O     0.15451   0.45970   0.65459   0.00000  Uiso   1.00
O1227  O     0.12940   0.53724   0.84968   0.00000  Uiso   1.00
O1228  O     0.20824   0.51092   0.64606   0.00000  Uiso   1.00
O1229  O     0.17451   0.49213   0.84968   0.00000  Uiso   1.00
O1230  O     0.23835   0.41876   0.57524   0.00000  Uiso   1.00
O1231  O     0.31370   0.46388   0.79507   0.00000  Uiso   1.00
O1232  O     0.21350   0.34310   0.70364   0.00000  Uiso   1.00
O1233  O     0.25901   0.45050   0.91713   0.00000  Uiso   1.00
O1234  O     0.09911   0.53059   0.55901   0.00000  Uiso   1.00
O1235  O     0.23604   0.51618   0.88221   0.00000  Uiso   1.00
O1236  O     0.17930   0.41352   0.78214   0.00000  Uiso   1.00
O1237  O     0.02202   0.53569   0.70627   0.00000  Uiso   1.00
O1238  O     0.14632   0.59418   0.77014   0.00000  Uiso   1.00
O1239  O     0.07412   0.46625   0.73413   0.00000  Uiso   1.00
O1240  O     0.26693   0.52605   0.71361   0.00000  Uiso   1.00
O1241  O     0.07071   0.52211   0.78213   0.00000  Uiso   1.00
O1242  O     0.25491   0.48559   0.77014   0.00000  Uiso   1.00
O1243  O     0.13760   0.40277   0.73413   0.00000  Uiso   1.00
O1244  O     0.20345   0.58953   0.71361   0.00000  Uiso   1.00
Zn1245 Zn    0.19338   0.47327   0.78734   0.00000  Uiso   1.00
Zn1246 Zn    0.13379   0.45791   0.71876   0.00000  Uiso   1.00
Zn1247 Zn    0.21056   0.53109   0.70657   0.00000  Uiso   1.00
Zn1248 Zn    0.12893   0.53773   0.78734   0.00000  Uiso   1.00
C1249  C     0.38641   0.49315   0.75962   0.00000  Uiso   1.00
C1250  C     0.50763   0.49906   0.56011   0.00000  Uiso   1.00
C1251  C     0.55309   0.44513   0.55619   0.00000  Uiso   1.00
C1252  C     0.61411   0.50737   0.74029   0.00000  Uiso   1.00
C1253  C     0.47775   0.52922   0.91951   0.00000  Uiso   1.00
C1254  C     0.65992   0.51131   0.73775   0.00000  Uiso   1.00
C1255  C     0.34103   0.48965   0.76422   0.00000  Uiso   1.00
C1256  C     0.51422   0.65636   0.73572   0.00000  Uiso   1.00
C1257  C     0.48557   0.34508   0.76380   0.00000  Uiso   1.00
C1258  C     0.48895   0.38930   0.76076   0.00000  Uiso   1.00
C1259  C     0.51007   0.61137   0.73997   0.00000  Uiso   1.00
C1260  C     0.42943   0.55095   0.98917   0.00000  Uiso   1.00
C1261  C     0.51883   0.48139   0.62948   0.00000  Uiso   1.00
C1262  C     0.48359   0.51951   0.87065   0.00000  Uiso   1.00
C1263  C     0.56283   0.44390   0.50965   0.00000  Uiso   1.00
C1264  C     0.52648   0.47437   0.58129   0.00000  Uiso   1.00
C1265  C     0.44220   0.54900   0.94288   0.00000  Uiso   1.00
C1266  C     0.57804   0.42119   0.88517   0.00000  Uiso   1.00
C1267  C     0.55178   0.38209   0.90690   0.00000  Uiso   1.00
C1268  C     0.53649   0.35083   0.87218   0.00000  Uiso   1.00
C1269  C     0.40177   0.49478   0.56788   0.00000  Uiso   1.00
C1270  C     0.35742   0.50838   0.58871   0.00000  Uiso   1.00
C1271  C     0.45062   0.53184   0.51353   0.00000  Uiso   1.00
C1272  C     0.65790   0.47165   0.60649   0.00000  Uiso   1.00
C1273  C     0.58702   0.55773   0.89077   0.00000  Uiso   1.00
C1274  C     0.61712   0.57344   0.84745   0.00000  Uiso   1.00
C1275  C     0.63873   0.61766   0.85512   0.00000  Uiso   1.00
C1276  C     0.35657   0.57784   0.72339   0.00000  Uiso   1.00
C1277  C     0.39381   0.60377   0.69307   0.00000  Uiso   1.00
C1278  C     0.39611   0.64988   0.70945   0.00000  Uiso   1.00
C1279  C     0.48923   0.51446   0.99126   0.00000  Uiso   1.00
C1280  C     0.50383   0.51533   0.94378   0.00000  Uiso   1.00
C1281  C     0.51303   0.49447   0.51358   0.00000  Uiso   1.00
C1282  C     0.54447   0.46938   0.98807   0.00000  Uiso   1.00
C1283  C     0.55897   0.47199   0.94169   0.00000  Uiso   1.00
C1284  C     0.54387   0.50128   0.92202   0.00000  Uiso   1.00
H1285  H     0.45947   0.66421   0.78957   0.00000  Uiso   1.00
H1286  H     0.55978   0.43489   0.86583   0.00000  Uiso   1.00
H1287  H     0.57181   0.36711   0.92297   0.00000  Uiso   1.00
H1288  H     0.52329   0.39081   0.93312   0.00000  Uiso   1.00
H1289  H     0.56409   0.34219   0.84471   0.00000  Uiso   1.00
H1290  H     0.51931   0.65547   0.88838   0.00000  Uiso   1.00
H1291  H     0.51426   0.36443   0.85777   0.00000  Uiso   1.00
H1292  H     0.41051   0.47751   0.59245   0.00000  Uiso   1.00
H1293  H     0.40049   0.47244   0.53801   0.00000  Uiso   1.00
H1294  H     0.35913   0.53241   0.61676   0.00000  Uiso   1.00
H1295  H     0.34673   0.52238   0.56309   0.00000  Uiso   1.00
H1296  H     0.58549   0.42336   0.99048   0.00000  Uiso   1.00
H1297  H     0.65576   0.44706   0.57905   0.00000  Uiso   1.00
H1298  H     0.62599   0.48244   0.62037   0.00000  Uiso   1.00
H1299  H     0.33365   0.45831   0.63361   0.00000  Uiso   1.00
H1300  H     0.60568   0.55936   0.91642   0.00000  Uiso   1.00
H1301  H     0.56136   0.57845   0.90266   0.00000  Uiso   1.00
H1302  H     0.64221   0.55240   0.83440   0.00000  Uiso   1.00
H1303  H     0.59867   0.57309   0.82197   0.00000  Uiso   1.00
H1304  H     0.65943   0.61812   0.87844   0.00000  Uiso   1.00
H1305  H     0.61435   0.63919   0.86946   0.00000  Uiso   1.00
H1306  H     0.65892   0.62885   0.82276   0.00000  Uiso   1.00
H1307  H     0.49078   0.52319   0.58074   0.00000  Uiso   1.00
H1308  H     0.36168   0.58155   0.75783   0.00000  Uiso   1.00
H1309  H     0.65948   0.58985   0.72419   0.00000  Uiso   1.00
H1310  H     0.42436   0.59227   0.69262   0.00000  Uiso   1.00
H1311  H     0.38981   0.60021   0.65833   0.00000  Uiso   1.00
H1312  H     0.36657   0.66245   0.70845   0.00000  Uiso   1.00
H1313  H     0.42409   0.33437   0.68746   0.00000  Uiso   1.00
H1314  H     0.39979   0.65417   0.74429   0.00000  Uiso   1.00
H1315  H     0.42261   0.56124   0.92530   0.00000  Uiso   1.00
H1316  H     0.40102   0.56525   0.50631   0.00000  Uiso   1.00
H1317  H     0.56106   0.42151   0.60825   0.00000  Uiso   1.00
H1318  H     0.66441   0.45137   0.81081   0.00000  Uiso   1.00
H1319  H     0.56520   0.65579   0.68576   0.00000  Uiso   1.00
H1320  H     0.60682   0.41125   0.86044   0.00000  Uiso   1.00
O1321  O     0.50000   0.50000   0.75000   0.00000  Uiso   1.00
O1322  O     0.48784   0.45970   0.65459   0.00000  Uiso   1.00
O1323  O     0.46274   0.53724   0.84968   0.00000  Uiso   1.00
O1324  O     0.54157   0.51092   0.64606   0.00000  Uiso   1.00
O1325  O     0.50785   0.49213   0.84968   0.00000  Uiso   1.00
O1326  O     0.57169   0.41876   0.57524   0.00000  Uiso   1.00
O1327  O     0.64704   0.46388   0.79507   0.00000  Uiso   1.00
O1328  O     0.54683   0.34310   0.70364   0.00000  Uiso   1.00
O1329  O     0.59234   0.45050   0.91713   0.00000  Uiso   1.00
O1330  O     0.43244   0.53059   0.55901   0.00000  Uiso   1.00
O1331  O     0.56937   0.51618   0.88221   0.00000  Uiso   1.00
O1332  O     0.51264   0.41352   0.78214   0.00000  Uiso   1.00
O1333  O     0.35535   0.53569   0.70627   0.00000  Uiso   1.00
O1334  O     0.47965   0.59418   0.77014   0.00000  Uiso   1.00
O1335  O     0.40745   0.46625   0.73413   0.00000  Uiso   1.00
O1336  O     0.60026   0.52605   0.71361   0.00000  Uiso   1.00
O1337  O     0.40405   0.52211   0.78213   0.00000  Uiso   1.00
O1338  O     0.58824   0.48559   0.77014   0.00000  Uiso   1.00
O1339  O     0.47093   0.40277   0.73413   0.00000  Uiso   1.00
O1340  O     0.53678   0.58953   0.71361   0.00000  Uiso   1.00
Zn1341 Zn    0.52672   0.47327   0.78734   0.00000  Uiso   1.00
Zn1342 Zn    0.46713   0.45791   0.71876   0.00000  Uiso   1.00
Zn1343 Zn    0.54389   0.53109   0.70657   0.00000  Uiso   1.00
Zn1344 Zn    0.46226   0.53773   0.78734   0.00000  Uiso   1.00
C1345  C     0.71975   0.49315   0.75962   0.00000  Uiso   1.00
C1346  C     0.84096   0.49906   0.56011   0.00000  Uiso   1.00
C1347  C     0.88642   0.44513   0.55619   0.00000  Uiso   1.00
C1348  C     0.94744   0.50737   0.74029   0.00000  Uiso   1.00
C1349  C     0.81108   0.52922   0.91951   0.00000  Uiso   1.00
C1350  C     0.99325   0.51131   0.73775   0.00000  Uiso   1.00
C1351  C     0.67436   0.48965   0.76422   0.00000  Uiso   1.00
C1352  C     0.84755   0.65636   0.73572   0.00000  Uiso   1.00
C1353  C     0.81890   0.34508   0.76380   0.00000  Uiso   1.00
C1354  C     0.82229   0.38930   0.76076   0.00000  Uiso   1.00
C1355  C     0.84340   0.61137   0.73997   0.00000  Uiso   1.00
C1356  C     0.76277   0.55095   0.98917   0.00000  Uiso   1.00
C1357  C     0.85216   0.48139   0.62948   0.00000  Uiso   1.00
C1358  C     0.81692   0.51951   0.87065   0.00000  Uiso   1.00
C1359  C     0.89616   0.44390   0.50965   0.00000  Uiso   1.00
C1360  C     0.85982   0.47437   0.58129   0.00000  Uiso   1.00
C1361  C     0.77553   0.54900   0.94288   0.00000  Uiso   1.00
C1362  C     0.91137   0.42119   0.88517   0.00000  Uiso   1.00
C1363  C     0.88511   0.38209   0.90690   0.00000  Uiso   1.00
C1364  C     0.86983   0.35083   0.87218   0.00000  Uiso   1.00
C1365  C     0.73510   0.49478   0.56788   0.00000  Uiso   1.00
C1366  C     0.69075   0.50838   0.58871   0.00000  Uiso   1.00
C1367  C     0.78395   0.53184   0.51353   0.00000  Uiso   1.00
C1368  C     0.99124   0.47165   0.60649   0.00000  Uiso   1.00
C1369  C     0.92035   0.55773   0.89077   0.00000  Uiso   1.00
C1370  C     0.95046   0.57344   0.84745   0.00000  Uiso   1.00
C1371  C     0.97206   0.61766   0.85512   0.00000  Uiso   1.00
C1372  C     0.68991   0.57784   0.72339   0.00000  Uiso   1.00
C1373  C     0.72715   0.60377   0.69307   0.00000  Uiso   1.00
C1374  C     0.72944   0.64988   0.70945   0.00000  Uiso   1.00
C1375  C     0.82257   0.51446   0.99126   0.00000  Uiso   1.00
C1376  C     0.83716   0.51533   0.94378   0.00000  Uiso   1.00
C1377  C     0.84637   0.49447   0.51358   0.00000  Uiso   1.00
C1378  C     0.87780   0.46938   0.98807   0.00000  Uiso   1.00
C1379  C     0.89230   0.47199   0.94169   0.00000  Uiso   1.00
C1380  C     0.87721   0.50128   0.92202   0.00000  Uiso   1.00
H1381  H     0.79280   0.66421   0.78957   0.00000  Uiso   1.00
H1382  H     0.89312   0.43489   0.86583   0.00000  Uiso   1.00
H1383  H     0.90515   0.36711   0.92297   0.00000  Uiso   1.00
H1384  H     0.85662   0.39081   0.93312   0.00000  Uiso   1.00
H1385  H     0.89743   0.34219   0.84471   0.00000  Uiso   1.00
H1386  H     0.85264   0.65547   0.88838   0.00000  Uiso   1.00
H1387  H     0.84759   0.36443   0.85777   0.00000  Uiso   1.00
H1388  H     0.74385   0.47751   0.59245   0.00000  Uiso   1.00
H1389  H     0.73382   0.47244   0.53801   0.00000  Uiso   1.00
H1390  H     0.69246   0.53241   0.61676   0.00000  Uiso   1.00
H1391  H     0.68006   0.52238   0.56309   0.00000  Uiso   1.00
H1392  H     0.91882   0.42336   0.99048   0.00000  Uiso   1.00
H1393  H     0.98909   0.44706   0.57905   0.00000  Uiso   1.00
H1394  H     0.95932   0.48244   0.62037   0.00000  Uiso   1.00
H1395  H     0.66698   0.45831   0.63361   0.00000  Uiso   1.00
H1396  H     0.93901   0.55936   0.91642   0.00000  Uiso   1.00
H1397  H     0.89470   0.57845   0.90266   0.00000  Uiso   1.00
H1398  H     0.97555   0.55240   0.83440   0.00000  Uiso   1.00
H1399  H     0.93200   0.57309   0.82197   0.00000  Uiso   1.00
H1400  H     0.99277   0.61812   0.87844   0.00000  Uiso   1.00
H1401  H     0.94768   0.63919   0.86946   0.00000  Uiso   1.00
H1402  H     0.99225   0.62885   0.82276   0.00000  Uiso   1.00
H1403  H     0.82411   0.52319   0.58074   0.00000  Uiso   1.00
H1404  H     0.69501   0.58155   0.75783   0.00000  Uiso   1.00
H1405  H     0.99282   0.58985   0.72419   0.00000  Uiso   1.00
H1406  H     0.75769   0.59227   0.69262   0.00000  Uiso   1.00
H1407  H     0.72314   0.60021   0.65833   0.00000  Uiso   1.00
H1408  H     0.69991   0.66245   0.70845   0.00000  Uiso   1.00
H1409  H     0.75743   0.33437   0.68746   0.00000  Uiso   1.00
H1410  H     0.73312   0.65417   0.74429   0.00000  Uiso   1.00
H1411  H     0.75594   0.56124   0.92530   0.00000  Uiso   1.00
H1412  H     0.73436   0.56525   0.50631   0.00000  Uiso   1.00
H1413  H     0.89439   0.42151   0.60825   0.00000  Uiso   1.00
H1414  H     0.99774   0.45137   0.81081   0.00000  Uiso   1.00
H1415  H     0.89853   0.65579   0.68576   0.00000  Uiso   1.00
H1416  H     0.94015   0.41125   0.86044   0.00000  Uiso   1.00
O1417  O     0.83333   0.50000   0.75000   0.00000  Uiso   1.00
O1418  O     0.82118   0.45970   0.65459   0.00000  Uiso   1.00
O1419  O     0.79607   0.53724   0.84968   0.00000  Uiso   1.00
O1420  O     0.87491   0.51092   0.64606   0.00000  Uiso   1.00
O1421  O     0.84118   0.49213   0.84968   0.00000  Uiso   1.00
O1422  O     0.90502   0.41876   0.57524   0.00000  Uiso   1.00
O1423  O     0.98037   0.46388   0.79507   0.00000  Uiso   1.00
O1424  O     0.88016   0.34310   0.70364   0.00000  Uiso   1.00
O1425  O     0.92567   0.45050   0.91713   0.00000  Uiso   1.00
O1426  O     0.76577   0.53059   0.55901   0.00000  Uiso   1.00
O1427  O     0.90271   0.51618   0.88221   0.00000  Uiso   1.00
O1428  O     0.84597   0.41352   0.78214   0.00000  Uiso   1.00
O1429  O     0.68868   0.53569   0.70627   0.00000  Uiso   1.00
O1430  O     0.81298   0.59418   0.77014   0.00000  Uiso   1.00
O1431  O     0.74078   0.46625   0.73413   0.00000  Uiso   1.00
O1432  O     0.93360   0.52605   0.71361   0.00000  Uiso   1.00
O1433  O     0.73738   0.52211   0.78213   0.00000  Uiso   1.00
O1434  O     0.92158   0.48559   0.77014   0.00000  Uiso   1.00
O1435  O     0.80426   0.40277   0.73413   0.00000  Uiso   1.00
O1436  O     0.87012   0.58953   0.71361   0.00000  Uiso   1.00
Zn1437 Zn    0.86005   0.47327   0.78734   0.00000  Uiso   1.00
Zn1438 Zn    0.80046   0.45791   0.71876   0.00000  Uiso   1.00
Zn1439 Zn    0.87723   0.53109   0.70657   0.00000  Uiso   1.00
Zn1440 Zn    0.79560   0.53773   0.78734   0.00000  Uiso   1.00
C1441  C     0.05308   0.82649   0.75962   0.00000  Uiso   1.00
C1442  C     0.17429   0.83239   0.56011   0.00000  Uiso   1.00
C1443  C     0.21976   0.77846   0.55619   0.00000  Uiso   1.00
C1444  C     0.28077   0.84070   0.74029   0.00000  Uiso   1.00
C1445  C     0.14441   0.86255   0.91951   0.00000  Uiso   1.00
C1446  C     0.32658   0.84464   0.73775   0.00000  Uiso   1.00
C1447  C     0.00769   0.82299   0.76422   0.00000  Uiso   1.00
C1448  C     0.18089   0.98969   0.73572   0.00000  Uiso   1.00
C1449  C     0.15223   0.67842   0.76380   0.00000  Uiso   1.00
C1450  C     0.15562   0.72263   0.76076   0.00000  Uiso   1.00
C1451  C     0.17674   0.94470   0.73997   0.00000  Uiso   1.00
C1452  C     0.09610   0.88428   0.98917   0.00000  Uiso   1.00
C1453  C     0.18549   0.81472   0.62948   0.00000  Uiso   1.00
C1454  C     0.15026   0.85284   0.87065   0.00000  Uiso   1.00
C1455  C     0.22950   0.77724   0.50965   0.00000  Uiso   1.00
C1456  C     0.19315   0.80770   0.58129   0.00000  Uiso   1.00
C1457  C     0.10886   0.88233   0.94288   0.00000  Uiso   1.00
C1458  C     0.24471   0.75452   0.88517   0.00000  Uiso   1.00
C1459  C     0.21844   0.71542   0.90690   0.00000  Uiso   1.00
C1460  C     0.20316   0.68416   0.87218   0.00000  Uiso   1.00
C1461  C     0.06844   0.82812   0.56788   0.00000  Uiso   1.00
C1462  C     0.02408   0.84171   0.58871   0.00000  Uiso   1.00
C1463  C     0.11728   0.86517   0.51353   0.00000  Uiso   1.00
C1464  C     0.32457   0.80498   0.60649   0.00000  Uiso   1.00
C1465  C     0.25369   0.89106   0.89077   0.00000  Uiso   1.00
C1466  C     0.28379   0.90677   0.84745   0.00000  Uiso   1.00
C1467  C     0.30539   0.95100   0.85512   0.00000  Uiso   1.00
C1468  C     0.02324   0.91117   0.72339   0.00000  Uiso   1.00
C1469  C     0.06048   0.93710   0.69307   0.00000  Uiso   1.00
C1470  C     0.06278   0.98322   0.70945   0.00000  Uiso   1.00
C1471  C     0.15590   0.84779   0.99126   0.00000  Uiso   1.00
C1472  C     0.17049   0.84866   0.94378   0.00000  Uiso   1.00
C1473  C     0.17970   0.82780   0.51358   0.00000  Uiso   1.00
C1474  C     0.21113   0.80271   0.98807   0.00000  Uiso   1.00
C1475  C     0.22564   0.80532   0.94169   0.00000  Uiso   1.00
C1476  C     0.21054   0.83461   0.92202   0.00000  Uiso   1.00
H1477  H     0.12614   0.99755   0.78957   0.00000  Uiso   1.00
H1478  H     0.22645   0.76822   0.86583   0.00000  Uiso   1.00
H1479  H     0.23848   0.70044   0.92297   0.00000  Uiso   1.00
H1480  H     0.18996   0.72415   0.93312   0.00000  Uiso   1.00
H1481  H     0.23076   0.67553   0.84471   0.00000  Uiso   1.00
H1482  H     0.18598   0.98880   0.88838   0.00000  Uiso   1.00
H1483  H     0.18092   0.69777   0.85777   0.00000  Uiso   1.00
H1484  H     0.07718   0.81084   0.59245   0.00000  Uiso   1.00
H1485  H     0.06715   0.80578   0.53801   0.00000  Uiso   1.00
H1486  H     0.02580   0.86574   0.61676   0.00000  Uiso   1.00
H1487  H     0.01339   0.85571   0.56309   0.00000  Uiso   1.00
H1488  H     0.25216   0.75670   0.99048   0.00000  Uiso   1.00
H1489  H     0.32242   0.78040   0.57905   0.00000  Uiso   1.00
H1490  H     0.29265   0.81578   0.62037   0.00000  Uiso   1.00
H1491  H     0.00032   0.79164   0.63361   0.00000  Uiso   1.00
H1492  H     0.27234   0.89269   0.91642   0.00000  Uiso   1.00
H1493  H     0.22803   0.91178   0.90266   0.00000  Uiso   1.00
H1494  H     0.30888   0.88573   0.83440   0.00000  Uiso   1.00
H1495  H     0.26533   0.90643   0.82197   0.00000  Uiso   1.00
H1496  H     0.32610   0.95145   0.87844   0.00000  Uiso   1.00
H1497  H     0.28101   0.97252   0.86946   0.00000  Uiso   1.00
H1498  H     0.32559   0.96219   0.82276   0.00000  Uiso   1.00
H1499  H     0.15744   0.85652   0.58074   0.00000  Uiso   1.00
H1500  H     0.02834   0.91488   0.75783   0.00000  Uiso   1.00
H1501  H     0.32615   0.92318   0.72419   0.00000  Uiso   1.00
H1502  H     0.09102   0.92561   0.69262   0.00000  Uiso   1.00
H1503  H     0.05647   0.93354   0.65833   0.00000  Uiso   1.00
H1504  H     0.03324   0.99579   0.70845   0.00000  Uiso   1.00
H1505  H     0.09076   0.66770   0.68746   0.00000  Uiso   1.00
H1506  H     0.06646   0.98750   0.74429   0.00000  Uiso   1.00
H1507  H     0.08928   0.89457   0.92530   0.00000  Uiso   1.00
H1508  H     0.06769   0.89859   0.50631   0.00000  Uiso   1.00
H1509  H     0.22772   0.75484   0.60825   0.00000  Uiso   1.00
H1510  H     0.33108   0.78470   0.81081   0.00000  Uiso   1.00
H1511  H     0.23187   0.98913   0.68576   0.00000  Uiso   1.00
H1512  H     0.27349   0.74458   0.86044   0.00000  Uiso   1.00
O1513  O     0.16667   0.83333   0.75000   0.00000  Uiso   1.00
O1514  O     0.15451   0.79304   0.65459   0.00000  Uiso   1.00
O1515  O     0.12940   0.87058   0.84968   0.00000  Uiso   1.00
O1516  O     0.20824   0.84425   0.64606   0.00000  Uiso   1.00
O1517  O     0.17451   0.82546   0.84968   0.00000  Uiso   1.00
O1518  O     0.23835   0.75209   0.57524   0.00000  Uiso   1.00
O1519  O     0.31370   0.79721   0.79507   0.00000  Uiso   1.00
O1520  O     0.21350   0.67643   0.70364   0.00000  Uiso   1.00
O1521  O     0.25901   0.78383   0.91713   0.00000  Uiso   1.00
O1522  O     0.09911   0.86392   0.55901   0.00000  Uiso   1.00
O1523  O     0.23604   0.84951   0.88221   0.00000  Uiso   1.00
O1524  O     0.17930   0.74686   0.78214   0.00000  Uiso   1.00
O1525  O     0.02202   0.86903   0.70627   0.00000  Uiso   1.00
O1526  O     0.14632   0.92751   0.77014   0.00000  Uiso   1.00
O1527  O     0.07412   0.79958   0.73413   0.00000  Uiso   1.00
O1528  O     0.26693   0.85939   0.71361   0.00000  Uiso   1.00
O1529  O     0.07071   0.85544   0.78213   0.00000  Uiso   1.00
O1530  O     0.25491   0.81892   0.77014   0.00000  Uiso   1.00
O1531  O     0.13760   0.73610   0.73413   0.00000  Uiso   1.00
O1532  O     0.20345   0.92286   0.71361   0.00000  Uiso   1.00
Zn1533 Zn    0.19338   0.80661   0.78734   0.00000  Uiso   1.00
Zn1534 Zn    0.13379   0.79124   0.71876   0.00000  Uiso   1.00
Zn1535 Zn    0.21056   0.86442   0.70657   0.00000  Uiso   1.00
Zn1536 Zn    0.12893   0.87106   0.78734   0.00000  Uiso   1.00
C1537  C     0.38641   0.82649   0.75962   0.00000  Uiso   1.00
C1538  C     0.50763   0.83239   0.56011   0.00000  Uiso   1.00
C1539  C     0.55309   0.77846   0.55619   0.00000  Uiso   1.00
C1540  C     0.61411   0.84070   0.74029   0.00000  Uiso   1.00
C1541  C     0.47775   0.86255   0.91951   0.00000  Uiso   1.00
C1542  C     0.65992   0.84464   0.73775   0.00000  Uiso   1.00
C1543  C     0.34103   0.82299   0.76422   0.00000  Uiso   1.00
C1544  C     0.51422   0.98969   0.73572   0.00000  Uiso   1.00
C1545  C     0.48557   0.67842   0.76380   0.00000  Uiso   1.00
C1546  C     0.48895   0.72263   0.76076   0.00000  Uiso   1.00
C1547  C     0.51007   0.94470   0.73997   0.00000  Uiso   1.00
C1548  C     0.42943   0.88428   0.98917   0.00000  Uiso   1.00
C1549  C     0.51883   0.81472   0.62948   0.00000  Uiso   1.00
C1550  C     0.48359   0.85284   0.87065   0.00000  Uiso   1.00
C1551  C     0.56283   0.77724   0.50965   0.00000  Uiso   1.00
C1552  C     0.52648   0.80770   0.58129   0.00000  Uiso   1.00
C1553  C     0.44220   0.88233   0.94288   0.00000  Uiso   1.00
C1554  C     0.57804   0.75452   0.88517   0.00000  Uiso   1.00
C1555  C     0.55178   0.71542   0.90690   0.00000  Uiso   1.00
C1556  C     0.53649   0.68416   0.87218   0.00000  Uiso   1.00
C1557  C     0.40177   0.82812   0.56788   0.00000  Uiso   1.00
C1558  C     0.35742   0.84171   0.58871   0.00000  Uiso   1.00
C1559  C     0.45062   0.86517   0.51353   0.00000  Uiso   1.00
C1560  C     0.65790   0.80498   0.60649   0.00000  Uiso   1.00
C1561  C     0.58702   0.89106   0.89077   0.00000  Uiso   1.00
C1562  C     0.61712   0.90677   0.84745   0.00000  Uiso   1.00
C1563  C     0.63873   0.95100   0.85512   0.00000  Uiso   1.00
C1564  C     0.35657   0.91117   0.72339   0.00000  Uiso   1.00
C1565  C     0.39381   0.93710   0.69307   0.00000  Uiso   1.00
C1566  C     0.39611   0.98322   0.70945   0.00000  Uiso   1.00
C1567  C     0.48923   0.84779   0.99126   0.00000  Uiso   1.00
C1568  C     0.50383   0.84866   0.94378   0.00000  Uiso   1.00
C1569  C     0.51303   0.82780   0.51358   0.00000  Uiso   1.00
C1570  C     0.54447   0.80271   0.98807   0.00000  Uiso   1.00
C1571  C     0.55897   0.80532   0.94169   0.00000  Uiso   1.00
C1572  C     0.54387   0.83461   0.92202   0.00000  Uiso   1.00
H1573  H     0.45947   0.99755   0.78957   0.00000  Uiso   1.00
H1574  H     0.55978   0.76822   0.86583   0.00000  Uiso   1.00
H1575  H     0.57181   0.70044   0.92297   0.00000  Uiso   1.00
H1576  H     0.52329   0.72415   0.93312   0.00000  Uiso   1.00
H1577  H     0.56409   0.67553   0.84471   0.00000  Uiso   1.00
H1578  H     0.51931   0.98880   0.88838   0.00000  Uiso   1.00
H1579  H     0.51426   0.69777   0.85777   0.00000  Uiso   1.00
H1580  H     0.41051   0.81084   0.59245   0.00000  Uiso   1.00
H1581  H     0.40049   0.80578   0.53801   0.00000  Uiso   1.00
H1582  H     0.35913   0.86574   0.61676   0.00000  Uiso   1.00
H1583  H     0.34673   0.85571   0.56309   0.00000  Uiso   1.00
H1584  H     0.58549   0.75670   0.99048   0.00000  Uiso   1.00
H1585  H     0.65576   0.78040   0.57905   0.00000  Uiso   1.00
H1586  H     0.62599   0.81578   0.62037   0.00000  Uiso   1.00
H1587  H     0.33365   0.79164   0.63361   0.00000  Uiso   1.00
H1588  H     0.60568   0.89269   0.91642   0.00000  Uiso   1.00
H1589  H     0.56136   0.91178   0.90266   0.00000  Uiso   1.00
H1590  H     0.64221   0.88573   0.83440   0.00000  Uiso   1.00
H1591  H     0.59867   0.90643   0.82197   0.00000  Uiso   1.00
H1592  H     0.65943   0.95145   0.87844   0.00000  Uiso   1.00
H1593  H     0.61435   0.97252   0.86946   0.00000  Uiso   1.00
H1594  H     0.65892   0.96219   0.82276   0.00000  Uiso   1.00
H1595  H     0.49078   0.85652   0.58074   0.00000  Uiso   1.00
H1596  H     0.36168   0.91488   0.75783   0.00000  Uiso   1.00
H1597  H     0.65948   0.92318   0.72419   0.00000  Uiso   1.00
H1598  H     0.42436   0.92561   0.69262   0.00000  Uiso   1.00
H1599  H     0.38981   0.93354   0.65833   0.00000  Uiso   1.00
H1600  H     0.36657   0.99579   0.70845   0.00000  Uiso   1.00
H1601  H     0.42409   0.66770   0.68746   0.00000  Uiso   1.00
H1602  H     0.39979   0.98750   0.74429   0.00000  Uiso   1.00
H1603  H     0.42261   0.89457   0.92530   0.00000  Uiso   1.00
H1604  H     0.40102   0.89859   0.50631   0.00000  Uiso   1.00
H1605  H     0.56106   0.75484   0.60825   0.00000  Uiso   1.00
H1606  H     0.66441   0.78470   0.81081   0.00000  Uiso   1.00
H1607  H     0.56520   0.98913   0.68576   0.00000  Uiso   1.00
H1608  H     0.60682   0.74458   0.86044   0.00000  Uiso   1.00
O1609  O     0.50000   0.83333   0.75000   0.00000  Uiso   1.00
O1610  O     0.48784   0.79304   0.65459   0.00000  Uiso   1.00
O1611  O     0.46274   0.87058   0.84968   0.00000  Uiso   1.00
O1612  O     0.54157   0.84425   0.64606   0.00000  Uiso   1.00
O1613  O     0.50785   0.82546   0.84968   0.00000  Uiso   1.00
O1614  O     0.57169   0.75209   0.57524   0.00000  Uiso   1.00
O1615  O     0.64704   0.79721   0.79507   0.00000  Uiso   1.00
O1616  O     0.54683   0.67643   0.70364   0.00000  Uiso   1.00
O1617  O     0.59234   0.78383   0.91713   0.00000  Uiso   1.00
O1618  O     0.43244   0.86392   0.55901   0.00000  Uiso   1.00
O1619  O     0.56937   0.84951   0.88221   0.00000  Uiso   1.00
O1620  O     0.51264   0.74686   0.78214   0.00000  Uiso   1.00
O1621  O     0.35535   0.86903   0.70627   0.00000  Uiso   1.00
O1622  O     0.47965   0.92751   0.77014   0.00000  Uiso   1.00
O1623  O     0.40745   0.79958   0.73413   0.00000  Uiso   1.00
O1624  O     0.60026   0.85939   0.71361   0.00000  Uiso   1.00
O1625  O     0.40405   0.85544   0.78213   0.00000  Uiso   1.00
O1626  O     0.58824   0.81892   0.77014   0.00000  Uiso   1.00
O1627  O     0.47093   0.73610   0.73413   0.00000  Uiso   1.00
O1628  O     0.53678   0.92286   0.71361   0.00000  Uiso   1.00
Zn1629 Zn    0.52672   0.80661   0.78734   0.00000  Uiso   1.00
Zn1630 Zn    0.46713   0.79124   0.71876   0.00000  Uiso   1.00
Zn1631 Zn    0.54389   0.86442   0.70657   0.00000  Uiso   1.00
Zn1632 Zn    0.46226   0.87106   0.78734   0.00000  Uiso   1.00
C1633  C     0.71975   0.82649   0.75962   0.00000  Uiso   1.00
C1634  C     0.84096   0.83239   0.56011   0.00000  Uiso   1.00
C1635  C     0.88642   0.77846   0.55619   0.00000  Uiso   1.00
C1636  C     0.94744   0.84070   0.74029   0.00000  Uiso   1.00
C1637  C     0.81108   0.86255   0.91951   0.00000  Uiso   1.00
C1638  C     0.99325   0.84464   0.73775   0.00000  Uiso   1.00
C1639  C     0.67436   0.82299   0.76422   0.00000  Uiso   1.00
C1640  C     0.84755   0.98969   0.73572   0.00000  Uiso   1.00
C1641  C     0.81890   0.67842   0.76380   0.00000  Uiso   1.00
C1642  C     0.82229   0.72263   0.76076   0.00000  Uiso   1.00
C1643  C     0.84340   0.94470   0.73997   0.00000  Uiso   1.00
C1644  C     0.76277   0.88428   0.98917   0.00000  Uiso   1.00
C1645  C     0.85216   0.81472   0.62948   0.00000  Uiso   1.00
C1646  C     0.81692   0.85284   0.87065   0.00000  Uiso   1.00
C1647  C     0.89616   0.77724   0.50965   0.00000  Uiso   1.00
C1648  C     0.85982   0.80770   0.58129   0.00000  Uiso   1.00
C1649  C     0.77553   0.88233   0.94288   0.00000  Uiso   1.00
C1650  C     0.91137   0.75452   0.88517   0.00000  Uiso   1.00
C1651  C     0.88511   0.71542   0.90690   0.00000  Uiso   1.00
C1652  C     0.86983   0.68416   0.87218   0.00000  Uiso   1.00
C1653  C     0.73510   0.82812   0.56788   0.00000  Uiso   1.00
C1654  C     0.69075   0.84171   0.58871   0.00000  Uiso   1.00
C1655  C     0.78395   0.86517   0.51353   0.00000  Uiso   1.00
C1656  C     0.99124   0.80498   0.60649   0.00000  Uiso   1.00
C1657  C     0.92035   0.89106   0.89077   0.00000  Uiso   1.00
C1658  C     0.95046   0.90677   0.84745   0.00000  Uiso   1.00
C1659  C     0.97206   0.95100   0.85512   0.00000  Uiso   1.00
C1660  C     0.68991   0.91117   0.72339   0.00000  Uiso   1.00
C1661  C     0.72715   0.93710   0.69307   0.00000  Uiso   1.00
C1662  C     0.72944   0.98322   0.70945   0.00000  Uiso   1.00
C1663  C     0.82257   0.84779   0.99126   0.00000  Uiso   1.00
C1664  C     0.83716   0.84866   0.94378   0.00000  Uiso   1.00
C1665  C     0.84637   0.82780   0.51358   0.00000  Uiso   1.00
C1666  C     0.87780   0.80271   0.98807   0.00000  Uiso   1.00
C1667  C     0.89230   0.80532   0.94169   0.00000  Uiso   1.00
C1668  C     0.87721   0.83461   0.92202   0.00000  Uiso   1.00
H1669  H     0.79280   0.99755   0.78957   0.00000  Uiso   1.00
H1670  H     0.89312   0.76822   0.86583   0.00000  Uiso   1.00
H1671  H     0.90515   0.70044   0.92297   0.00000  Uiso   1.00
H1672  H     0.85662   0.72415   0.93312   0.00000  Uiso   1.00
H1673  H     0.89743   0.67553   0.84471   0.00000  Uiso   1.00
H1674  H     0.85264   0.98880   0.88838   0.00000  Uiso   1.00
H1675  H     0.84759   0.69777   0.85777   0.00000  Uiso   1.00
H1676  H     0.74385   0.81084   0.59245   0.00000  Uiso   1.00
H1677  H     0.73382   0.80578   0.53801   0.00000  Uiso   1.00
H1678  H     0.69246   0.86574   0.61676   0.00000  Uiso   1.00
H1679  H     0.68006   0.85571   0.56309   0.00000  Uiso   1.00
H1680  H     0.91882   0.75670   0.99048   0.00000  Uiso   1.00
H1681  H     0.98909   0.78040   0.57905   0.00000  Uiso   1.00
H1682  H     0.95932   0.81578   0.62037   0.00000  Uiso   1.00
H1683  H     0.66698   0.79164   0.63361   0.00000  Uiso   1.00
H1684  H     0.93901   0.89269   0.91642   0.00000  Uiso   1.00
H1685  H     0.89470   0.91178   0.90266   0.00000  Uiso   1.00
H1686  H     0.97555   0.88573   0.83440   0.00000  Uiso   1.00
H1687  H     0.93200   0.90643   0.82197   0.00000  Uiso   1.00
H1688  H     0.99277   0.95145   0.87844   0.00000  Uiso   1.00
H1689  H     0.94768   0.97252   0.86946   0.00000  Uiso   1.00
H1690  H     0.99225   0.96219   0.82276   0.00000  Uiso   1.00
H1691  H     0.82411   0.85652   0.58074   0.00000  Uiso   1.00
H1692  H     0.69501   0.91488   0.75783   0.00000  Uiso   1.00
H1693  H     0.99282   0.92318   0.72419   0.00000  Uiso   1.00
H1694  H     0.75769   0.92561   0.69262   0.00000  Uiso   1.00
H1695  H     0.72314   0.93354   0.65833   0.00000  Uiso   1.00
H1696  H     0.69991   0.99579   0.70845   0.00000  Uiso   1.00
H1697  H     0.75743   0.66770   0.68746   0.00000  Uiso   1.00
H1698  H     0.73312   0.98750   0.74429   0.00000  Uiso   1.00
H1699  H     0.75594   0.89457   0.92530   0.00000  Uiso   1.00
H1700  H     0.73436   0.89859   0.50631   0.00000  Uiso   1.00
H1701  H     0.89439   0.75484   0.60825   0.00000  Uiso   1.00
H1702  H     0.99774   0.78470   0.81081   0.00000  Uiso   1.00
H1703  H     0.89853   0.98913   0.68576   0.00000  Uiso   1.00
H1704  H     0.94015   0.74458   0.86044   0.00000  Uiso   1.00
O1705  O     0.83333   0.83333   0.75000   0.00000  Uiso   1.00
O1706  O     0.82118   0.79304   0.65459   0.00000  Uiso   1.00
O1707  O     0.79607   0.87058   0.84968   0.00000  Uiso   1.00
O1708  O     0.87491   0.84425   0.64606   0.00000  Uiso   1.00
O1709  O     0.84118   0.82546   0.84968   0.00000  Uiso   1.00
O1710  O     0.90502   0.75209   0.57524   0.00000  Uiso   1.00
O1711  O     0.98037   0.79721   0.79507   0.00000  Uiso   1.00
O1712  O     0.88016   0.67643   0.70364   0.00000  Uiso   1.00
O1713  O     0.92567   0.78383   0.91713   0.00000  Uiso   1.00
O1714  O     0.76577   0.86392   0.55901   0.00000  Uiso   1.00
O1715  O     0.90271   0.84951   0.88221   0.00000  Uiso   1.00
O1716  O     0.84597   0.74686   0.78214   0.00000  Uiso   1.00
O1717  O     0.68868   0.86903   0.70627   0.00000  Uiso   1.00
O1718  O     0.81298   0.92751   0.77014   0.00000  Uiso   1.00
O1719  O     0.74078   0.79958   0.73413   0.00000  Uiso   1.00
O1720  O     0.93360   0.85939   0.71361   0.00000  Uiso   1.00
O1721  O     0.73738   0.85544   0.78213   0.00000  Uiso   1.00
O1722  O     0.92158   0.81892   0.77014   0.00000  Uiso   1.00
O1723  O     0.80426   0.73610   0.73413   0.00000  Uiso   1.00
O1724  O     0.87012   0.92286   0.71361   0.00000  Uiso   1.00
Zn1725 Zn    0.86005   0.80661   0.78734   0.00000  Uiso   1.00
Zn1726 Zn    0.80046   0.79124   0.71876   0.00000  Uiso   1.00
Zn1727 Zn    0.87723   0.86442   0.70657   0.00000  Uiso   1.00
Zn1728 Zn    0.79560   0.87106   0.78734   0.00000  Uiso   1.00
loop_
_geom_bond_atom_site_label_1
_geom_bond_atom_site_label_2
_geom_bond_distance
_geom_bond_site_symmetry_2
_ccdc_geom_bond_type
C1     O87     1.266   .     A
C1     C7      1.438   .     S
C1     O89     1.269   .     A
C2     C16     1.390   .     A
C2     C33     1.401   .     A
C2     H59     1.077   .     S
C3     C15     1.392   .     A
C3     O78     1.382   .     S
C3     C16     1.411   .     A
C4     O90     1.274   .     A
C4     C6      1.463   .     S
C4     O88     1.284   .     A
C5     C17     1.400   .     A
C5     C32     1.423   .     A
C5     C14     1.481   .     S
C6     C103    1.350   .     S
C6     O181    1.387   .     S
C7     C198    1.350   1_455 S
C7     O271    1.383   1_455 S
C8     C11     1.465   .     S
C8     C297    1.334   .     S
C8     O368    1.387   .     S
C9     C10     1.436   .     S
C9     C584    1.334   1_545 S
C9     H613    1.086   1_545 S
C10    O91     1.279   .     A
C10    O84     1.277   .     A
C11    O92     1.270   .     A
C11    O86     1.277   .     A
C12    C17     1.383   .     A
C12    C887    1.394   .     S
C12    H932    1.083   .     S
C13    O76     1.272   .     A
C13    O74     1.271   .     A
C13    C16     1.447   .     S
C14    O77     1.286   .     A
C14    O75     1.286   .     A
C15    C898    1.406   1_554 S
C15    H912    1.084   1_554 S
C17    H67     1.083   .     S
C18    C19     1.536   .     S
C18    O81     1.419   .     S
C18    H72     1.109   .     S
C18    H38     1.114   .     S
C19    C20     1.528   .     S
C19    H40     1.111   .     S
C19    H39     1.111   .     S
C20    H41     1.111   .     S
C20    H43     1.111   .     S
C20    H618    1.111   1_545 S
C21    C22     1.530   .     S
C21    H45     1.119   .     S
C21    H44     1.111   .     S
C21    O82     1.417   .     S
C22    H47     1.111   .     S
C22    H46     1.111   .     S
C22    C216    1.525   1_455 S
C23    O82     1.381   .     S
C23    C876    1.394   1_554 S
C23    C895    1.432   1_554 S
C24    H50     1.110   .     S
C24    H49     1.111   .     S
C24    C118    1.525   .     S
C24    H147    1.111   .     S
C25    H53     1.114   .     S
C25    C26     1.528   .     S
C25    H52     1.116   .     S
C25    O83     1.412   .     S
C26    H55     1.112   .     S
C26    C27     1.526   .     S
C26    H54     1.111   .     S
C27    H57     1.110   .     S
C27    H56     1.111   .     S
C27    H58     1.110   .     S
C28    C29     1.528   .     S
C28    H60     1.116   .     S
C28    O85     1.412   .     S
C28    H253    1.113   1_455 S
C29    H63     1.112   .     S
C29    C30     1.526   .     S
C29    H62     1.112   .     S
C30    H64     1.111   .     S
C30    H66     1.111   .     S
C30    H353    1.110   .     S
C31    C32     1.425   .     A
C31    C887    1.432   .     S
C31    C897    1.428   .     S
C32    C36     1.420   .     A
C33    C895    1.428   1_554 S
C33    C898    1.422   1_554 S
C34    C35     1.399   .     A
C34    C897    1.422   .     S
C34    C879    1.406   .     S
C35    C36     1.396   .     A
C35    O81     1.388   .     S
C36    O83     1.385   .     S
H37    C297    1.086   .     S
H42    C308    1.111   .     S
H48    C879    1.084   .     S
H51    C216    1.111   1_455 S
H61    C124    1.113   .     S
H65    C606    1.110   1_545 S
H68    C876    1.083   1_554 S
H69    O78     0.989   .     S
H70    O79     0.992   .     S
H71    O368    0.990   .     S
O73    Zn93    1.960   .     S
O73    Zn94    1.945   .     S
O73    Zn95    1.932   .     S
O73    Zn96    1.936   .     S
O74    Zn94    1.930   .     S
O75    Zn96    1.940   .     S
O76    Zn95    1.937   .     S
O77    Zn93    1.928   .     S
O79    C103    1.383   .     S
O80    H647    0.990   1_545 S
O80    C584    1.387   1_545 S
O84    Zn93    1.926   .     S
O85    C198    1.387   1_455 S
O86    Zn96    1.928   .     S
O87    Zn94    1.932   .     S
O88    Zn95    1.942   .     S
O89    Zn96    1.936   .     S
O90    Zn93    1.928   .     S
O91    Zn94    1.934   .     S
O92    Zn95    1.930   .     S
C97    O183    1.266   .     A
C97    C103    1.438   .     S
C97    O185    1.269   .     A
C98    C112    1.390   .     A
C98    C129    1.401   .     A
C98    H155    1.077   .     S
C99    C111    1.392   .     A
C99    O174    1.382   .     S
C99    C112    1.411   .     A
C100   O186    1.274   .     A
C100   C102    1.463   .     S
C100   O184    1.284   .     A
C101   C113    1.400   .     A
C101   C128    1.423   .     A
C101   C110    1.481   .     S
C102   C199    1.350   .     S
C102   O277    1.387   .     S
C104   C107    1.465   .     S
C104   C393    1.334   .     S
C104   O464    1.387   .     S
C105   C106    1.436   .     S
C105   C680    1.334   1_545 S
C105   H709    1.086   1_545 S
C106   O187    1.279   .     A
C106   O180    1.277   .     A
C107   O188    1.270   .     A
C107   O182    1.277   .     A
C108   C113    1.383   .     A
C108   C983    1.394   .     S
C108   H1028   1.083   .     S
C109   O172    1.272   .     A
C109   O170    1.271   .     A
C109   C112    1.447   .     S
C110   O173    1.286   .     A
C110   O171    1.286   .     A
C111   C994    1.406   1_554 S
C111   H1008   1.084   1_554 S
C113   H163    1.083   .     S
C114   C115    1.536   .     S
C114   O177    1.419   .     S
C114   H168    1.109   .     S
C114   H134    1.114   .     S
C115   C116    1.528   .     S
C115   H136    1.111   .     S
C115   H135    1.111   .     S
C116   H137    1.111   .     S
C116   H139    1.111   .     S
C116   H714    1.111   1_545 S
C117   C118    1.530   .     S
C117   H141    1.119   .     S
C117   H140    1.111   .     S
C117   O178    1.417   .     S
C118   H143    1.111   .     S
C118   H142    1.111   .     S
C119   O178    1.381   .     S
C119   C972    1.394   1_554 S
C119   C991    1.432   1_554 S
C120   H146    1.110   .     S
C120   H145    1.111   .     S
C120   C214    1.525   .     S
C120   H243    1.111   .     S
C121   H149    1.114   .     S
C121   C122    1.528   .     S
C121   H148    1.116   .     S
C121   O179    1.412   .     S
C122   H151    1.112   .     S
C122   C123    1.526   .     S
C122   H150    1.111   .     S
C123   H153    1.110   .     S
C123   H152    1.111   .     S
C123   H154    1.110   .     S
C124   C125    1.528   .     S
C124   H156    1.116   .     S
C124   O181    1.412   .     S
C125   H159    1.112   .     S
C125   C126    1.526   .     S
C125   H158    1.112   .     S
C126   H160    1.111   .     S
C126   H162    1.111   .     S
C126   H449    1.110   .     S
C127   C128    1.425   .     A
C127   C983    1.432   .     S
C127   C993    1.428   .     S
C128   C132    1.420   .     A
C129   C991    1.428   1_554 S
C129   C994    1.422   1_554 S
C130   C131    1.399   .     A
C130   C993    1.422   .     S
C130   C975    1.406   .     S
C131   C132    1.396   .     A
C131   O177    1.388   .     S
C132   O179    1.385   .     S
H133   C393    1.086   .     S
H138   C404    1.111   .     S
H144   C975    1.084   .     S
H157   C220    1.113   .     S
H161   C702    1.110   1_545 S
H164   C972    1.083   1_554 S
H165   O174    0.989   .     S
H166   O175    0.992   .     S
H167   O464    0.990   .     S
O169   Zn189   1.960   .     S
O169   Zn190   1.945   .     S
O169   Zn191   1.932   .     S
O169   Zn192   1.936   .     S
O170   Zn190   1.930   .     S
O171   Zn192   1.940   .     S
O172   Zn191   1.937   .     S
O173   Zn189   1.928   .     S
O175   C199    1.383   .     S
O176   H743    0.990   1_545 S
O176   C680    1.387   1_545 S
O180   Zn189   1.926   .     S
O182   Zn192   1.928   .     S
O183   Zn190   1.932   .     S
O184   Zn191   1.942   .     S
O185   Zn192   1.936   .     S
O186   Zn189   1.928   .     S
O187   Zn190   1.934   .     S
O188   Zn191   1.930   .     S
C193   O279    1.266   .     A
C193   C199    1.438   .     S
C193   O281    1.269   .     A
C194   C208    1.390   .     A
C194   C225    1.401   .     A
C194   H251    1.077   .     S
C195   C207    1.392   .     A
C195   O270    1.382   .     S
C195   C208    1.411   .     A
C196   O282    1.274   .     A
C196   C198    1.463   .     S
C196   O280    1.284   .     A
C197   C209    1.400   .     A
C197   C224    1.423   .     A
C197   C206    1.481   .     S
C198   C7      1.350   1_655 S
C198   O85     1.387   1_655 S
C200   C203    1.465   .     S
C200   C489    1.334   .     S
C200   O560    1.387   .     S
C201   C202    1.436   .     S
C201   C776    1.334   1_545 S
C201   H805    1.086   1_545 S
C202   O283    1.279   .     A
C202   O276    1.277   .     A
C203   O284    1.270   .     A
C203   O278    1.277   .     A
C204   C209    1.383   .     A
C204   C1079   1.394   .     S
C204   H1124   1.083   .     S
C205   O268    1.272   .     A
C205   O266    1.271   .     A
C205   C208    1.447   .     S
C206   O269    1.286   .     A
C206   O267    1.286   .     A
C207   C1090   1.406   1_554 S
C207   H1104   1.084   1_554 S
C209   H259    1.083   .     S
C210   C211    1.536   .     S
C210   O273    1.419   .     S
C210   H264    1.109   .     S
C210   H230    1.114   .     S
C211   C212    1.528   .     S
C211   H232    1.111   .     S
C211   H231    1.111   .     S
C212   H233    1.111   .     S
C212   H235    1.111   .     S
C212   H810    1.111   1_545 S
C213   C214    1.530   .     S
C213   H237    1.119   .     S
C213   H236    1.111   .     S
C213   O274    1.417   .     S
C214   H239    1.111   .     S
C214   H238    1.111   .     S
C215   O274    1.381   .     S
C215   C1068   1.394   1_554 S
C215   C1087   1.432   1_554 S
C216   H242    1.110   .     S
C216   H241    1.111   .     S
C216   C22     1.525   1_655 S
C216   H51     1.111   1_655 S
C217   H245    1.114   .     S
C217   C218    1.528   .     S
C217   H244    1.116   .     S
C217   O275    1.412   .     S
C218   H247    1.112   .     S
C218   C219    1.526   .     S
C218   H246    1.111   .     S
C219   H249    1.110   .     S
C219   H248    1.111   .     S
C219   H250    1.110   .     S
C220   C221    1.528   .     S
C220   H252    1.116   .     S
C220   O277    1.412   .     S
C221   H255    1.112   .     S
C221   C222    1.526   .     S
C221   H254    1.112   .     S
C222   H256    1.111   .     S
C222   H258    1.111   .     S
C222   H545    1.110   .     S
C223   C224    1.425   .     A
C223   C1079   1.432   .     S
C223   C1089   1.428   .     S
C224   C228    1.420   .     A
C225   C1087   1.428   1_554 S
C225   C1090   1.422   1_554 S
C226   C227    1.399   .     A
C226   C1089   1.422   .     S
C226   C1071   1.406   .     S
C227   C228    1.396   .     A
C227   O273    1.388   .     S
C228   O275    1.385   .     S
H229   C489    1.086   .     S
H234   C500    1.111   .     S
H240   C1071   1.084   .     S
H253   C28     1.113   1_655 S
H257   C798    1.110   1_545 S
H260   C1068   1.083   1_554 S
H261   O270    0.989   .     S
H262   O271    0.992   .     S
H263   O560    0.990   .     S
O265   Zn285   1.960   .     S
O265   Zn286   1.945   .     S
O265   Zn287   1.932   .     S
O265   Zn288   1.936   .     S
O266   Zn286   1.930   .     S
O267   Zn288   1.940   .     S
O268   Zn287   1.937   .     S
O269   Zn285   1.928   .     S
O271   C7      1.383   1_655 S
O272   H839    0.990   1_545 S
O272   C776    1.387   1_545 S
O276   Zn285   1.926   .     S
O278   Zn288   1.928   .     S
O279   Zn286   1.932   .     S
O280   Zn287   1.942   .     S
O281   Zn288   1.936   .     S
O282   Zn285   1.928   .     S
O283   Zn286   1.934   .     S
O284   Zn287   1.930   .     S
C289   O375    1.266   .     A
C289   C295    1.438   .     S
C289   O377    1.269   .     A
C290   C304    1.390   .     A
C290   C321    1.401   .     A
C290   H347    1.077   .     S
C291   C303    1.392   .     A
C291   O366    1.382   .     S
C291   C304    1.411   .     A
C292   O378    1.274   .     A
C292   C294    1.463   .     S
C292   O376    1.284   .     A
C293   C305    1.400   .     A
C293   C320    1.423   .     A
C293   C302    1.481   .     S
C294   C391    1.350   .     S
C294   O469    1.387   .     S
C295   C486    1.350   1_455 S
C295   O559    1.383   1_455 S
C296   C299    1.465   .     S
C296   C585    1.334   .     S
C296   O656    1.387   .     S
C297   C298    1.436   .     S
C298   O379    1.279   .     A
C298   O372    1.277   .     A
C299   O380    1.270   .     A
C299   O374    1.277   .     A
C300   C305    1.383   .     A
C300   C1175   1.394   .     S
C300   H1220   1.083   .     S
C301   O364    1.272   .     A
C301   O362    1.271   .     A
C301   C304    1.447   .     S
C302   O365    1.286   .     A
C302   O363    1.286   .     A
C303   C1186   1.406   1_554 S
C303   H1200   1.084   1_554 S
C305   H355    1.083   .     S
C306   C307    1.536   .     S
C306   O369    1.419   .     S
C306   H360    1.109   .     S
C306   H326    1.114   .     S
C307   C308    1.528   .     S
C307   H328    1.111   .     S
C307   H327    1.111   .     S
C308   H329    1.111   .     S
C308   H331    1.111   .     S
C309   C310    1.530   .     S
C309   H333    1.119   .     S
C309   H332    1.111   .     S
C309   O370    1.417   .     S
C310   H335    1.111   .     S
C310   H334    1.111   .     S
C310   C504    1.525   1_455 S
C311   O370    1.381   .     S
C311   C1164   1.394   1_554 S
C311   C1183   1.432   1_554 S
C312   H338    1.110   .     S
C312   H337    1.111   .     S
C312   C406    1.525   .     S
C312   H435    1.111   .     S
C313   H341    1.114   .     S
C313   C314    1.528   .     S
C313   H340    1.116   .     S
C313   O371    1.412   .     S
C314   H343    1.112   .     S
C314   C315    1.526   .     S
C314   H342    1.111   .     S
C315   H345    1.110   .     S
C315   H344    1.111   .     S
C315   H346    1.110   .     S
C316   C317    1.528   .     S
C316   H348    1.116   .     S
C316   O373    1.412   .     S
C316   H541    1.113   1_455 S
C317   H351    1.112   .     S
C317   C318    1.526   .     S
C317   H350    1.112   .     S
C318   H352    1.111   .     S
C318   H354    1.111   .     S
C318   H641    1.110   .     S
C319   C320    1.425   .     A
C319   C1175   1.432   .     S
C319   C1185   1.428   .     S
C320   C324    1.420   .     A
C321   C1183   1.428   1_554 S
C321   C1186   1.422   1_554 S
C322   C323    1.399   .     A
C322   C1185   1.422   .     S
C322   C1167   1.406   .     S
C323   C324    1.396   .     A
C323   O369    1.388   .     S
C324   O371    1.385   .     S
H325   C585    1.086   .     S
H330   C596    1.111   .     S
H336   C1167   1.084   .     S
H339   C504    1.111   1_455 S
H349   C412    1.113   .     S
H356   C1164   1.083   1_554 S
H357   O366    0.989   .     S
H358   O367    0.992   .     S
H359   O656    0.990   .     S
O361   Zn381   1.960   .     S
O361   Zn382   1.945   .     S
O361   Zn383   1.932   .     S
O361   Zn384   1.936   .     S
O362   Zn382   1.930   .     S
O363   Zn384   1.940   .     S
O364   Zn383   1.937   .     S
O365   Zn381   1.928   .     S
O367   C391    1.383   .     S
O372   Zn381   1.926   .     S
O373   C486    1.387   1_455 S
O374   Zn384   1.928   .     S
O375   Zn382   1.932   .     S
O376   Zn383   1.942   .     S
O377   Zn384   1.936   .     S
O378   Zn381   1.928   .     S
O379   Zn382   1.934   .     S
O380   Zn383   1.930   .     S
C385   O471    1.266   .     A
C385   C391    1.438   .     S
C385   O473    1.269   .     A
C386   C400    1.390   .     A
C386   C417    1.401   .     A
C386   H443    1.077   .     S
C387   C399    1.392   .     A
C387   O462    1.382   .     S
C387   C400    1.411   .     A
C388   O474    1.274   .     A
C388   C390    1.463   .     S
C388   O472    1.284   .     A
C389   C401    1.400   .     A
C389   C416    1.423   .     A
C389   C398    1.481   .     S
C390   C487    1.350   .     S
C390   O565    1.387   .     S
C392   C395    1.465   .     S
C392   C681    1.334   .     S
C392   O752    1.387   .     S
C393   C394    1.436   .     S
C394   O475    1.279   .     A
C394   O468    1.277   .     A
C395   O476    1.270   .     A
C395   O470    1.277   .     A
C396   C401    1.383   .     A
C396   C1271   1.394   .     S
C396   H1316   1.083   .     S
C397   O460    1.272   .     A
C397   O458    1.271   .     A
C397   C400    1.447   .     S
C398   O461    1.286   .     A
C398   O459    1.286   .     A
C399   C1282   1.406   1_554 S
C399   H1296   1.084   1_554 S
C401   H451    1.083   .     S
C402   C403    1.536   .     S
C402   O465    1.419   .     S
C402   H456    1.109   .     S
C402   H422    1.114   .     S
C403   C404    1.528   .     S
C403   H424    1.111   .     S
C403   H423    1.111   .     S
C404   H425    1.111   .     S
C404   H427    1.111   .     S
C405   C406    1.530   .     S
C405   H429    1.119   .     S
C405   H428    1.111   .     S
C405   O466    1.417   .     S
C406   H431    1.111   .     S
C406   H430    1.111   .     S
C407   O466    1.381   .     S
C407   C1260   1.394   1_554 S
C407   C1279   1.432   1_554 S
C408   H434    1.110   .     S
C408   H433    1.111   .     S
C408   C502    1.525   .     S
C408   H531    1.111   .     S
C409   H437    1.114   .     S
C409   C410    1.528   .     S
C409   H436    1.116   .     S
C409   O467    1.412   .     S
C410   H439    1.112   .     S
C410   C411    1.526   .     S
C410   H438    1.111   .     S
C411   H441    1.110   .     S
C411   H440    1.111   .     S
C411   H442    1.110   .     S
C412   C413    1.528   .     S
C412   H444    1.116   .     S
C412   O469    1.412   .     S
C413   H447    1.112   .     S
C413   C414    1.526   .     S
C413   H446    1.112   .     S
C414   H448    1.111   .     S
C414   H450    1.111   .     S
C414   H737    1.110   .     S
C415   C416    1.425   .     A
C415   C1271   1.432   .     S
C415   C1281   1.428   .     S
C416   C420    1.420   .     A
C417   C1279   1.428   1_554 S
C417   C1282   1.422   1_554 S
C418   C419    1.399   .     A
C418   C1281   1.422   .     S
C418   C1263   1.406   .     S
C419   C420    1.396   .     A
C419   O465    1.388   .     S
C420   O467    1.385   .     S
H421   C681    1.086   .     S
H426   C692    1.111   .     S
H432   C1263   1.084   .     S
H445   C508    1.113   .     S
H452   C1260   1.083   1_554 S
H453   O462    0.989   .     S
H454   O463    0.992   .     S
H455   O752    0.990   .     S
O457   Zn477   1.960   .     S
O457   Zn478   1.945   .     S
O457   Zn479   1.932   .     S
O457   Zn480   1.936   .     S
O458   Zn478   1.930   .     S
O459   Zn480   1.940   .     S
O460   Zn479   1.937   .     S
O461   Zn477   1.928   .     S
O463   C487    1.383   .     S
O468   Zn477   1.926   .     S
O470   Zn480   1.928   .     S
O471   Zn478   1.932   .     S
O472   Zn479   1.942   .     S
O473   Zn480   1.936   .     S
O474   Zn477   1.928   .     S
O475   Zn478   1.934   .     S
O476   Zn479   1.930   .     S
C481   O567    1.266   .     A
C481   C487    1.438   .     S
C481   O569    1.269   .     A
C482   C496    1.390   .     A
C482   C513    1.401   .     A
C482   H539    1.077   .     S
C483   C495    1.392   .     A
C483   O558    1.382   .     S
C483   C496    1.411   .     A
C484   O570    1.274   .     A
C484   C486    1.463   .     S
C484   O568    1.284   .     A
C485   C497    1.400   .     A
C485   C512    1.423   .     A
C485   C494    1.481   .     S
C486   C295    1.350   1_655 S
C486   O373    1.387   1_655 S
C488   C491    1.465   .     S
C488   C777    1.334   .     S
C488   O848    1.387   .     S
C489   C490    1.436   .     S
C490   O571    1.279   .     A
C490   O564    1.277   .     A
C491   O572    1.270   .     A
C491   O566    1.277   .     A
C492   C497    1.383   .     A
C492   C1367   1.394   .     S
C492   H1412   1.083   .     S
C493   O556    1.272   .     A
C493   O554    1.271   .     A
C493   C496    1.447   .     S
C494   O557    1.286   .     A
C494   O555    1.286   .     A
C495   C1378   1.406   1_554 S
C495   H1392   1.084   1_554 S
C497   H547    1.083   .     S
C498   C499    1.536   .     S
C498   O561    1.419   .     S
C498   H552    1.109   .     S
C498   H518    1.114   .     S
C499   C500    1.528   .     S
C499   H520    1.111   .     S
C499   H519    1.111   .     S
C500   H521    1.111   .     S
C500   H523    1.111   .     S
C501   C502    1.530   .     S
C501   H525    1.119   .     S
C501   H524    1.111   .     S
C501   O562    1.417   .     S
C502   H527    1.111   .     S
C502   H526    1.111   .     S
C503   O562    1.381   .     S
C503   C1356   1.394   1_554 S
C503   C1375   1.432   1_554 S
C504   H530    1.110   .     S
C504   H529    1.111   .     S
C504   C310    1.525   1_655 S
C504   H339    1.111   1_655 S
C505   H533    1.114   .     S
C505   C506    1.528   .     S
C505   H532    1.116   .     S
C505   O563    1.412   .     S
C506   H535    1.112   .     S
C506   C507    1.526   .     S
C506   H534    1.111   .     S
C507   H537    1.110   .     S
C507   H536    1.111   .     S
C507   H538    1.110   .     S
C508   C509    1.528   .     S
C508   H540    1.116   .     S
C508   O565    1.412   .     S
C509   H543    1.112   .     S
C509   C510    1.526   .     S
C509   H542    1.112   .     S
C510   H544    1.111   .     S
C510   H546    1.111   .     S
C510   H833    1.110   .     S
C511   C512    1.425   .     A
C511   C1367   1.432   .     S
C511   C1377   1.428   .     S
C512   C516    1.420   .     A
C513   C1375   1.428   1_554 S
C513   C1378   1.422   1_554 S
C514   C515    1.399   .     A
C514   C1377   1.422   .     S
C514   C1359   1.406   .     S
C515   C516    1.396   .     A
C515   O561    1.388   .     S
C516   O563    1.385   .     S
H517   C777    1.086   .     S
H522   C788    1.111   .     S
H528   C1359   1.084   .     S
H541   C316    1.113   1_655 S
H548   C1356   1.083   1_554 S
H549   O558    0.989   .     S
H550   O559    0.992   .     S
H551   O848    0.990   .     S
O553   Zn573   1.960   .     S
O553   Zn574   1.945   .     S
O553   Zn575   1.932   .     S
O553   Zn576   1.936   .     S
O554   Zn574   1.930   .     S
O555   Zn576   1.940   .     S
O556   Zn575   1.937   .     S
O557   Zn573   1.928   .     S
O559   C295    1.383   1_655 S
O564   Zn573   1.926   .     S
O566   Zn576   1.928   .     S
O567   Zn574   1.932   .     S
O568   Zn575   1.942   .     S
O569   Zn576   1.936   .     S
O570   Zn573   1.928   .     S
O571   Zn574   1.934   .     S
O572   Zn575   1.930   .     S
C577   O663    1.266   .     A
C577   C583    1.438   .     S
C577   O665    1.269   .     A
C578   C592    1.390   .     A
C578   C609    1.401   .     A
C578   H635    1.077   .     S
C579   C591    1.392   .     A
C579   O654    1.382   .     S
C579   C592    1.411   .     A
C580   O666    1.274   .     A
C580   C582    1.463   .     S
C580   O664    1.284   .     A
C581   C593    1.400   .     A
C581   C608    1.423   .     A
C581   C590    1.481   .     S
C582   C679    1.350   .     S
C582   O757    1.387   .     S
C583   C774    1.350   1_455 S
C583   O847    1.383   1_455 S
C584   C587    1.465   .     S
C584   C9      1.334   1_565 S
C584   O80     1.387   1_565 S
C585   C586    1.436   .     S
C586   O667    1.279   .     A
C586   O660    1.277   .     A
C587   O668    1.270   .     A
C587   O662    1.277   .     A
C588   C593    1.383   .     A
C588   C1463   1.394   .     S
C588   H1508   1.083   .     S
C589   O652    1.272   .     A
C589   O650    1.271   .     A
C589   C592    1.447   .     S
C590   O653    1.286   .     A
C590   O651    1.286   .     A
C591   C1474   1.406   1_554 S
C591   H1488   1.084   1_554 S
C593   H643    1.083   .     S
C594   C595    1.536   .     S
C594   O657    1.419   .     S
C594   H648    1.109   .     S
C594   H614    1.114   .     S
C595   C596    1.528   .     S
C595   H616    1.111   .     S
C595   H615    1.111   .     S
C596   H617    1.111   .     S
C596   H619    1.111   .     S
C597   C598    1.530   .     S
C597   H621    1.119   .     S
C597   H620    1.111   .     S
C597   O658    1.417   .     S
C598   H623    1.111   .     S
C598   H622    1.111   .     S
C598   C792    1.525   1_455 S
C599   O658    1.381   .     S
C599   C1452   1.394   1_554 S
C599   C1471   1.432   1_554 S
C600   H626    1.110   .     S
C600   H625    1.111   .     S
C600   C694    1.525   .     S
C600   H723    1.111   .     S
C601   H629    1.114   .     S
C601   C602    1.528   .     S
C601   H628    1.116   .     S
C601   O659    1.412   .     S
C602   H631    1.112   .     S
C602   C603    1.526   .     S
C602   H630    1.111   .     S
C603   H633    1.110   .     S
C603   H632    1.111   .     S
C603   H634    1.110   .     S
C604   C605    1.528   .     S
C604   H636    1.116   .     S
C604   O661    1.412   .     S
C604   H829    1.113   1_455 S
C605   H639    1.112   .     S
C605   C606    1.526   .     S
C605   H638    1.112   .     S
C606   H640    1.111   .     S
C606   H642    1.111   .     S
C606   H65     1.110   1_565 S
C607   C608    1.425   .     A
C607   C1463   1.432   .     S
C607   C1473   1.428   .     S
C608   C612    1.420   .     A
C609   C1471   1.428   1_554 S
C609   C1474   1.422   1_554 S
C610   C611    1.399   .     A
C610   C1473   1.422   .     S
C610   C1455   1.406   .     S
C611   C612    1.396   .     A
C611   O657    1.388   .     S
C612   O659    1.385   .     S
H613   C9      1.086   1_565 S
H618   C20     1.111   1_565 S
H624   C1455   1.084   .     S
H627   C792    1.111   1_455 S
H637   C700    1.113   .     S
H644   C1452   1.083   1_554 S
H645   O654    0.989   .     S
H646   O655    0.992   .     S
H647   O80     0.990   1_565 S
O649   Zn669   1.960   .     S
O649   Zn670   1.945   .     S
O649   Zn671   1.932   .     S
O649   Zn672   1.936   .     S
O650   Zn670   1.930   .     S
O651   Zn672   1.940   .     S
O652   Zn671   1.937   .     S
O653   Zn669   1.928   .     S
O655   C679    1.383   .     S
O660   Zn669   1.926   .     S
O661   C774    1.387   1_455 S
O662   Zn672   1.928   .     S
O663   Zn670   1.932   .     S
O664   Zn671   1.942   .     S
O665   Zn672   1.936   .     S
O666   Zn669   1.928   .     S
O667   Zn670   1.934   .     S
O668   Zn671   1.930   .     S
C673   O759    1.266   .     A
C673   C679    1.438   .     S
C673   O761    1.269   .     A
C674   C688    1.390   .     A
C674   C705    1.401   .     A
C674   H731    1.077   .     S
C675   C687    1.392   .     A
C675   O750    1.382   .     S
C675   C688    1.411   .     A
C676   O762    1.274   .     A
C676   C678    1.463   .     S
C676   O760    1.284   .     A
C677   C689    1.400   .     A
C677   C704    1.423   .     A
C677   C686    1.481   .     S
C678   C775    1.350   .     S
C678   O853    1.387   .     S
C680   C683    1.465   .     S
C680   C105    1.334   1_565 S
C680   O176    1.387   1_565 S
C681   C682    1.436   .     S
C682   O763    1.279   .     A
C682   O756    1.277   .     A
C683   O764    1.270   .     A
C683   O758    1.277   .     A
C684   C689    1.383   .     A
C684   C1559   1.394   .     S
C684   H1604   1.083   .     S
C685   O748    1.272   .     A
C685   O746    1.271   .     A
C685   C688    1.447   .     S
C686   O749    1.286   .     A
C686   O747    1.286   .     A
C687   C1570   1.406   1_554 S
C687   H1584   1.084   1_554 S
C689   H739    1.083   .     S
C690   C691    1.536   .     S
C690   O753    1.419   .     S
C690   H744    1.109   .     S
C690   H710    1.114   .     S
C691   C692    1.528   .     S
C691   H712    1.111   .     S
C691   H711    1.111   .     S
C692   H713    1.111   .     S
C692   H715    1.111   .     S
C693   C694    1.530   .     S
C693   H717    1.119   .     S
C693   H716    1.111   .     S
C693   O754    1.417   .     S
C694   H719    1.111   .     S
C694   H718    1.111   .     S
C695   O754    1.381   .     S
C695   C1548   1.394   1_554 S
C695   C1567   1.432   1_554 S
C696   H722    1.110   .     S
C696   H721    1.111   .     S
C696   C790    1.525   .     S
C696   H819    1.111   .     S
C697   H725    1.114   .     S
C697   C698    1.528   .     S
C697   H724    1.116   .     S
C697   O755    1.412   .     S
C698   H727    1.112   .     S
C698   C699    1.526   .     S
C698   H726    1.111   .     S
C699   H729    1.110   .     S
C699   H728    1.111   .     S
C699   H730    1.110   .     S
C700   C701    1.528   .     S
C700   H732    1.116   .     S
C700   O757    1.412   .     S
C701   H735    1.112   .     S
C701   C702    1.526   .     S
C701   H734    1.112   .     S
C702   H736    1.111   .     S
C702   H738    1.111   .     S
C702   H161    1.110   1_565 S
C703   C704    1.425   .     A
C703   C1559   1.432   .     S
C703   C1569   1.428   .     S
C704   C708    1.420   .     A
C705   C1567   1.428   1_554 S
C705   C1570   1.422   1_554 S
C706   C707    1.399   .     A
C706   C1569   1.422   .     S
C706   C1551   1.406   .     S
C707   C708    1.396   .     A
C707   O753    1.388   .     S
C708   O755    1.385   .     S
H709   C105    1.086   1_565 S
H714   C116    1.111   1_565 S
H720   C1551   1.084   .     S
H733   C796    1.113   .     S
H740   C1548   1.083   1_554 S
H741   O750    0.989   .     S
H742   O751    0.992   .     S
H743   O176    0.990   1_565 S
O745   Zn765   1.960   .     S
O745   Zn766   1.945   .     S
O745   Zn767   1.932   .     S
O745   Zn768   1.936   .     S
O746   Zn766   1.930   .     S
O747   Zn768   1.940   .     S
O748   Zn767   1.937   .     S
O749   Zn765   1.928   .     S
O751   C775    1.383   .     S
O756   Zn765   1.926   .     S
O758   Zn768   1.928   .     S
O759   Zn766   1.932   .     S
O760   Zn767   1.942   .     S
O761   Zn768   1.936   .     S
O762   Zn765   1.928   .     S
O763   Zn766   1.934   .     S
O764   Zn767   1.930   .     S
C769   O855    1.266   .     A
C769   C775    1.438   .     S
C769   O857    1.269   .     A
C770   C784    1.390   .     A
C770   C801    1.401   .     A
C770   H827    1.077   .     S
C771   C783    1.392   .     A
C771   O846    1.382   .     S
C771   C784    1.411   .     A
C772   O858    1.274   .     A
C772   C774    1.463   .     S
C772   O856    1.284   .     A
C773   C785    1.400   .     A
C773   C800    1.423   .     A
C773   C782    1.481   .     S
C774   C583    1.350   1_655 S
C774   O661    1.387   1_655 S
C776   C779    1.465   .     S
C776   C201    1.334   1_565 S
C776   O272    1.387   1_565 S
C777   C778    1.436   .     S
C778   O859    1.279   .     A
C778   O852    1.277   .     A
C779   O860    1.270   .     A
C779   O854    1.277   .     A
C780   C785    1.383   .     A
C780   C1655   1.394   .     S
C780   H1700   1.083   .     S
C781   O844    1.272   .     A
C781   O842    1.271   .     A
C781   C784    1.447   .     S
C782   O845    1.286   .     A
C782   O843    1.286   .     A
C783   C1666   1.406   1_554 S
C783   H1680   1.084   1_554 S
C785   H835    1.083   .     S
C786   C787    1.536   .     S
C786   O849    1.419   .     S
C786   H840    1.109   .     S
C786   H806    1.114   .     S
C787   C788    1.528   .     S
C787   H808    1.111   .     S
C787   H807    1.111   .     S
C788   H809    1.111   .     S
C788   H811    1.111   .     S
C789   C790    1.530   .     S
C789   H813    1.119   .     S
C789   H812    1.111   .     S
C789   O850    1.417   .     S
C790   H815    1.111   .     S
C790   H814    1.111   .     S
C791   O850    1.381   .     S
C791   C1644   1.394   1_554 S
C791   C1663   1.432   1_554 S
C792   H818    1.110   .     S
C792   H817    1.111   .     S
C792   C598    1.525   1_655 S
C792   H627    1.111   1_655 S
C793   H821    1.114   .     S
C793   C794    1.528   .     S
C793   H820    1.116   .     S
C793   O851    1.412   .     S
C794   H823    1.112   .     S
C794   C795    1.526   .     S
C794   H822    1.111   .     S
C795   H825    1.110   .     S
C795   H824    1.111   .     S
C795   H826    1.110   .     S
C796   C797    1.528   .     S
C796   H828    1.116   .     S
C796   O853    1.412   .     S
C797   H831    1.112   .     S
C797   C798    1.526   .     S
C797   H830    1.112   .     S
C798   H832    1.111   .     S
C798   H834    1.111   .     S
C798   H257    1.110   1_565 S
C799   C800    1.425   .     A
C799   C1655   1.432   .     S
C799   C1665   1.428   .     S
C800   C804    1.420   .     A
C801   C1663   1.428   1_554 S
C801   C1666   1.422   1_554 S
C802   C803    1.399   .     A
C802   C1665   1.422   .     S
C802   C1647   1.406   .     S
C803   C804    1.396   .     A
C803   O849    1.388   .     S
C804   O851    1.385   .     S
H805   C201    1.086   1_565 S
H810   C212    1.111   1_565 S
H816   C1647   1.084   .     S
H829   C604    1.113   1_655 S
H836   C1644   1.083   1_554 S
H837   O846    0.989   .     S
H838   O847    0.992   .     S
H839   O272    0.990   1_565 S
O841   Zn861   1.960   .     S
O841   Zn862   1.945   .     S
O841   Zn863   1.932   .     S
O841   Zn864   1.936   .     S
O842   Zn862   1.930   .     S
O843   Zn864   1.940   .     S
O844   Zn863   1.937   .     S
O845   Zn861   1.928   .     S
O847   C583    1.383   1_655 S
O852   Zn861   1.926   .     S
O854   Zn864   1.928   .     S
O855   Zn862   1.932   .     S
O856   Zn863   1.942   .     S
O857   Zn864   1.936   .     S
O858   Zn861   1.928   .     S
O859   Zn862   1.934   .     S
O860   Zn863   1.930   .     S
C865   O951    1.266   .     A
C865   C871    1.438   .     S
C865   O953    1.269   .     A
C866   C880    1.390   .     A
C866   C897    1.401   .     A
C866   H923    1.077   .     S
C867   C879    1.392   .     A
C867   O942    1.382   .     S
C867   C880    1.411   .     A
C868   O954    1.274   .     A
C868   C870    1.463   .     S
C868   O952    1.284   .     A
C869   C881    1.400   .     A
C869   C896    1.423   .     A
C869   C878    1.481   .     S
C870   C967    1.350   .     S
C870   O1045   1.387   .     S
C871   C1062   1.350   1_455 S
C871   O1135   1.383   1_455 S
C872   C875    1.465   .     S
C872   C1161   1.334   .     S
C872   O1232   1.387   .     S
C873   C874    1.436   .     S
C873   C1448   1.334   1_545 S
C873   H1477   1.086   1_545 S
C874   O955    1.279   .     A
C874   O948    1.277   .     A
C875   O956    1.270   .     A
C875   O950    1.277   .     A
C876   C881    1.383   .     A
C876   C23     1.394   1_556 S
C876   H68     1.083   1_556 S
C877   O940    1.272   .     A
C877   O938    1.271   .     A
C877   C880    1.447   .     S
C878   O941    1.286   .     A
C878   O939    1.286   .     A
C881   H931    1.083   .     S
C882   C883    1.536   .     S
C882   O945    1.419   .     S
C882   H936    1.109   .     S
C882   H902    1.114   .     S
C883   C884    1.528   .     S
C883   H904    1.111   .     S
C883   H903    1.111   .     S
C884   H905    1.111   .     S
C884   H907    1.111   .     S
C884   H1482   1.111   1_545 S
C885   C886    1.530   .     S
C885   H909    1.119   .     S
C885   H908    1.111   .     S
C885   O946    1.417   .     S
C886   H911    1.111   .     S
C886   H910    1.111   .     S
C886   C1080   1.525   1_455 S
C887   O946    1.381   .     S
C888   H914    1.110   .     S
C888   H913    1.111   .     S
C888   C982    1.525   .     S
C888   H1011   1.111   .     S
C889   H917    1.114   .     S
C889   C890    1.528   .     S
C889   H916    1.116   .     S
C889   O947    1.412   .     S
C890   H919    1.112   .     S
C890   C891    1.526   .     S
C890   H918    1.111   .     S
C891   H921    1.110   .     S
C891   H920    1.111   .     S
C891   H922    1.110   .     S
C892   C893    1.528   .     S
C892   H924    1.116   .     S
C892   O949    1.412   .     S
C892   H1117   1.113   1_455 S
C893   H927    1.112   .     S
C893   C894    1.526   .     S
C893   H926    1.112   .     S
C894   H928    1.111   .     S
C894   H930    1.111   .     S
C894   H1217   1.110   .     S
C895   C896    1.425   .     A
C895   C23     1.432   1_556 S
C895   C33     1.428   1_556 S
C896   C900    1.420   .     A
C898   C899    1.399   .     A
C898   C33     1.422   1_556 S
C898   C15     1.406   1_556 S
C899   C900    1.396   .     A
C899   O945    1.388   .     S
C900   O947    1.385   .     S
H901   C1161   1.086   .     S
H906   C1172   1.111   .     S
H912   C15     1.084   1_556 S
H915   C1080   1.111   1_455 S
H925   C988    1.113   .     S
H929   C1470   1.110   1_545 S
H933   O942    0.989   .     S
H934   O943    0.992   .     S
H935   O1232   0.990   .     S
O937   Zn957   1.960   .     S
O937   Zn958   1.945   .     S
O937   Zn959   1.932   .     S
O937   Zn960   1.936   .     S
O938   Zn958   1.930   .     S
O939   Zn960   1.940   .     S
O940   Zn959   1.937   .     S
O941   Zn957   1.928   .     S
O943   C967    1.383   .     S
O944   H1511   0.990   1_545 S
O944   C1448   1.387   1_545 S
O948   Zn957   1.926   .     S
O949   C1062   1.387   1_455 S
O950   Zn960   1.928   .     S
O951   Zn958   1.932   .     S
O952   Zn959   1.942   .     S
O953   Zn960   1.936   .     S
O954   Zn957   1.928   .     S
O955   Zn958   1.934   .     S
O956   Zn959   1.930   .     S
C961   O1047   1.266   .     A
C961   C967    1.438   .     S
C961   O1049   1.269   .     A
C962   C976    1.390   .     A
C962   C993    1.401   .     A
C962   H1019   1.077   .     S
C963   C975    1.392   .     A
C963   O1038   1.382   .     S
C963   C976    1.411   .     A
C964   O1050   1.274   .     A
C964   C966    1.463   .     S
C964   O1048   1.284   .     A
C965   C977    1.400   .     A
C965   C992    1.423   .     A
C965   C974    1.481   .     S
C966   C1063   1.350   .     S
C966   O1141   1.387   .     S
C968   C971    1.465   .     S
C968   C1257   1.334   .     S
C968   O1328   1.387   .     S
C969   C970    1.436   .     S
C969   C1544   1.334   1_545 S
C969   H1573   1.086   1_545 S
C970   O1051   1.279   .     A
C970   O1044   1.277   .     A
C971   O1052   1.270   .     A
C971   O1046   1.277   .     A
C972   C977    1.383   .     A
C972   C119    1.394   1_556 S
C972   H164    1.083   1_556 S
C973   O1036   1.272   .     A
C973   O1034   1.271   .     A
C973   C976    1.447   .     S
C974   O1037   1.286   .     A
C974   O1035   1.286   .     A
C977   H1027   1.083   .     S
C978   C979    1.536   .     S
C978   O1041   1.419   .     S
C978   H1032   1.109   .     S
C978   H998    1.114   .     S
C979   C980    1.528   .     S
C979   H1000   1.111   .     S
C979   H999    1.111   .     S
C980   H1001   1.111   .     S
C980   H1003   1.111   .     S
C980   H1578   1.111   1_545 S
C981   C982    1.530   .     S
C981   H1005   1.119   .     S
C981   H1004   1.111   .     S
C981   O1042   1.417   .     S
C982   H1007   1.111   .     S
C982   H1006   1.111   .     S
C983   O1042   1.381   .     S
C984   H1010   1.110   .     S
C984   H1009   1.111   .     S
C984   C1078   1.525   .     S
C984   H1107   1.111   .     S
C985   H1013   1.114   .     S
C985   C986    1.528   .     S
C985   H1012   1.116   .     S
C985   O1043   1.412   .     S
C986   H1015   1.112   .     S
C986   C987    1.526   .     S
C986   H1014   1.111   .     S
C987   H1017   1.110   .     S
C987   H1016   1.111   .     S
C987   H1018   1.110   .     S
C988   C989    1.528   .     S
C988   H1020   1.116   .     S
C988   O1045   1.412   .     S
C989   H1023   1.112   .     S
C989   C990    1.526   .     S
C989   H1022   1.112   .     S
C990   H1024   1.111   .     S
C990   H1026   1.111   .     S
C990   H1313   1.110   .     S
C991   C992    1.425   .     A
C991   C119    1.432   1_556 S
C991   C129    1.428   1_556 S
C992   C996    1.420   .     A
C994   C995    1.399   .     A
C994   C129    1.422   1_556 S
C994   C111    1.406   1_556 S
C995   C996    1.396   .     A
C995   O1041   1.388   .     S
C996   O1043   1.385   .     S
H997   C1257   1.086   .     S
H1002  C1268   1.111   .     S
H1008  C111    1.084   1_556 S
H1021  C1084   1.113   .     S
H1025  C1566   1.110   1_545 S
H1029  O1038   0.989   .     S
H1030  O1039   0.992   .     S
H1031  O1328   0.990   .     S
O1033  Zn1053  1.960   .     S
O1033  Zn1054  1.945   .     S
O1033  Zn1055  1.932   .     S
O1033  Zn1056  1.936   .     S
O1034  Zn1054  1.930   .     S
O1035  Zn1056  1.940   .     S
O1036  Zn1055  1.937   .     S
O1037  Zn1053  1.928   .     S
O1039  C1063   1.383   .     S
O1040  H1607   0.990   1_545 S
O1040  C1544   1.387   1_545 S
O1044  Zn1053  1.926   .     S
O1046  Zn1056  1.928   .     S
O1047  Zn1054  1.932   .     S
O1048  Zn1055  1.942   .     S
O1049  Zn1056  1.936   .     S
O1050  Zn1053  1.928   .     S
O1051  Zn1054  1.934   .     S
O1052  Zn1055  1.930   .     S
C1057  O1143   1.266   .     A
C1057  C1063   1.438   .     S
C1057  O1145   1.269   .     A
C1058  C1072   1.390   .     A
C1058  C1089   1.401   .     A
C1058  H1115   1.077   .     S
C1059  C1071   1.392   .     A
C1059  O1134   1.382   .     S
C1059  C1072   1.411   .     A
C1060  O1146   1.274   .     A
C1060  C1062   1.463   .     S
C1060  O1144   1.284   .     A
C1061  C1073   1.400   .     A
C1061  C1088   1.423   .     A
C1061  C1070   1.481   .     S
C1062  C871    1.350   1_655 S
C1062  O949    1.387   1_655 S
C1064  C1067   1.465   .     S
C1064  C1353   1.334   .     S
C1064  O1424   1.387   .     S
C1065  C1066   1.436   .     S
C1065  C1640   1.334   1_545 S
C1065  H1669   1.086   1_545 S
C1066  O1147   1.279   .     A
C1066  O1140   1.277   .     A
C1067  O1148   1.270   .     A
C1067  O1142   1.277   .     A
C1068  C1073   1.383   .     A
C1068  C215    1.394   1_556 S
C1068  H260    1.083   1_556 S
C1069  O1132   1.272   .     A
C1069  O1130   1.271   .     A
C1069  C1072   1.447   .     S
C1070  O1133   1.286   .     A
C1070  O1131   1.286   .     A
C1073  H1123   1.083   .     S
C1074  C1075   1.536   .     S
C1074  O1137   1.419   .     S
C1074  H1128   1.109   .     S
C1074  H1094   1.114   .     S
C1075  C1076   1.528   .     S
C1075  H1096   1.111   .     S
C1075  H1095   1.111   .     S
C1076  H1097   1.111   .     S
C1076  H1099   1.111   .     S
C1076  H1674   1.111   1_545 S
C1077  C1078   1.530   .     S
C1077  H1101   1.119   .     S
C1077  H1100   1.111   .     S
C1077  O1138   1.417   .     S
C1078  H1103   1.111   .     S
C1078  H1102   1.111   .     S
C1079  O1138   1.381   .     S
C1080  H1106   1.110   .     S
C1080  H1105   1.111   .     S
C1080  C886    1.525   1_655 S
C1080  H915    1.111   1_655 S
C1081  H1109   1.114   .     S
C1081  C1082   1.528   .     S
C1081  H1108   1.116   .     S
C1081  O1139   1.412   .     S
C1082  H1111   1.112   .     S
C1082  C1083   1.526   .     S
C1082  H1110   1.111   .     S
C1083  H1113   1.110   .     S
C1083  H1112   1.111   .     S
C1083  H1114   1.110   .     S
C1084  C1085   1.528   .     S
C1084  H1116   1.116   .     S
C1084  O1141   1.412   .     S
C1085  H1119   1.112   .     S
C1085  C1086   1.526   .     S
C1085  H1118   1.112   .     S
C1086  H1120   1.111   .     S
C1086  H1122   1.111   .     S
C1086  H1409   1.110   .     S
C1087  C1088   1.425   .     A
C1087  C215    1.432   1_556 S
C1087  C225    1.428   1_556 S
C1088  C1092   1.420   .     A
C1090  C1091   1.399   .     A
C1090  C225    1.422   1_556 S
C1090  C207    1.406   1_556 S
C1091  C1092   1.396   .     A
C1091  O1137   1.388   .     S
C1092  O1139   1.385   .     S
H1093  C1353   1.086   .     S
H1098  C1364   1.111   .     S
H1104  C207    1.084   1_556 S
H1117  C892    1.113   1_655 S
H1121  C1662   1.110   1_545 S
H1125  O1134   0.989   .     S
H1126  O1135   0.992   .     S
H1127  O1424   0.990   .     S
O1129  Zn1149  1.960   .     S
O1129  Zn1150  1.945   .     S
O1129  Zn1151  1.932   .     S
O1129  Zn1152  1.936   .     S
O1130  Zn1150  1.930   .     S
O1131  Zn1152  1.940   .     S
O1132  Zn1151  1.937   .     S
O1133  Zn1149  1.928   .     S
O1135  C871    1.383   1_655 S
O1136  H1703   0.990   1_545 S
O1136  C1640   1.387   1_545 S
O1140  Zn1149  1.926   .     S
O1142  Zn1152  1.928   .     S
O1143  Zn1150  1.932   .     S
O1144  Zn1151  1.942   .     S
O1145  Zn1152  1.936   .     S
O1146  Zn1149  1.928   .     S
O1147  Zn1150  1.934   .     S
O1148  Zn1151  1.930   .     S
C1153  O1239   1.266   .     A
C1153  C1159   1.438   .     S
C1153  O1241   1.269   .     A
C1154  C1168   1.390   .     A
C1154  C1185   1.401   .     A
C1154  H1211   1.077   .     S
C1155  C1167   1.392   .     A
C1155  O1230   1.382   .     S
C1155  C1168   1.411   .     A
C1156  O1242   1.274   .     A
C1156  C1158   1.463   .     S
C1156  O1240   1.284   .     A
C1157  C1169   1.400   .     A
C1157  C1184   1.423   .     A
C1157  C1166   1.481   .     S
C1158  C1255   1.350   .     S
C1158  O1333   1.387   .     S
C1159  C1350   1.350   1_455 S
C1159  O1423   1.383   1_455 S
C1160  C1163   1.465   .     S
C1160  C1449   1.334   .     S
C1160  O1520   1.387   .     S
C1161  C1162   1.436   .     S
C1162  O1243   1.279   .     A
C1162  O1236   1.277   .     A
C1163  O1244   1.270   .     A
C1163  O1238   1.277   .     A
C1164  C1169   1.383   .     A
C1164  C311    1.394   1_556 S
C1164  H356    1.083   1_556 S
C1165  O1228   1.272   .     A
C1165  O1226   1.271   .     A
C1165  C1168   1.447   .     S
C1166  O1229   1.286   .     A
C1166  O1227   1.286   .     A
C1169  H1219   1.083   .     S
C1170  C1171   1.536   .     S
C1170  O1233   1.419   .     S
C1170  H1224   1.109   .     S
C1170  H1190   1.114   .     S
C1171  C1172   1.528   .     S
C1171  H1192   1.111   .     S
C1171  H1191   1.111   .     S
C1172  H1193   1.111   .     S
C1172  H1195   1.111   .     S
C1173  C1174   1.530   .     S
C1173  H1197   1.119   .     S
C1173  H1196   1.111   .     S
C1173  O1234   1.417   .     S
C1174  H1199   1.111   .     S
C1174  H1198   1.111   .     S
C1174  C1368   1.525   1_455 S
C1175  O1234   1.381   .     S
C1176  H1202   1.110   .     S
C1176  H1201   1.111   .     S
C1176  C1270   1.525   .     S
C1176  H1299   1.111   .     S
C1177  H1205   1.114   .     S
C1177  C1178   1.528   .     S
C1177  H1204   1.116   .     S
C1177  O1235   1.412   .     S
C1178  H1207   1.112   .     S
C1178  C1179   1.526   .     S
C1178  H1206   1.111   .     S
C1179  H1209   1.110   .     S
C1179  H1208   1.111   .     S
C1179  H1210   1.110   .     S
C1180  C1181   1.528   .     S
C1180  H1212   1.116   .     S
C1180  O1237   1.412   .     S
C1180  H1405   1.113   1_455 S
C1181  H1215   1.112   .     S
C1181  C1182   1.526   .     S
C1181  H1214   1.112   .     S
C1182  H1216   1.111   .     S
C1182  H1218   1.111   .     S
C1182  H1505   1.110   .     S
C1183  C1184   1.425   .     A
C1183  C311    1.432   1_556 S
C1183  C321    1.428   1_556 S
C1184  C1188   1.420   .     A
C1186  C1187   1.399   .     A
C1186  C321    1.422   1_556 S
C1186  C303    1.406   1_556 S
C1187  C1188   1.396   .     A
C1187  O1233   1.388   .     S
C1188  O1235   1.385   .     S
H1189  C1449   1.086   .     S
H1194  C1460   1.111   .     S
H1200  C303    1.084   1_556 S
H1203  C1368   1.111   1_455 S
H1213  C1276   1.113   .     S
H1221  O1230   0.989   .     S
H1222  O1231   0.992   .     S
H1223  O1520   0.990   .     S
O1225  Zn1245  1.960   .     S
O1225  Zn1246  1.945   .     S
O1225  Zn1247  1.932   .     S
O1225  Zn1248  1.936   .     S
O1226  Zn1246  1.930   .     S
O1227  Zn1248  1.940   .     S
O1228  Zn1247  1.937   .     S
O1229  Zn1245  1.928   .     S
O1231  C1255   1.383   .     S
O1236  Zn1245  1.926   .     S
O1237  C1350   1.387   1_455 S
O1238  Zn1248  1.928   .     S
O1239  Zn1246  1.932   .     S
O1240  Zn1247  1.942   .     S
O1241  Zn1248  1.936   .     S
O1242  Zn1245  1.928   .     S
O1243  Zn1246  1.934   .     S
O1244  Zn1247  1.930   .     S
C1249  O1335   1.266   .     A
C1249  C1255   1.438   .     S
C1249  O1337   1.269   .     A
C1250  C1264   1.390   .     A
C1250  C1281   1.401   .     A
C1250  H1307   1.077   .     S
C1251  C1263   1.392   .     A
C1251  O1326   1.382   .     S
C1251  C1264   1.411   .     A
C1252  O1338   1.274   .     A
C1252  C1254   1.463   .     S
C1252  O1336   1.284   .     A
C1253  C1265   1.400   .     A
C1253  C1280   1.423   .     A
C1253  C1262   1.481   .     S
C1254  C1351   1.350   .     S
C1254  O1429   1.387   .     S
C1256  C1259   1.465   .     S
C1256  C1545   1.334   .     S
C1256  O1616   1.387   .     S
C1257  C1258   1.436   .     S
C1258  O1339   1.279   .     A
C1258  O1332   1.277   .     A
C1259  O1340   1.270   .     A
C1259  O1334   1.277   .     A
C1260  C1265   1.383   .     A
C1260  C407    1.394   1_556 S
C1260  H452    1.083   1_556 S
C1261  O1324   1.272   .     A
C1261  O1322   1.271   .     A
C1261  C1264   1.447   .     S
C1262  O1325   1.286   .     A
C1262  O1323   1.286   .     A
C1265  H1315   1.083   .     S
C1266  C1267   1.536   .     S
C1266  O1329   1.419   .     S
C1266  H1320   1.109   .     S
C1266  H1286   1.114   .     S
C1267  C1268   1.528   .     S
C1267  H1288   1.111   .     S
C1267  H1287   1.111   .     S
C1268  H1289   1.111   .     S
C1268  H1291   1.111   .     S
C1269  C1270   1.530   .     S
C1269  H1293   1.119   .     S
C1269  H1292   1.111   .     S
C1269  O1330   1.417   .     S
C1270  H1295   1.111   .     S
C1270  H1294   1.111   .     S
C1271  O1330   1.381   .     S
C1272  H1298   1.110   .     S
C1272  H1297   1.111   .     S
C1272  C1366   1.525   .     S
C1272  H1395   1.111   .     S
C1273  H1301   1.114   .     S
C1273  C1274   1.528   .     S
C1273  H1300   1.116   .     S
C1273  O1331   1.412   .     S
C1274  H1303   1.112   .     S
C1274  C1275   1.526   .     S
C1274  H1302   1.111   .     S
C1275  H1305   1.110   .     S
C1275  H1304   1.111   .     S
C1275  H1306   1.110   .     S
C1276  C1277   1.528   .     S
C1276  H1308   1.116   .     S
C1276  O1333   1.412   .     S
C1277  H1311   1.112   .     S
C1277  C1278   1.526   .     S
C1277  H1310   1.112   .     S
C1278  H1312   1.111   .     S
C1278  H1314   1.111   .     S
C1278  H1601   1.110   .     S
C1279  C1280   1.425   .     A
C1279  C407    1.432   1_556 S
C1279  C417    1.428   1_556 S
C1280  C1284   1.420   .     A
C1282  C1283   1.399   .     A
C1282  C417    1.422   1_556 S
C1282  C399    1.406   1_556 S
C1283  C1284   1.396   .     A
C1283  O1329   1.388   .     S
C1284  O1331   1.385   .     S
H1285  C1545   1.086   .     S
H1290  C1556   1.111   .     S
H1296  C399    1.084   1_556 S
H1309  C1372   1.113   .     S
H1317  O1326   0.989   .     S
H1318  O1327   0.992   .     S
H1319  O1616   0.990   .     S
O1321  Zn1341  1.960   .     S
O1321  Zn1342  1.945   .     S
O1321  Zn1343  1.932   .     S
O1321  Zn1344  1.936   .     S
O1322  Zn1342  1.930   .     S
O1323  Zn1344  1.940   .     S
O1324  Zn1343  1.937   .     S
O1325  Zn1341  1.928   .     S
O1327  C1351   1.383   .     S
O1332  Zn1341  1.926   .     S
O1334  Zn1344  1.928   .     S
O1335  Zn1342  1.932   .     S
O1336  Zn1343  1.942   .     S
O1337  Zn1344  1.936   .     S
O1338  Zn1341  1.928   .     S
O1339  Zn1342  1.934   .     S
O1340  Zn1343  1.930   .     S
C1345  O1431   1.266   .     A
C1345  C1351   1.438   .     S
C1345  O1433   1.269   .     A
C1346  C1360   1.390   .     A
C1346  C1377   1.401   .     A
C1346  H1403   1.077   .     S
C1347  C1359   1.392   .     A
C1347  O1422   1.382   .     S
C1347  C1360   1.411   .     A
C1348  O1434   1.274   .     A
C1348  C1350   1.463   .     S
C1348  O1432   1.284   .     A
C1349  C1361   1.400   .     A
C1349  C1376   1.423   .     A
C1349  C1358   1.481   .     S
C1350  C1159   1.350   1_655 S
C1350  O1237   1.387   1_655 S
C1352  C1355   1.465   .     S
C1352  C1641   1.334   .     S
C1352  O1712   1.387   .     S
C1353  C1354   1.436   .     S
C1354  O1435   1.279   .     A
C1354  O1428   1.277   .     A
C1355  O1436   1.270   .     A
C1355  O1430   1.277   .     A
C1356  C1361   1.383   .     A
C1356  C503    1.394   1_556 S
C1356  H548    1.083   1_556 S
C1357  O1420   1.272   .     A
C1357  O1418   1.271   .     A
C1357  C1360   1.447   .     S
C1358  O1421   1.286   .     A
C1358  O1419   1.286   .     A
C1361  H1411   1.083   .     S
C1362  C1363   1.536   .     S
C1362  O1425   1.419   .     S
C1362  H1416   1.109   .     S
C1362  H1382   1.114   .     S
C1363  C1364   1.528   .     S
C1363  H1384   1.111   .     S
C1363  H1383   1.111   .     S
C1364  H1385   1.111   .     S
C1364  H1387   1.111   .     S
C1365  C1366   1.530   .     S
C1365  H1389   1.119   .     S
C1365  H1388   1.111   .     S
C1365  O1426   1.417   .     S
C1366  H1391   1.111   .     S
C1366  H1390   1.111   .     S
C1367  O1426   1.381   .     S
C1368  H1394   1.110   .     S
C1368  H1393   1.111   .     S
C1368  C1174   1.525   1_655 S
C1368  H1203   1.111   1_655 S
C1369  H1397   1.114   .     S
C1369  C1370   1.528   .     S
C1369  H1396   1.116   .     S
C1369  O1427   1.412   .     S
C1370  H1399   1.112   .     S
C1370  C1371   1.526   .     S
C1370  H1398   1.111   .     S
C1371  H1401   1.110   .     S
C1371  H1400   1.111   .     S
C1371  H1402   1.110   .     S
C1372  C1373   1.528   .     S
C1372  H1404   1.116   .     S
C1372  O1429   1.412   .     S
C1373  H1407   1.112   .     S
C1373  C1374   1.526   .     S
C1373  H1406   1.112   .     S
C1374  H1408   1.111   .     S
C1374  H1410   1.111   .     S
C1374  H1697   1.110   .     S
C1375  C1376   1.425   .     A
C1375  C503    1.432   1_556 S
C1375  C513    1.428   1_556 S
C1376  C1380   1.420   .     A
C1378  C1379   1.399   .     A
C1378  C513    1.422   1_556 S
C1378  C495    1.406   1_556 S
C1379  C1380   1.396   .     A
C1379  O1425   1.388   .     S
C1380  O1427   1.385   .     S
H1381  C1641   1.086   .     S
H1386  C1652   1.111   .     S
H1392  C495    1.084   1_556 S
H1405  C1180   1.113   1_655 S
H1413  O1422   0.989   .     S
H1414  O1423   0.992   .     S
H1415  O1712   0.990   .     S
O1417  Zn1437  1.960   .     S
O1417  Zn1438  1.945   .     S
O1417  Zn1439  1.932   .     S
O1417  Zn1440  1.936   .     S
O1418  Zn1438  1.930   .     S
O1419  Zn1440  1.940   .     S
O1420  Zn1439  1.937   .     S
O1421  Zn1437  1.928   .     S
O1423  C1159   1.383   1_655 S
O1428  Zn1437  1.926   .     S
O1430  Zn1440  1.928   .     S
O1431  Zn1438  1.932   .     S
O1432  Zn1439  1.942   .     S
O1433  Zn1440  1.936   .     S
O1434  Zn1437  1.928   .     S
O1435  Zn1438  1.934   .     S
O1436  Zn1439  1.930   .     S
C1441  O1527   1.266   .     A
C1441  C1447   1.438   .     S
C1441  O1529   1.269   .     A
C1442  C1456   1.390   .     A
C1442  C1473   1.401   .     A
C1442  H1499   1.077   .     S
C1443  C1455   1.392   .     A
C1443  O1518   1.382   .     S
C1443  C1456   1.411   .     A
C1444  O1530   1.274   .     A
C1444  C1446   1.463   .     S
C1444  O1528   1.284   .     A
C1445  C1457   1.400   .     A
C1445  C1472   1.423   .     A
C1445  C1454   1.481   .     S
C1446  C1543   1.350   .     S
C1446  O1621   1.387   .     S
C1447  C1638   1.350   1_455 S
C1447  O1711   1.383   1_455 S
C1448  C1451   1.465   .     S
C1448  C873    1.334   1_565 S
C1448  O944    1.387   1_565 S
C1449  C1450   1.436   .     S
C1450  O1531   1.279   .     A
C1450  O1524   1.277   .     A
C1451  O1532   1.270   .     A
C1451  O1526   1.277   .     A
C1452  C1457   1.383   .     A
C1452  C599    1.394   1_556 S
C1452  H644    1.083   1_556 S
C1453  O1516   1.272   .     A
C1453  O1514   1.271   .     A
C1453  C1456   1.447   .     S
C1454  O1517   1.286   .     A
C1454  O1515   1.286   .     A
C1457  H1507   1.083   .     S
C1458  C1459   1.536   .     S
C1458  O1521   1.419   .     S
C1458  H1512   1.109   .     S
C1458  H1478   1.114   .     S
C1459  C1460   1.528   .     S
C1459  H1480   1.111   .     S
C1459  H1479   1.111   .     S
C1460  H1481   1.111   .     S
C1460  H1483   1.111   .     S
C1461  C1462   1.530   .     S
C1461  H1485   1.119   .     S
C1461  H1484   1.111   .     S
C1461  O1522   1.417   .     S
C1462  H1487   1.111   .     S
C1462  H1486   1.111   .     S
C1462  C1656   1.525   1_455 S
C1463  O1522   1.381   .     S
C1464  H1490   1.110   .     S
C1464  H1489   1.111   .     S
C1464  C1558   1.525   .     S
C1464  H1587   1.111   .     S
C1465  H1493   1.114   .     S
C1465  C1466   1.528   .     S
C1465  H1492   1.116   .     S
C1465  O1523   1.412   .     S
C1466  H1495   1.112   .     S
C1466  C1467   1.526   .     S
C1466  H1494   1.111   .     S
C1467  H1497   1.110   .     S
C1467  H1496   1.111   .     S
C1467  H1498   1.110   .     S
C1468  C1469   1.528   .     S
C1468  H1500   1.116   .     S
C1468  O1525   1.412   .     S
C1468  H1693   1.113   1_455 S
C1469  H1503   1.112   .     S
C1469  C1470   1.526   .     S
C1469  H1502   1.112   .     S
C1470  H1504   1.111   .     S
C1470  H1506   1.111   .     S
C1470  H929    1.110   1_565 S
C1471  C1472   1.425   .     A
C1471  C599    1.432   1_556 S
C1471  C609    1.428   1_556 S
C1472  C1476   1.420   .     A
C1474  C1475   1.399   .     A
C1474  C609    1.422   1_556 S
C1474  C591    1.406   1_556 S
C1475  C1476   1.396   .     A
C1475  O1521   1.388   .     S
C1476  O1523   1.385   .     S
H1477  C873    1.086   1_565 S
H1482  C884    1.111   1_565 S
H1488  C591    1.084   1_556 S
H1491  C1656   1.111   1_455 S
H1501  C1564   1.113   .     S
H1509  O1518   0.989   .     S
H1510  O1519   0.992   .     S
H1511  O944    0.990   1_565 S
O1513  Zn1533  1.960   .     S
O1513  Zn1534  1.945   .     S
O1513  Zn1535  1.932   .     S
O1513  Zn1536  1.936   .     S
O1514  Zn1534  1.930   .     S
O1515  Zn1536  1.940   .     S
O1516  Zn1535  1.937   .     S
O1517  Zn1533  1.928   .     S
O1519  C1543   1.383   .     S
O1524  Zn1533  1.926   .     S
O1525  C1638   1.387   1_455 S
O1526  Zn1536  1.928   .     S
O1527  Zn1534  1.932   .     S
O1528  Zn1535  1.942   .     S
O1529  Zn1536  1.936   .     S
O1530  Zn1533  1.928   .     S
O1531  Zn1534  1.934   .     S
O1532  Zn1535  1.930   .     S
C1537  O1623   1.266   .     A
C1537  C1543   1.438   .     S
C1537  O1625   1.269   .     A
C1538  C1552   1.390   .     A
C1538  C1569   1.401   .     A
C1538  H1595   1.077   .     S
C1539  C1551   1.392   .     A
C1539  O1614   1.382   .     S
C1539  C1552   1.411   .     A
C1540  O1626   1.274   .     A
C1540  C1542   1.463   .     S
C1540  O1624   1.284   .     A
C1541  C1553   1.400   .     A
C1541  C1568   1.423   .     A
C1541  C1550   1.481   .     S
C1542  C1639   1.350   .     S
C1542  O1717   1.387   .     S
C1544  C1547   1.465   .     S
C1544  C969    1.334   1_565 S
C1544  O1040   1.387   1_565 S
C1545  C1546   1.436   .     S
C1546  O1627   1.279   .     A
C1546  O1620   1.277   .     A
C1547  O1628   1.270   .     A
C1547  O1622   1.277   .     A
C1548  C1553   1.383   .     A
C1548  C695    1.394   1_556 S
C1548  H740    1.083   1_556 S
C1549  O1612   1.272   .     A
C1549  O1610   1.271   .     A
C1549  C1552   1.447   .     S
C1550  O1613   1.286   .     A
C1550  O1611   1.286   .     A
C1553  H1603   1.083   .     S
C1554  C1555   1.536   .     S
C1554  O1617   1.419   .     S
C1554  H1608   1.109   .     S
C1554  H1574   1.114   .     S
C1555  C1556   1.528   .     S
C1555  H1576   1.111   .     S
C1555  H1575   1.111   .     S
C1556  H1577   1.111   .     S
C1556  H1579   1.111   .     S
C1557  C1558   1.530   .     S
C1557  H1581   1.119   .     S
C1557  H1580   1.111   .     S
C1557  O1618   1.417   .     S
C1558  H1583   1.111   .     S
C1558  H1582   1.111   .     S
C1559  O1618   1.381   .     S
C1560  H1586   1.110   .     S
C1560  H1585   1.111   .     S
C1560  C1654   1.525   .     S
C1560  H1683   1.111   .     S
C1561  H1589   1.114   .     S
C1561  C1562   1.528   .     S
C1561  H1588   1.116   .     S
C1561  O1619   1.412   .     S
C1562  H1591   1.112   .     S
C1562  C1563   1.526   .     S
C1562  H1590   1.111   .     S
C1563  H1593   1.110   .     S
C1563  H1592   1.111   .     S
C1563  H1594   1.110   .     S
C1564  C1565   1.528   .     S
C1564  H1596   1.116   .     S
C1564  O1621   1.412   .     S
C1565  H1599   1.112   .     S
C1565  C1566   1.526   .     S
C1565  H1598   1.112   .     S
C1566  H1600   1.111   .     S
C1566  H1602   1.111   .     S
C1566  H1025   1.110   1_565 S
C1567  C1568   1.425   .     A
C1567  C695    1.432   1_556 S
C1567  C705    1.428   1_556 S
C1568  C1572   1.420   .     A
C1570  C1571   1.399   .     A
C1570  C705    1.422   1_556 S
C1570  C687    1.406   1_556 S
C1571  C1572   1.396   .     A
C1571  O1617   1.388   .     S
C1572  O1619   1.385   .     S
H1573  C969    1.086   1_565 S
H1578  C980    1.111   1_565 S
H1584  C687    1.084   1_556 S
H1597  C1660   1.113   .     S
H1605  O1614   0.989   .     S
H1606  O1615   0.992   .     S
H1607  O1040   0.990   1_565 S
O1609  Zn1629  1.960   .     S
O1609  Zn1630  1.945   .     S
O1609  Zn1631  1.932   .     S
O1609  Zn1632  1.936   .     S
O1610  Zn1630  1.930   .     S
O1611  Zn1632  1.940   .     S
O1612  Zn1631  1.937   .     S
O1613  Zn1629  1.928   .     S
O1615  C1639   1.383   .     S
O1620  Zn1629  1.926   .     S
O1622  Zn1632  1.928   .     S
O1623  Zn1630  1.932   .     S
O1624  Zn1631  1.942   .     S
O1625  Zn1632  1.936   .     S
O1626  Zn1629  1.928   .     S
O1627  Zn1630  1.934   .     S
O1628  Zn1631  1.930   .     S
C1633  O1719   1.266   .     A
C1633  C1639   1.438   .     S
C1633  O1721   1.269   .     A
C1634  C1648   1.390   .     A
C1634  C1665   1.401   .     A
C1634  H1691   1.077   .     S
C1635  C1647   1.392   .     A
C1635  O1710   1.382   .     S
C1635  C1648   1.411   .     A
C1636  O1722   1.274   .     A
C1636  C1638   1.463   .     S
C1636  O1720   1.284   .     A
C1637  C1649   1.400   .     A
C1637  C1664   1.423   .     A
C1637  C1646   1.481   .     S
C1638  C1447   1.350   1_655 S
C1638  O1525   1.387   1_655 S
C1640  C1643   1.465   .     S
C1640  C1065   1.334   1_565 S
C1640  O1136   1.387   1_565 S
C1641  C1642   1.436   .     S
C1642  O1723   1.279   .     A
C1642  O1716   1.277   .     A
C1643  O1724   1.270   .     A
C1643  O1718   1.277   .     A
C1644  C1649   1.383   .     A
C1644  C791    1.394   1_556 S
C1644  H836    1.083   1_556 S
C1645  O1708   1.272   .     A
C1645  O1706   1.271   .     A
C1645  C1648   1.447   .     S
C1646  O1709   1.286   .     A
C1646  O1707   1.286   .     A
C1649  H1699   1.083   .     S
C1650  C1651   1.536   .     S
C1650  O1713   1.419   .     S
C1650  H1704   1.109   .     S
C1650  H1670   1.114   .     S
C1651  C1652   1.528   .     S
C1651  H1672   1.111   .     S
C1651  H1671   1.111   .     S
C1652  H1673   1.111   .     S
C1652  H1675   1.111   .     S
C1653  C1654   1.530   .     S
C1653  H1677   1.119   .     S
C1653  H1676   1.111   .     S
C1653  O1714   1.417   .     S
C1654  H1679   1.111   .     S
C1654  H1678   1.111   .     S
C1655  O1714   1.381   .     S
C1656  H1682   1.110   .     S
C1656  H1681   1.111   .     S
C1656  C1462   1.525   1_655 S
C1656  H1491   1.111   1_655 S
C1657  H1685   1.114   .     S
C1657  C1658   1.528   .     S
C1657  H1684   1.116   .     S
C1657  O1715   1.412   .     S
C1658  H1687   1.112   .     S
C1658  C1659   1.526   .     S
C1658  H1686   1.111   .     S
C1659  H1689   1.110   .     S
C1659  H1688   1.111   .     S
C1659  H1690   1.110   .     S
C1660  C1661   1.528   .     S
C1660  H1692   1.116   .     S
C1660  O1717   1.412   .     S
C1661  H1695   1.112   .     S
C1661  C1662   1.526   .     S
C1661  H1694   1.112   .     S
C1662  H1696   1.111   .     S
C1662  H1698   1.111   .     S
C1662  H1121   1.110   1_565 S
C1663  C1664   1.425   .     A
C1663  C791    1.432   1_556 S
C1663  C801    1.428   1_556 S
C1664  C1668   1.420   .     A
C1666  C1667   1.399   .     A
C1666  C801    1.422   1_556 S
C1666  C783    1.406   1_556 S
C1667  C1668   1.396   .     A
C1667  O1713   1.388   .     S
C1668  O1715   1.385   .     S
H1669  C1065   1.086   1_565 S
H1674  C1076   1.111   1_565 S
H1680  C783    1.084   1_556 S
H1693  C1468   1.113   1_655 S
H1701  O1710   0.989   .     S
H1702  O1711   0.992   .     S
H1703  O1136   0.990   1_565 S
O1705  Zn1725  1.960   .     S
O1705  Zn1726  1.945   .     S
O1705  Zn1727  1.932   .     S
O1705  Zn1728  1.936   .     S
O1706  Zn1726  1.930   .     S
O1707  Zn1728  1.940   .     S
O1708  Zn1727  1.937   .     S
O1709  Zn1725  1.928   .     S
O1711  C1447   1.383   1_655 S
O1716  Zn1725  1.926   .     S
O1718  Zn1728  1.928   .     S
O1719  Zn1726  1.932   .     S
O1720  Zn1727  1.942   .     S
O1721  Zn1728  1.936   .     S
O1722  Zn1725  1.928   .     S
O1723  Zn1726  1.934   .     S
O1724  Zn1727  1.930   .     S
