data_str_m1_o5_o17_pcu_sym.23
_audit_creation_date              2020-01-03
_audit_creation_method            'Materials Studio'
_symmetry_space_group_name_H-M    'P1'
_symmetry_Int_Tables_number       1
_symmetry_cell_setting            triclinic
loop_
_symmetry_equiv_pos_as_xyz
  x,y,z
_cell_length_a                    31.7654
_cell_length_b                    31.7654
_cell_length_c                    34.4105
_cell_angle_alpha                 90.0000
_cell_angle_beta                  90.0000
_cell_angle_gamma                 89.9997
loop_
_atom_site_label
_atom_site_type_symbol
_atom_site_fract_x
_atom_site_fract_y
_atom_site_fract_z
_atom_site_U_iso_or_equiv
_atom_site_adp_type
_atom_site_occupancy
C1     C     0.25000  -0.00000   0.35597   0.00000  Uiso   1.00
C2     C     0.33003   0.41997   0.75000   0.00000  Uiso   1.00
C3     C     0.42373   0.26027   0.01977   0.00000  Uiso   1.00
C4     C     0.26845   0.07467   0.97968   0.00000  Uiso   1.00
C5     C     0.23887   0.42386   0.01975   0.00000  Uiso   1.00
C6     C     0.42513   0.26763   0.97969   0.00000  Uiso   1.00
C7     C     0.07626   0.23973   0.01977   0.00000  Uiso   1.00
C8     C     0.41997   0.16997   0.25000   0.00000  Uiso   1.00
C9     C     0.08003   0.33003   0.75000   0.00000  Uiso   1.00
C10    C     0.33003   0.41997   0.25000   0.00000  Uiso   1.00
C11    C     0.16997   0.08003   0.75000   0.00000  Uiso   1.00
C12    C     0.08003   0.33003   0.25000   0.00000  Uiso   1.00
C13    C     0.41997   0.16997   0.75000   0.00000  Uiso   1.00
C14    C     0.16997   0.41997   0.75000   0.00000  Uiso   1.00
C15    C     0.33003   0.08003   0.25000   0.00000  Uiso   1.00
C16    C     0.41997   0.33003   0.75000   0.00000  Uiso   1.00
C17    C     0.25000  -0.00000   0.64414   0.00000  Uiso   1.00
C18    C     0.08003   0.16997   0.25000   0.00000  Uiso   1.00
C19    C     0.33003   0.08003   0.75000   0.00000  Uiso   1.00
C20    C     0.16997   0.41997   0.25000   0.00000  Uiso   1.00
C21    C     0.08003   0.16997   0.75000   0.00000  Uiso   1.00
C22    C     0.41997   0.33003   0.25000   0.00000  Uiso   1.00
C23    C     0.13833   0.38833   0.25000   0.00000  Uiso   1.00
C24    C     0.36167   0.11167   0.75000   0.00000  Uiso   1.00
C25    C     0.11167   0.13833   0.25000   0.00000  Uiso   1.00
C26    C     0.38833   0.36167   0.75000   0.00000  Uiso   1.00
C27    C     0.36167   0.11167   0.25000   0.00000  Uiso   1.00
C28    C    -0.00000   0.25000   0.35597   0.00000  Uiso   1.00
C29    C     0.13833   0.38833   0.75000   0.00000  Uiso   1.00
C30    C     0.38833   0.36167   0.25000   0.00000  Uiso   1.00
C31    C     0.11167   0.13833   0.75000   0.00000  Uiso   1.00
C32    C     0.13833   0.11167   0.75000   0.00000  Uiso   1.00
C33    C     0.36167   0.38833   0.25000   0.00000  Uiso   1.00
C34    C     0.11167   0.36167   0.75000   0.00000  Uiso   1.00
C35    C     0.38833   0.13833   0.25000   0.00000  Uiso   1.00
C36    C     0.36167   0.38833   0.75000   0.00000  Uiso   1.00
C37    C     0.13833   0.11167   0.25000   0.00000  Uiso   1.00
C38    C     0.38833   0.13833   0.75000   0.00000  Uiso   1.00
C39    C     0.00000   0.25000   0.64414   0.00000  Uiso   1.00
C40    C     0.11167   0.36167   0.25000   0.00000  Uiso   1.00
C41    C     0.48689   0.28614   0.41856   0.00000  Uiso   1.00
C42    C     0.00084   0.21164   0.58186   0.00000  Uiso   1.00
C43    C     0.21403   0.48644   0.41858   0.00000  Uiso   1.00
C44    C     0.28835   0.00127   0.58187   0.00000  Uiso   1.00
C45    C     0.01311   0.21386   0.41856   0.00000  Uiso   1.00
C46    C     0.49916   0.28836   0.58186   0.00000  Uiso   1.00
C47    C     0.28597   0.01356   0.41858   0.00000  Uiso   1.00
C48    C     0.21165   0.49873   0.58187   0.00000  Uiso   1.00
C49    C     0.25127   0.03835   0.91813   0.00000  Uiso   1.00
C50    C    -0.00000   0.25000   0.85586   0.00000  Uiso   1.00
C51    C     0.23644   0.46403   0.08142   0.00000  Uiso   1.00
C52    C     0.46164   0.25084   0.91814   0.00000  Uiso   1.00
C53    C     0.03614   0.23689   0.08144   0.00000  Uiso   1.00
C54    C     0.24873   0.46165   0.91813   0.00000  Uiso   1.00
C55    C     0.26356   0.03597   0.08142   0.00000  Uiso   1.00
C56    C     0.03836   0.24916   0.91814   0.00000  Uiso   1.00
C57    C     0.46386   0.26311   0.08144   0.00000  Uiso   1.00
C58    C    -0.00000   0.25000   0.39837   0.00000  Uiso   1.00
C59    C    -0.00000   0.25000   0.60190   0.00000  Uiso   1.00
C60    C     0.25000  -0.00000   0.39838   0.00000  Uiso   1.00
C61    C    -0.00000   0.25000   0.14403   0.00000  Uiso   1.00
C62    C     0.25000  -0.00000   0.60191   0.00000  Uiso   1.00
C63    C     0.25000  -0.00000   0.89809   0.00000  Uiso   1.00
C64    C     0.25000  -0.00000   0.10162   0.00000  Uiso   1.00
C65    C    -0.00000   0.25000   0.89809   0.00000  Uiso   1.00
C66    C    -0.00000   0.25000   0.10163   0.00000  Uiso   1.00
C67    C     0.00705   0.21186   0.45917   0.00000  Uiso   1.00
C68    C     0.49295   0.28812   0.54127   0.00000  Uiso   1.00
C69    C     0.28805   0.00751   0.45918   0.00000  Uiso   1.00
C70    C     0.21196   0.49253   0.54128   0.00000  Uiso   1.00
C71    C     0.49295   0.28814   0.45917   0.00000  Uiso   1.00
C72    C     0.25000  -0.00000   0.85586   0.00000  Uiso   1.00
C73    C     0.00705   0.21188   0.54127   0.00000  Uiso   1.00
C74    C     0.21195   0.49249   0.45918   0.00000  Uiso   1.00
C75    C     0.28804   0.00747   0.54128   0.00000  Uiso   1.00
C76    C     0.24253   0.46196   0.95872   0.00000  Uiso   1.00
C77    C     0.25751   0.03805   0.04082   0.00000  Uiso   1.00
C78    C     0.03812   0.24295   0.95873   0.00000  Uiso   1.00
C79    C     0.46186   0.25705   0.04083   0.00000  Uiso   1.00
C80    C     0.25747   0.03804   0.95872   0.00000  Uiso   1.00
C81    C     0.24249   0.46195   0.04082   0.00000  Uiso   1.00
C82    C     0.46188   0.25705   0.95873   0.00000  Uiso   1.00
C83    C     0.25000  -0.00000   0.14403   0.00000  Uiso   1.00
C84    C     0.03814   0.24295   0.04083   0.00000  Uiso   1.00
C85    C     0.00000   0.25000   0.47968   0.00000  Uiso   1.00
C86    C     0.00000   0.25000   0.52073   0.00000  Uiso   1.00
C87    C     0.25000  -0.00000   0.47969   0.00000  Uiso   1.00
C88    C     0.25000  -0.00000   0.52074   0.00000  Uiso   1.00
C89    C     0.25000  -0.00000   0.97926   0.00000  Uiso   1.00
C90    C     0.25000  -0.00000   0.02031   0.00000  Uiso   1.00
C91    C    -0.00000   0.25000   0.97927   0.00000  Uiso   1.00
C92    C    -0.00000   0.25000   0.02032   0.00000  Uiso   1.00
C93    C     0.01027   0.17373   0.48023   0.00000  Uiso   1.00
C94    C     0.16997   0.08003   0.25000   0.00000  Uiso   1.00
C95    C     0.48237   0.32487   0.52031   0.00000  Uiso   1.00
C96    C     0.32614   0.01113   0.48025   0.00000  Uiso   1.00
C97    C     0.17533   0.48155   0.52032   0.00000  Uiso   1.00
C98    C     0.48973   0.32626   0.48023   0.00000  Uiso   1.00
C99    C     0.01763   0.17513   0.52031   0.00000  Uiso   1.00
C100   C     0.17386   0.48887   0.48025   0.00000  Uiso   1.00
C101   C     0.32467   0.01845   0.52032   0.00000  Uiso   1.00
C102   C     0.23155   0.42533   0.97968   0.00000  Uiso   1.00
C103   C     0.26113   0.07614   0.01975   0.00000  Uiso   1.00
C104   C     0.07487   0.23237   0.97969   0.00000  Uiso   1.00
H105   H     0.45018   0.10581   0.41410   0.00000  Uiso   1.00
H106   H     0.18754   0.10014   0.06884   0.00000  Uiso   1.00
H107   H     0.11775   0.15440   0.91163   0.00000  Uiso   1.00
H108   H     0.35581   0.20019   0.08590   0.00000  Uiso   1.00
H109   H     0.34687   0.11666   0.91157   0.00000  Uiso   1.00
H110   H     0.31246   0.39986   0.06884   0.00000  Uiso   1.00
H111   H     0.38225   0.34560   0.91163   0.00000  Uiso   1.00
H112   H     0.14419   0.29982   0.08590   0.00000  Uiso   1.00
H113   H     0.40440   0.36775   0.58838   0.00000  Uiso   1.00
H114   H     0.35014   0.43754   0.43116   0.00000  Uiso   1.00
H115   H     0.13334   0.40313   0.58842   0.00000  Uiso   1.00
H116   H     0.04982   0.39419   0.41410   0.00000  Uiso   1.00
H117   H     0.09560   0.13225   0.58837   0.00000  Uiso   1.00
H118   H     0.14986   0.06246   0.43116   0.00000  Uiso   1.00
H119   H     0.36666   0.09687   0.58842   0.00000  Uiso   1.00
H120   H     0.15313   0.38334   0.91157   0.00000  Uiso   1.00
I121   I     0.45001   0.33234   0.38798   0.00000  Uiso   1.00
I122   I     0.19900   0.41823   0.11194   0.00000  Uiso   1.00
I123   I     0.40599   0.23192   0.88716   0.00000  Uiso   1.00
I124   I     0.08234   0.20001   0.11202   0.00000  Uiso   1.00
I125   I     0.26703   0.40580   0.88715   0.00000  Uiso   1.00
I126   I     0.30100   0.08177   0.11194   0.00000  Uiso   1.00
I127   I     0.09401   0.26808   0.88716   0.00000  Uiso   1.00
I128   I     0.41766   0.29999   0.11202   0.00000  Uiso   1.00
I129   I     0.48192   0.15599   0.61284   0.00000  Uiso   1.00
I130   I     0.16823   0.44900   0.38806   0.00000  Uiso   1.00
I131   I     0.34420   0.48296   0.61285   0.00000  Uiso   1.00
I132   I     0.04999   0.16766   0.38798   0.00000  Uiso   1.00
I133   I     0.01808   0.34401   0.61284   0.00000  Uiso   1.00
I134   I     0.33177   0.05100   0.38806   0.00000  Uiso   1.00
I135   I     0.15580   0.01703   0.61285   0.00000  Uiso   1.00
I136   I     0.23296   0.09420   0.88715   0.00000  Uiso   1.00
O137   O     0.25000  -0.00000   0.25000   0.00000  Uiso   1.00
O138   O     0.25000   0.46538   0.66251   0.00000  Uiso   1.00
O139   O     0.11597   0.28964   0.07803   0.00000  Uiso   1.00
O140   O     0.46538   0.25000   0.33749   0.00000  Uiso   1.00
O141   O     0.03461   0.25000   0.66251   0.00000  Uiso   1.00
O142   O     0.00000   0.21538   0.83749   0.00000  Uiso   1.00
O143   O     0.00000   0.28461   0.16251   0.00000  Uiso   1.00
O144   O     0.28461  -0.00000   0.83749   0.00000  Uiso   1.00
O145   O     0.21538  -0.00000   0.16251   0.00000  Uiso   1.00
O146   O     0.00000   0.28461   0.83749   0.00000  Uiso   1.00
O147   O     0.00000   0.21538   0.16251   0.00000  Uiso   1.00
O148   O     0.21538  -0.00000   0.83749   0.00000  Uiso   1.00
O149   O     0.25000  -0.00000   0.75000   0.00000  Uiso   1.00
O150   O     0.28461  -0.00000   0.16251   0.00000  Uiso   1.00
O151   O     0.20126   0.08332   0.27298   0.00000  Uiso   1.00
O152   O     0.29873   0.41668   0.72702   0.00000  Uiso   1.00
O153   O     0.41668   0.20126   0.27298   0.00000  Uiso   1.00
O154   O     0.08332   0.29873   0.72702   0.00000  Uiso   1.00
O155   O     0.29873   0.41668   0.27298   0.00000  Uiso   1.00
O156   O     0.20126   0.08332   0.72702   0.00000  Uiso   1.00
O157   O     0.08332   0.29873   0.27298   0.00000  Uiso   1.00
O158   O     0.41668   0.20126   0.72702   0.00000  Uiso   1.00
O159   O     0.20126   0.41668   0.72702   0.00000  Uiso   1.00
O160   O     0.00000   0.25000   0.25000   0.00000  Uiso   1.00
O161   O     0.29873   0.08332   0.27298   0.00000  Uiso   1.00
O162   O     0.41668   0.29873   0.72702   0.00000  Uiso   1.00
O163   O     0.08332   0.20126   0.27298   0.00000  Uiso   1.00
O164   O     0.29873   0.08332   0.72702   0.00000  Uiso   1.00
O165   O     0.20126   0.41668   0.27298   0.00000  Uiso   1.00
O166   O     0.08332   0.20126   0.72702   0.00000  Uiso   1.00
O167   O     0.41668   0.29873   0.27298   0.00000  Uiso   1.00
O168   O     0.45126   0.33332   0.77298   0.00000  Uiso   1.00
O169   O     0.04873   0.16668   0.22702   0.00000  Uiso   1.00
O170   O     0.16668   0.45126   0.77298   0.00000  Uiso   1.00
O171   O    -0.00000   0.25000   0.75000   0.00000  Uiso   1.00
O172   O     0.33332   0.04873   0.22702   0.00000  Uiso   1.00
O173   O     0.04873   0.16668   0.77298   0.00000  Uiso   1.00
O174   O     0.45126   0.33332   0.22702   0.00000  Uiso   1.00
O175   O     0.33332   0.04873   0.77298   0.00000  Uiso   1.00
O176   O     0.16668   0.45126   0.22702   0.00000  Uiso   1.00
O177   O     0.45126   0.16668   0.22702   0.00000  Uiso   1.00
O178   O     0.04873   0.33332   0.77298   0.00000  Uiso   1.00
O179   O     0.16668   0.04873   0.22702   0.00000  Uiso   1.00
O180   O     0.33332   0.45126   0.77298   0.00000  Uiso   1.00
O181   O     0.04873   0.33332   0.22702   0.00000  Uiso   1.00
O182   O     0.25000   0.46538   0.33749   0.00000  Uiso   1.00
O183   O     0.45126   0.16668   0.77298   0.00000  Uiso   1.00
O184   O     0.33332   0.45126   0.22702   0.00000  Uiso   1.00
O185   O     0.16668   0.04873   0.77298   0.00000  Uiso   1.00
O186   O     0.02627   0.09654   0.45107   0.00000  Uiso   1.00
O187   O     0.46391   0.10445   0.49193   0.00000  Uiso   1.00
O188   O     0.46036   0.13403   0.42197   0.00000  Uiso   1.00
O189   O     0.46995   0.40273   0.54941   0.00000  Uiso   1.00
O190   O     0.41406   0.37274   0.50921   0.00000  Uiso   1.00
O191   O     0.42226   0.34421   0.57918   0.00000  Uiso   1.00
O192   O     0.40316   0.02800   0.45114   0.00000  Uiso   1.00
O193   O     0.25000   0.03461   0.66251   0.00000  Uiso   1.00
O194   O     0.39626   0.46559   0.49179   0.00000  Uiso   1.00
O195   O     0.36685   0.46183   0.42180   0.00000  Uiso   1.00
O196   O     0.09761   0.46819   0.54937   0.00000  Uiso   1.00
O197   O     0.12834   0.41264   0.50923   0.00000  Uiso   1.00
O198   O     0.15668   0.42124   0.57922   0.00000  Uiso   1.00
O199   O     0.47373   0.40346   0.45107   0.00000  Uiso   1.00
O200   O     0.03609   0.39555   0.49193   0.00000  Uiso   1.00
O201   O     0.03964   0.36597   0.42197   0.00000  Uiso   1.00
O202   O     0.03004   0.09727   0.54941   0.00000  Uiso   1.00
O203   O     0.08594   0.12726   0.50921   0.00000  Uiso   1.00
O204   O     0.03461   0.25000   0.33749   0.00000  Uiso   1.00
O205   O     0.07774   0.15579   0.57918   0.00000  Uiso   1.00
O206   O     0.09684   0.47200   0.45114   0.00000  Uiso   1.00
O207   O     0.10374   0.03441   0.49179   0.00000  Uiso   1.00
O208   O     0.13315   0.03817   0.42180   0.00000  Uiso   1.00
O209   O     0.40239   0.03181   0.54937   0.00000  Uiso   1.00
O210   O     0.37166   0.08736   0.50923   0.00000  Uiso   1.00
O211   O     0.34332   0.07876   0.57922   0.00000  Uiso   1.00
O212   O     0.21819   0.34761   0.95063   0.00000  Uiso   1.00
O213   O     0.16264   0.37834   0.99077   0.00000  Uiso   1.00
O214   O     0.17124   0.40668   0.92078   0.00000  Uiso   1.00
O215   O     0.46538   0.25000   0.66251   0.00000  Uiso   1.00
O216   O     0.27800   0.15316   0.04886   0.00000  Uiso   1.00
O217   O     0.21559   0.14626   0.00821   0.00000  Uiso   1.00
O218   O     0.21183   0.11685   0.07820   0.00000  Uiso   1.00
O219   O     0.15273   0.21995   0.95059   0.00000  Uiso   1.00
O220   O     0.12274   0.16406   0.99079   0.00000  Uiso   1.00
O221   O     0.09421   0.17226   0.92082   0.00000  Uiso   1.00
O222   O     0.34654   0.27627   0.04893   0.00000  Uiso   1.00
O223   O     0.35445   0.21391   0.00807   0.00000  Uiso   1.00
O224   O     0.38403   0.21036   0.07803   0.00000  Uiso   1.00
O225   O     0.28181   0.15239   0.95063   0.00000  Uiso   1.00
O226   O     0.25000   0.03461   0.33749   0.00000  Uiso   1.00
O227   O     0.33736   0.12166   0.99077   0.00000  Uiso   1.00
O228   O     0.32876   0.09332   0.92078   0.00000  Uiso   1.00
O229   O     0.22200   0.34684   0.04886   0.00000  Uiso   1.00
O230   O     0.28441   0.35374   0.00821   0.00000  Uiso   1.00
O231   O     0.28817   0.38315   0.07820   0.00000  Uiso   1.00
O232   O     0.34727   0.28004   0.95059   0.00000  Uiso   1.00
O233   O     0.37726   0.33594   0.99079   0.00000  Uiso   1.00
O234   O     0.40579   0.32774   0.92082   0.00000  Uiso   1.00
O235   O     0.15346   0.22373   0.04893   0.00000  Uiso   1.00
O236   O     0.14555   0.28609   0.00807   0.00000  Uiso   1.00
S237   S     0.49048   0.12540   0.46140   0.00000  Uiso   1.00
S238   S     0.24188   0.12471   0.03860   0.00000  Uiso   1.00
S239   S     0.11291   0.19679   0.96057   0.00000  Uiso   1.00
S240   S     0.37540   0.24048   0.03861   0.00000  Uiso   1.00
S241   S     0.30449   0.11228   0.96056   0.00000  Uiso   1.00
S242   S     0.25812   0.37529   0.03860   0.00000  Uiso   1.00
S243   S     0.38709   0.30321   0.96057   0.00000  Uiso   1.00
S244   S     0.12460   0.25951   0.03861   0.00000  Uiso   1.00
S245   S     0.44679   0.36291   0.53943   0.00000  Uiso   1.00
S246   S     0.37471   0.49188   0.46140   0.00000  Uiso   1.00
S247   S     0.13772   0.44551   0.53944   0.00000  Uiso   1.00
S248   S     0.00951   0.37460   0.46139   0.00000  Uiso   1.00
S249   S     0.05321   0.13709   0.53943   0.00000  Uiso   1.00
S250   S     0.12529   0.00812   0.46140   0.00000  Uiso   1.00
S251   S     0.36228   0.05449   0.53944   0.00000  Uiso   1.00
S252   S     0.19551   0.38772   0.96056   0.00000  Uiso   1.00
Zn253  Zn    0.20052  -0.00000   0.21730   0.00000  Uiso   1.00
Zn254  Zn    0.04947   0.25000   0.28270   0.00000  Uiso   1.00
Zn255  Zn    0.25000   0.45052   0.71730   0.00000  Uiso   1.00
Zn256  Zn    0.25000   0.04947   0.28270   0.00000  Uiso   1.00
Zn257  Zn    0.04947   0.25000   0.71730   0.00000  Uiso   1.00
Zn258  Zn    0.45052   0.25000   0.28270   0.00000  Uiso   1.00
Zn259  Zn    0.25000   0.04947   0.71730   0.00000  Uiso   1.00
Zn260  Zn    0.25000   0.45052   0.28270   0.00000  Uiso   1.00
Zn261  Zn    0.29947  -0.00000   0.78270   0.00000  Uiso   1.00
Zn262  Zn    0.00000   0.20052   0.21730   0.00000  Uiso   1.00
Zn263  Zn   -0.00000   0.29947   0.78270   0.00000  Uiso   1.00
Zn264  Zn    0.29947  -0.00000   0.21730   0.00000  Uiso   1.00
Zn265  Zn    0.20052  -0.00000   0.78270   0.00000  Uiso   1.00
Zn266  Zn    0.00000   0.29947   0.21730   0.00000  Uiso   1.00
Zn267  Zn   -0.00000   0.20052   0.78270   0.00000  Uiso   1.00
Zn268  Zn    0.45052   0.25000   0.71730   0.00000  Uiso   1.00
C269   C     0.75000  -0.00000   0.35597   0.00000  Uiso   1.00
C270   C     0.83003   0.41997   0.75000   0.00000  Uiso   1.00
C271   C     0.92373   0.26027   0.01977   0.00000  Uiso   1.00
C272   C     0.76845   0.07467   0.97968   0.00000  Uiso   1.00
C273   C     0.73887   0.42386   0.01975   0.00000  Uiso   1.00
C274   C     0.92513   0.26763   0.97969   0.00000  Uiso   1.00
C275   C     0.57626   0.23973   0.01977   0.00000  Uiso   1.00
C276   C     0.91997   0.16997   0.25000   0.00000  Uiso   1.00
C277   C     0.58003   0.33003   0.75000   0.00000  Uiso   1.00
C278   C     0.83003   0.41997   0.25000   0.00000  Uiso   1.00
C279   C     0.66997   0.08003   0.75000   0.00000  Uiso   1.00
C280   C     0.58003   0.33003   0.25000   0.00000  Uiso   1.00
C281   C     0.91997   0.16997   0.75000   0.00000  Uiso   1.00
C282   C     0.66997   0.41997   0.75000   0.00000  Uiso   1.00
C283   C     0.83003   0.08003   0.25000   0.00000  Uiso   1.00
C284   C     0.91997   0.33003   0.75000   0.00000  Uiso   1.00
C285   C     0.75000  -0.00000   0.64414   0.00000  Uiso   1.00
C286   C     0.58003   0.16997   0.25000   0.00000  Uiso   1.00
C287   C     0.83003   0.08003   0.75000   0.00000  Uiso   1.00
C288   C     0.66997   0.41997   0.25000   0.00000  Uiso   1.00
C289   C     0.58003   0.16997   0.75000   0.00000  Uiso   1.00
C290   C     0.91997   0.33003   0.25000   0.00000  Uiso   1.00
C291   C     0.63833   0.38833   0.25000   0.00000  Uiso   1.00
C292   C     0.86167   0.11167   0.75000   0.00000  Uiso   1.00
C293   C     0.61167   0.13833   0.25000   0.00000  Uiso   1.00
C294   C     0.88833   0.36167   0.75000   0.00000  Uiso   1.00
C295   C     0.86167   0.11167   0.25000   0.00000  Uiso   1.00
C296   C     0.50000   0.25000   0.35597   0.00000  Uiso   1.00
C297   C     0.63833   0.38833   0.75000   0.00000  Uiso   1.00
C298   C     0.88833   0.36167   0.25000   0.00000  Uiso   1.00
C299   C     0.61167   0.13833   0.75000   0.00000  Uiso   1.00
C300   C     0.63833   0.11167   0.75000   0.00000  Uiso   1.00
C301   C     0.86167   0.38833   0.25000   0.00000  Uiso   1.00
C302   C     0.61167   0.36167   0.75000   0.00000  Uiso   1.00
C303   C     0.88833   0.13833   0.25000   0.00000  Uiso   1.00
C304   C     0.86167   0.38833   0.75000   0.00000  Uiso   1.00
C305   C     0.63833   0.11167   0.25000   0.00000  Uiso   1.00
C306   C     0.88833   0.13833   0.75000   0.00000  Uiso   1.00
C307   C     0.50000   0.25000   0.64414   0.00000  Uiso   1.00
C308   C     0.61167   0.36167   0.25000   0.00000  Uiso   1.00
C309   C     0.98689   0.28614   0.41856   0.00000  Uiso   1.00
C310   C     0.50084   0.21164   0.58186   0.00000  Uiso   1.00
C311   C     0.71403   0.48644   0.41858   0.00000  Uiso   1.00
C312   C     0.78835   0.00127   0.58187   0.00000  Uiso   1.00
C313   C     0.51311   0.21386   0.41856   0.00000  Uiso   1.00
C314   C     0.99916   0.28836   0.58186   0.00000  Uiso   1.00
C315   C     0.78597   0.01356   0.41858   0.00000  Uiso   1.00
C316   C     0.71165   0.49873   0.58187   0.00000  Uiso   1.00
C317   C     0.75127   0.03835   0.91813   0.00000  Uiso   1.00
C318   C     0.50000   0.25000   0.85586   0.00000  Uiso   1.00
C319   C     0.73644   0.46403   0.08142   0.00000  Uiso   1.00
C320   C     0.96164   0.25084   0.91814   0.00000  Uiso   1.00
C321   C     0.53614   0.23689   0.08144   0.00000  Uiso   1.00
C322   C     0.74873   0.46165   0.91813   0.00000  Uiso   1.00
C323   C     0.76356   0.03597   0.08142   0.00000  Uiso   1.00
C324   C     0.53836   0.24916   0.91814   0.00000  Uiso   1.00
C325   C     0.96386   0.26311   0.08144   0.00000  Uiso   1.00
C326   C     0.50000   0.25000   0.39837   0.00000  Uiso   1.00
C327   C     0.50000   0.25000   0.60190   0.00000  Uiso   1.00
C328   C     0.75000  -0.00000   0.39838   0.00000  Uiso   1.00
C329   C     0.50000   0.25000   0.14403   0.00000  Uiso   1.00
C330   C     0.75000  -0.00000   0.60191   0.00000  Uiso   1.00
C331   C     0.75000  -0.00000   0.89809   0.00000  Uiso   1.00
C332   C     0.75000  -0.00000   0.10162   0.00000  Uiso   1.00
C333   C     0.50000   0.25000   0.89809   0.00000  Uiso   1.00
C334   C     0.50000   0.25000   0.10163   0.00000  Uiso   1.00
C335   C     0.50705   0.21186   0.45917   0.00000  Uiso   1.00
C336   C     0.99295   0.28812   0.54127   0.00000  Uiso   1.00
C337   C     0.78805   0.00751   0.45918   0.00000  Uiso   1.00
C338   C     0.71196   0.49253   0.54128   0.00000  Uiso   1.00
C339   C     0.99295   0.28814   0.45917   0.00000  Uiso   1.00
C340   C     0.75000  -0.00000   0.85586   0.00000  Uiso   1.00
C341   C     0.50705   0.21188   0.54127   0.00000  Uiso   1.00
C342   C     0.71195   0.49249   0.45918   0.00000  Uiso   1.00
C343   C     0.78804   0.00747   0.54128   0.00000  Uiso   1.00
C344   C     0.74253   0.46196   0.95872   0.00000  Uiso   1.00
C345   C     0.75751   0.03805   0.04082   0.00000  Uiso   1.00
C346   C     0.53812   0.24295   0.95873   0.00000  Uiso   1.00
C347   C     0.96186   0.25705   0.04083   0.00000  Uiso   1.00
C348   C     0.75747   0.03804   0.95872   0.00000  Uiso   1.00
C349   C     0.74249   0.46195   0.04082   0.00000  Uiso   1.00
C350   C     0.96188   0.25705   0.95873   0.00000  Uiso   1.00
C351   C     0.75000  -0.00000   0.14403   0.00000  Uiso   1.00
C352   C     0.53814   0.24295   0.04083   0.00000  Uiso   1.00
C353   C     0.50000   0.25000   0.47968   0.00000  Uiso   1.00
C354   C     0.50000   0.25000   0.52073   0.00000  Uiso   1.00
C355   C     0.75000  -0.00000   0.47969   0.00000  Uiso   1.00
C356   C     0.75000  -0.00000   0.52074   0.00000  Uiso   1.00
C357   C     0.75000  -0.00000   0.97926   0.00000  Uiso   1.00
C358   C     0.75000  -0.00000   0.02031   0.00000  Uiso   1.00
C359   C     0.50000   0.25000   0.97927   0.00000  Uiso   1.00
C360   C     0.50000   0.25000   0.02032   0.00000  Uiso   1.00
C361   C     0.51027   0.17373   0.48023   0.00000  Uiso   1.00
C362   C     0.66997   0.08003   0.25000   0.00000  Uiso   1.00
C363   C     0.98237   0.32487   0.52031   0.00000  Uiso   1.00
C364   C     0.82614   0.01113   0.48025   0.00000  Uiso   1.00
C365   C     0.67533   0.48155   0.52032   0.00000  Uiso   1.00
C366   C     0.98973   0.32626   0.48023   0.00000  Uiso   1.00
C367   C     0.51763   0.17513   0.52031   0.00000  Uiso   1.00
C368   C     0.67386   0.48887   0.48025   0.00000  Uiso   1.00
C369   C     0.82467   0.01845   0.52032   0.00000  Uiso   1.00
C370   C     0.73155   0.42533   0.97968   0.00000  Uiso   1.00
C371   C     0.76113   0.07614   0.01975   0.00000  Uiso   1.00
C372   C     0.57487   0.23237   0.97969   0.00000  Uiso   1.00
H373   H     0.95018   0.10581   0.41410   0.00000  Uiso   1.00
H374   H     0.68754   0.10014   0.06884   0.00000  Uiso   1.00
H375   H     0.61775   0.15440   0.91163   0.00000  Uiso   1.00
H376   H     0.85581   0.20019   0.08590   0.00000  Uiso   1.00
H377   H     0.84687   0.11666   0.91157   0.00000  Uiso   1.00
H378   H     0.81246   0.39986   0.06884   0.00000  Uiso   1.00
H379   H     0.88225   0.34560   0.91163   0.00000  Uiso   1.00
H380   H     0.64419   0.29982   0.08590   0.00000  Uiso   1.00
H381   H     0.90440   0.36775   0.58838   0.00000  Uiso   1.00
H382   H     0.85014   0.43754   0.43116   0.00000  Uiso   1.00
H383   H     0.63334   0.40313   0.58842   0.00000  Uiso   1.00
H384   H     0.54982   0.39419   0.41410   0.00000  Uiso   1.00
H385   H     0.59560   0.13225   0.58837   0.00000  Uiso   1.00
H386   H     0.64986   0.06246   0.43116   0.00000  Uiso   1.00
H387   H     0.86666   0.09687   0.58842   0.00000  Uiso   1.00
H388   H     0.65313   0.38334   0.91157   0.00000  Uiso   1.00
I389   I     0.95001   0.33234   0.38798   0.00000  Uiso   1.00
I390   I     0.69900   0.41823   0.11194   0.00000  Uiso   1.00
I391   I     0.90599   0.23192   0.88716   0.00000  Uiso   1.00
I392   I     0.58234   0.20001   0.11202   0.00000  Uiso   1.00
I393   I     0.76703   0.40580   0.88715   0.00000  Uiso   1.00
I394   I     0.80100   0.08177   0.11194   0.00000  Uiso   1.00
I395   I     0.59401   0.26808   0.88716   0.00000  Uiso   1.00
I396   I     0.91766   0.29999   0.11202   0.00000  Uiso   1.00
I397   I     0.98192   0.15599   0.61284   0.00000  Uiso   1.00
I398   I     0.66823   0.44900   0.38806   0.00000  Uiso   1.00
I399   I     0.84420   0.48296   0.61285   0.00000  Uiso   1.00
I400   I     0.54999   0.16766   0.38798   0.00000  Uiso   1.00
I401   I     0.51808   0.34401   0.61284   0.00000  Uiso   1.00
I402   I     0.83177   0.05100   0.38806   0.00000  Uiso   1.00
I403   I     0.65580   0.01703   0.61285   0.00000  Uiso   1.00
I404   I     0.73296   0.09420   0.88715   0.00000  Uiso   1.00
O405   O     0.75000  -0.00000   0.25000   0.00000  Uiso   1.00
O406   O     0.75000   0.46538   0.66251   0.00000  Uiso   1.00
O407   O     0.61597   0.28964   0.07803   0.00000  Uiso   1.00
O408   O     0.96538   0.25000   0.33749   0.00000  Uiso   1.00
O409   O     0.53461   0.25000   0.66251   0.00000  Uiso   1.00
O410   O     0.50000   0.21538   0.83749   0.00000  Uiso   1.00
O411   O     0.50000   0.28461   0.16251   0.00000  Uiso   1.00
O412   O     0.78461  -0.00000   0.83749   0.00000  Uiso   1.00
O413   O     0.71538  -0.00000   0.16251   0.00000  Uiso   1.00
O414   O     0.50000   0.28461   0.83749   0.00000  Uiso   1.00
O415   O     0.50000   0.21538   0.16251   0.00000  Uiso   1.00
O416   O     0.71538  -0.00000   0.83749   0.00000  Uiso   1.00
O417   O     0.75000  -0.00000   0.75000   0.00000  Uiso   1.00
O418   O     0.78461  -0.00000   0.16251   0.00000  Uiso   1.00
O419   O     0.70126   0.08332   0.27298   0.00000  Uiso   1.00
O420   O     0.79873   0.41668   0.72702   0.00000  Uiso   1.00
O421   O     0.91668   0.20126   0.27298   0.00000  Uiso   1.00
O422   O     0.58332   0.29873   0.72702   0.00000  Uiso   1.00
O423   O     0.79873   0.41668   0.27298   0.00000  Uiso   1.00
O424   O     0.70126   0.08332   0.72702   0.00000  Uiso   1.00
O425   O     0.58332   0.29873   0.27298   0.00000  Uiso   1.00
O426   O     0.91668   0.20126   0.72702   0.00000  Uiso   1.00
O427   O     0.70126   0.41668   0.72702   0.00000  Uiso   1.00
O428   O     0.50000   0.25000   0.25000   0.00000  Uiso   1.00
O429   O     0.79873   0.08332   0.27298   0.00000  Uiso   1.00
O430   O     0.91668   0.29873   0.72702   0.00000  Uiso   1.00
O431   O     0.58332   0.20126   0.27298   0.00000  Uiso   1.00
O432   O     0.79873   0.08332   0.72702   0.00000  Uiso   1.00
O433   O     0.70126   0.41668   0.27298   0.00000  Uiso   1.00
O434   O     0.58332   0.20126   0.72702   0.00000  Uiso   1.00
O435   O     0.91668   0.29873   0.27298   0.00000  Uiso   1.00
O436   O     0.95126   0.33332   0.77298   0.00000  Uiso   1.00
O437   O     0.54873   0.16668   0.22702   0.00000  Uiso   1.00
O438   O     0.66668   0.45126   0.77298   0.00000  Uiso   1.00
O439   O     0.50000   0.25000   0.75000   0.00000  Uiso   1.00
O440   O     0.83332   0.04873   0.22702   0.00000  Uiso   1.00
O441   O     0.54873   0.16668   0.77298   0.00000  Uiso   1.00
O442   O     0.95126   0.33332   0.22702   0.00000  Uiso   1.00
O443   O     0.83332   0.04873   0.77298   0.00000  Uiso   1.00
O444   O     0.66668   0.45126   0.22702   0.00000  Uiso   1.00
O445   O     0.95126   0.16668   0.22702   0.00000  Uiso   1.00
O446   O     0.54873   0.33332   0.77298   0.00000  Uiso   1.00
O447   O     0.66668   0.04873   0.22702   0.00000  Uiso   1.00
O448   O     0.83332   0.45126   0.77298   0.00000  Uiso   1.00
O449   O     0.54873   0.33332   0.22702   0.00000  Uiso   1.00
O450   O     0.75000   0.46538   0.33749   0.00000  Uiso   1.00
O451   O     0.95126   0.16668   0.77298   0.00000  Uiso   1.00
O452   O     0.83332   0.45126   0.22702   0.00000  Uiso   1.00
O453   O     0.66668   0.04873   0.77298   0.00000  Uiso   1.00
O454   O     0.52627   0.09654   0.45107   0.00000  Uiso   1.00
O455   O     0.96391   0.10445   0.49193   0.00000  Uiso   1.00
O456   O     0.96036   0.13403   0.42197   0.00000  Uiso   1.00
O457   O     0.96995   0.40273   0.54941   0.00000  Uiso   1.00
O458   O     0.91406   0.37274   0.50921   0.00000  Uiso   1.00
O459   O     0.92226   0.34421   0.57918   0.00000  Uiso   1.00
O460   O     0.90316   0.02800   0.45114   0.00000  Uiso   1.00
O461   O     0.75000   0.03461   0.66251   0.00000  Uiso   1.00
O462   O     0.89626   0.46559   0.49179   0.00000  Uiso   1.00
O463   O     0.86685   0.46183   0.42180   0.00000  Uiso   1.00
O464   O     0.59761   0.46819   0.54937   0.00000  Uiso   1.00
O465   O     0.62834   0.41264   0.50923   0.00000  Uiso   1.00
O466   O     0.65668   0.42124   0.57922   0.00000  Uiso   1.00
O467   O     0.97373   0.40346   0.45107   0.00000  Uiso   1.00
O468   O     0.53609   0.39555   0.49193   0.00000  Uiso   1.00
O469   O     0.53964   0.36597   0.42197   0.00000  Uiso   1.00
O470   O     0.53004   0.09727   0.54941   0.00000  Uiso   1.00
O471   O     0.58594   0.12726   0.50921   0.00000  Uiso   1.00
O472   O     0.53461   0.25000   0.33749   0.00000  Uiso   1.00
O473   O     0.57774   0.15579   0.57918   0.00000  Uiso   1.00
O474   O     0.59684   0.47200   0.45114   0.00000  Uiso   1.00
O475   O     0.60374   0.03441   0.49179   0.00000  Uiso   1.00
O476   O     0.63315   0.03817   0.42180   0.00000  Uiso   1.00
O477   O     0.90239   0.03181   0.54937   0.00000  Uiso   1.00
O478   O     0.87166   0.08736   0.50923   0.00000  Uiso   1.00
O479   O     0.84332   0.07876   0.57922   0.00000  Uiso   1.00
O480   O     0.71819   0.34761   0.95063   0.00000  Uiso   1.00
O481   O     0.66264   0.37834   0.99077   0.00000  Uiso   1.00
O482   O     0.67124   0.40668   0.92078   0.00000  Uiso   1.00
O483   O     0.96538   0.25000   0.66251   0.00000  Uiso   1.00
O484   O     0.77800   0.15316   0.04886   0.00000  Uiso   1.00
O485   O     0.71559   0.14626   0.00821   0.00000  Uiso   1.00
O486   O     0.71183   0.11685   0.07820   0.00000  Uiso   1.00
O487   O     0.65273   0.21995   0.95059   0.00000  Uiso   1.00
O488   O     0.62274   0.16406   0.99079   0.00000  Uiso   1.00
O489   O     0.59421   0.17226   0.92082   0.00000  Uiso   1.00
O490   O     0.84654   0.27627   0.04893   0.00000  Uiso   1.00
O491   O     0.85445   0.21391   0.00807   0.00000  Uiso   1.00
O492   O     0.88403   0.21036   0.07803   0.00000  Uiso   1.00
O493   O     0.78181   0.15239   0.95063   0.00000  Uiso   1.00
O494   O     0.75000   0.03461   0.33749   0.00000  Uiso   1.00
O495   O     0.83736   0.12166   0.99077   0.00000  Uiso   1.00
O496   O     0.82876   0.09332   0.92078   0.00000  Uiso   1.00
O497   O     0.72200   0.34684   0.04886   0.00000  Uiso   1.00
O498   O     0.78441   0.35374   0.00821   0.00000  Uiso   1.00
O499   O     0.78817   0.38315   0.07820   0.00000  Uiso   1.00
O500   O     0.84727   0.28004   0.95059   0.00000  Uiso   1.00
O501   O     0.87726   0.33594   0.99079   0.00000  Uiso   1.00
O502   O     0.90579   0.32774   0.92082   0.00000  Uiso   1.00
O503   O     0.65346   0.22373   0.04893   0.00000  Uiso   1.00
O504   O     0.64555   0.28609   0.00807   0.00000  Uiso   1.00
S505   S     0.99048   0.12540   0.46140   0.00000  Uiso   1.00
S506   S     0.74188   0.12471   0.03860   0.00000  Uiso   1.00
S507   S     0.61291   0.19679   0.96057   0.00000  Uiso   1.00
S508   S     0.87540   0.24048   0.03861   0.00000  Uiso   1.00
S509   S     0.80449   0.11228   0.96056   0.00000  Uiso   1.00
S510   S     0.75812   0.37529   0.03860   0.00000  Uiso   1.00
S511   S     0.88709   0.30321   0.96057   0.00000  Uiso   1.00
S512   S     0.62460   0.25951   0.03861   0.00000  Uiso   1.00
S513   S     0.94679   0.36291   0.53943   0.00000  Uiso   1.00
S514   S     0.87471   0.49188   0.46140   0.00000  Uiso   1.00
S515   S     0.63772   0.44551   0.53944   0.00000  Uiso   1.00
S516   S     0.50951   0.37460   0.46139   0.00000  Uiso   1.00
S517   S     0.55321   0.13709   0.53943   0.00000  Uiso   1.00
S518   S     0.62529   0.00812   0.46140   0.00000  Uiso   1.00
S519   S     0.86228   0.05449   0.53944   0.00000  Uiso   1.00
S520   S     0.69551   0.38772   0.96056   0.00000  Uiso   1.00
Zn521  Zn    0.70052  -0.00000   0.21730   0.00000  Uiso   1.00
Zn522  Zn    0.54947   0.25000   0.28270   0.00000  Uiso   1.00
Zn523  Zn    0.75000   0.45052   0.71730   0.00000  Uiso   1.00
Zn524  Zn    0.75000   0.04947   0.28270   0.00000  Uiso   1.00
Zn525  Zn    0.54947   0.25000   0.71730   0.00000  Uiso   1.00
Zn526  Zn    0.95052   0.25000   0.28270   0.00000  Uiso   1.00
Zn527  Zn    0.75000   0.04947   0.71730   0.00000  Uiso   1.00
Zn528  Zn    0.75000   0.45052   0.28270   0.00000  Uiso   1.00
Zn529  Zn    0.79947  -0.00000   0.78270   0.00000  Uiso   1.00
Zn530  Zn    0.50000   0.20052   0.21730   0.00000  Uiso   1.00
Zn531  Zn    0.50000   0.29947   0.78270   0.00000  Uiso   1.00
Zn532  Zn    0.79947  -0.00000   0.21730   0.00000  Uiso   1.00
Zn533  Zn    0.70052  -0.00000   0.78270   0.00000  Uiso   1.00
Zn534  Zn    0.50000   0.29947   0.21730   0.00000  Uiso   1.00
Zn535  Zn    0.50000   0.20052   0.78270   0.00000  Uiso   1.00
Zn536  Zn    0.95052   0.25000   0.71730   0.00000  Uiso   1.00
C537   C     0.25000   0.50000   0.35597   0.00000  Uiso   1.00
C538   C     0.33003   0.91997   0.75000   0.00000  Uiso   1.00
C539   C     0.42373   0.76027   0.01977   0.00000  Uiso   1.00
C540   C     0.26845   0.57467   0.97968   0.00000  Uiso   1.00
C541   C     0.23887   0.92386   0.01975   0.00000  Uiso   1.00
C542   C     0.42513   0.76763   0.97969   0.00000  Uiso   1.00
C543   C     0.07626   0.73973   0.01977   0.00000  Uiso   1.00
C544   C     0.41997   0.66997   0.25000   0.00000  Uiso   1.00
C545   C     0.08003   0.83003   0.75000   0.00000  Uiso   1.00
C546   C     0.33003   0.91997   0.25000   0.00000  Uiso   1.00
C547   C     0.16997   0.58003   0.75000   0.00000  Uiso   1.00
C548   C     0.08003   0.83003   0.25000   0.00000  Uiso   1.00
C549   C     0.41997   0.66997   0.75000   0.00000  Uiso   1.00
C550   C     0.16997   0.91997   0.75000   0.00000  Uiso   1.00
C551   C     0.33003   0.58003   0.25000   0.00000  Uiso   1.00
C552   C     0.41997   0.83003   0.75000   0.00000  Uiso   1.00
C553   C     0.25000   0.50000   0.64414   0.00000  Uiso   1.00
C554   C     0.08003   0.66997   0.25000   0.00000  Uiso   1.00
C555   C     0.33003   0.58003   0.75000   0.00000  Uiso   1.00
C556   C     0.16997   0.91997   0.25000   0.00000  Uiso   1.00
C557   C     0.08003   0.66997   0.75000   0.00000  Uiso   1.00
C558   C     0.41997   0.83003   0.25000   0.00000  Uiso   1.00
C559   C     0.13833   0.88833   0.25000   0.00000  Uiso   1.00
C560   C     0.36167   0.61167   0.75000   0.00000  Uiso   1.00
C561   C     0.11167   0.63833   0.25000   0.00000  Uiso   1.00
C562   C     0.38833   0.86167   0.75000   0.00000  Uiso   1.00
C563   C     0.36167   0.61167   0.25000   0.00000  Uiso   1.00
C564   C    -0.00000   0.75000   0.35597   0.00000  Uiso   1.00
C565   C     0.13833   0.88833   0.75000   0.00000  Uiso   1.00
C566   C     0.38833   0.86167   0.25000   0.00000  Uiso   1.00
C567   C     0.11167   0.63833   0.75000   0.00000  Uiso   1.00
C568   C     0.13833   0.61167   0.75000   0.00000  Uiso   1.00
C569   C     0.36167   0.88833   0.25000   0.00000  Uiso   1.00
C570   C     0.11167   0.86167   0.75000   0.00000  Uiso   1.00
C571   C     0.38833   0.63833   0.25000   0.00000  Uiso   1.00
C572   C     0.36167   0.88833   0.75000   0.00000  Uiso   1.00
C573   C     0.13833   0.61167   0.25000   0.00000  Uiso   1.00
C574   C     0.38833   0.63833   0.75000   0.00000  Uiso   1.00
C575   C     0.00000   0.75000   0.64414   0.00000  Uiso   1.00
C576   C     0.11167   0.86167   0.25000   0.00000  Uiso   1.00
C577   C     0.48689   0.78614   0.41856   0.00000  Uiso   1.00
C578   C     0.00084   0.71164   0.58186   0.00000  Uiso   1.00
C579   C     0.21403   0.98644   0.41858   0.00000  Uiso   1.00
C580   C     0.28835   0.50127   0.58187   0.00000  Uiso   1.00
C581   C     0.01311   0.71386   0.41856   0.00000  Uiso   1.00
C582   C     0.49916   0.78836   0.58186   0.00000  Uiso   1.00
C583   C     0.28597   0.51356   0.41858   0.00000  Uiso   1.00
C584   C     0.21165   0.99873   0.58187   0.00000  Uiso   1.00
C585   C     0.25127   0.53835   0.91813   0.00000  Uiso   1.00
C586   C    -0.00000   0.75000   0.85586   0.00000  Uiso   1.00
C587   C     0.23644   0.96403   0.08142   0.00000  Uiso   1.00
C588   C     0.46164   0.75084   0.91814   0.00000  Uiso   1.00
C589   C     0.03614   0.73689   0.08144   0.00000  Uiso   1.00
C590   C     0.24873   0.96165   0.91813   0.00000  Uiso   1.00
C591   C     0.26356   0.53597   0.08142   0.00000  Uiso   1.00
C592   C     0.03836   0.74916   0.91814   0.00000  Uiso   1.00
C593   C     0.46386   0.76311   0.08144   0.00000  Uiso   1.00
C594   C    -0.00000   0.75000   0.39837   0.00000  Uiso   1.00
C595   C    -0.00000   0.75000   0.60190   0.00000  Uiso   1.00
C596   C     0.25000   0.50000   0.39838   0.00000  Uiso   1.00
C597   C    -0.00000   0.75000   0.14403   0.00000  Uiso   1.00
C598   C     0.25000   0.50000   0.60191   0.00000  Uiso   1.00
C599   C     0.25000   0.50000   0.89809   0.00000  Uiso   1.00
C600   C     0.25000   0.50000   0.10162   0.00000  Uiso   1.00
C601   C    -0.00000   0.75000   0.89809   0.00000  Uiso   1.00
C602   C    -0.00000   0.75000   0.10163   0.00000  Uiso   1.00
C603   C     0.00705   0.71186   0.45917   0.00000  Uiso   1.00
C604   C     0.49295   0.78812   0.54127   0.00000  Uiso   1.00
C605   C     0.28805   0.50751   0.45918   0.00000  Uiso   1.00
C606   C     0.21196   0.99253   0.54128   0.00000  Uiso   1.00
C607   C     0.49295   0.78814   0.45917   0.00000  Uiso   1.00
C608   C     0.25000   0.50000   0.85586   0.00000  Uiso   1.00
C609   C     0.00705   0.71188   0.54127   0.00000  Uiso   1.00
C610   C     0.21195   0.99249   0.45918   0.00000  Uiso   1.00
C611   C     0.28804   0.50747   0.54128   0.00000  Uiso   1.00
C612   C     0.24253   0.96196   0.95872   0.00000  Uiso   1.00
C613   C     0.25751   0.53805   0.04082   0.00000  Uiso   1.00
C614   C     0.03812   0.74295   0.95873   0.00000  Uiso   1.00
C615   C     0.46186   0.75705   0.04083   0.00000  Uiso   1.00
C616   C     0.25747   0.53804   0.95872   0.00000  Uiso   1.00
C617   C     0.24249   0.96195   0.04082   0.00000  Uiso   1.00
C618   C     0.46188   0.75705   0.95873   0.00000  Uiso   1.00
C619   C     0.25000   0.50000   0.14403   0.00000  Uiso   1.00
C620   C     0.03814   0.74295   0.04083   0.00000  Uiso   1.00
C621   C     0.00000   0.75000   0.47968   0.00000  Uiso   1.00
C622   C     0.00000   0.75000   0.52073   0.00000  Uiso   1.00
C623   C     0.25000   0.50000   0.47969   0.00000  Uiso   1.00
C624   C     0.25000   0.50000   0.52074   0.00000  Uiso   1.00
C625   C     0.25000   0.50000   0.97926   0.00000  Uiso   1.00
C626   C     0.25000   0.50000   0.02031   0.00000  Uiso   1.00
C627   C    -0.00000   0.75000   0.97927   0.00000  Uiso   1.00
C628   C    -0.00000   0.75000   0.02032   0.00000  Uiso   1.00
C629   C     0.01027   0.67373   0.48023   0.00000  Uiso   1.00
C630   C     0.16997   0.58003   0.25000   0.00000  Uiso   1.00
C631   C     0.48237   0.82487   0.52031   0.00000  Uiso   1.00
C632   C     0.32614   0.51113   0.48025   0.00000  Uiso   1.00
C633   C     0.17533   0.98155   0.52032   0.00000  Uiso   1.00
C634   C     0.48973   0.82626   0.48023   0.00000  Uiso   1.00
C635   C     0.01763   0.67513   0.52031   0.00000  Uiso   1.00
C636   C     0.17386   0.98887   0.48025   0.00000  Uiso   1.00
C637   C     0.32467   0.51845   0.52032   0.00000  Uiso   1.00
C638   C     0.23155   0.92533   0.97968   0.00000  Uiso   1.00
C639   C     0.26113   0.57614   0.01975   0.00000  Uiso   1.00
C640   C     0.07487   0.73237   0.97969   0.00000  Uiso   1.00
H641   H     0.45018   0.60581   0.41410   0.00000  Uiso   1.00
H642   H     0.18754   0.60014   0.06884   0.00000  Uiso   1.00
H643   H     0.11775   0.65440   0.91163   0.00000  Uiso   1.00
H644   H     0.35581   0.70019   0.08590   0.00000  Uiso   1.00
H645   H     0.34687   0.61666   0.91157   0.00000  Uiso   1.00
H646   H     0.31246   0.89986   0.06884   0.00000  Uiso   1.00
H647   H     0.38225   0.84560   0.91163   0.00000  Uiso   1.00
H648   H     0.14419   0.79982   0.08590   0.00000  Uiso   1.00
H649   H     0.40440   0.86775   0.58838   0.00000  Uiso   1.00
H650   H     0.35014   0.93754   0.43116   0.00000  Uiso   1.00
H651   H     0.13334   0.90313   0.58842   0.00000  Uiso   1.00
H652   H     0.04982   0.89419   0.41410   0.00000  Uiso   1.00
H653   H     0.09560   0.63225   0.58837   0.00000  Uiso   1.00
H654   H     0.14986   0.56246   0.43116   0.00000  Uiso   1.00
H655   H     0.36666   0.59687   0.58842   0.00000  Uiso   1.00
H656   H     0.15313   0.88334   0.91157   0.00000  Uiso   1.00
I657   I     0.45001   0.83234   0.38798   0.00000  Uiso   1.00
I658   I     0.19900   0.91823   0.11194   0.00000  Uiso   1.00
I659   I     0.40599   0.73192   0.88716   0.00000  Uiso   1.00
I660   I     0.08234   0.70001   0.11202   0.00000  Uiso   1.00
I661   I     0.26703   0.90580   0.88715   0.00000  Uiso   1.00
I662   I     0.30100   0.58177   0.11194   0.00000  Uiso   1.00
I663   I     0.09401   0.76808   0.88716   0.00000  Uiso   1.00
I664   I     0.41766   0.79999   0.11202   0.00000  Uiso   1.00
I665   I     0.48192   0.65599   0.61284   0.00000  Uiso   1.00
I666   I     0.16823   0.94900   0.38806   0.00000  Uiso   1.00
I667   I     0.34420   0.98296   0.61285   0.00000  Uiso   1.00
I668   I     0.04999   0.66766   0.38798   0.00000  Uiso   1.00
I669   I     0.01808   0.84401   0.61284   0.00000  Uiso   1.00
I670   I     0.33177   0.55100   0.38806   0.00000  Uiso   1.00
I671   I     0.15580   0.51703   0.61285   0.00000  Uiso   1.00
I672   I     0.23296   0.59420   0.88715   0.00000  Uiso   1.00
O673   O     0.25000   0.50000   0.25000   0.00000  Uiso   1.00
O674   O     0.25000   0.96538   0.66251   0.00000  Uiso   1.00
O675   O     0.11597   0.78964   0.07803   0.00000  Uiso   1.00
O676   O     0.46538   0.75000   0.33749   0.00000  Uiso   1.00
O677   O     0.03461   0.75000   0.66251   0.00000  Uiso   1.00
O678   O     0.00000   0.71538   0.83749   0.00000  Uiso   1.00
O679   O     0.00000   0.78461   0.16251   0.00000  Uiso   1.00
O680   O     0.28461   0.50000   0.83749   0.00000  Uiso   1.00
O681   O     0.21538   0.50000   0.16251   0.00000  Uiso   1.00
O682   O     0.00000   0.78461   0.83749   0.00000  Uiso   1.00
O683   O     0.00000   0.71538   0.16251   0.00000  Uiso   1.00
O684   O     0.21538   0.50000   0.83749   0.00000  Uiso   1.00
O685   O     0.25000   0.50000   0.75000   0.00000  Uiso   1.00
O686   O     0.28461   0.50000   0.16251   0.00000  Uiso   1.00
O687   O     0.20126   0.58332   0.27298   0.00000  Uiso   1.00
O688   O     0.29873   0.91668   0.72702   0.00000  Uiso   1.00
O689   O     0.41668   0.70126   0.27298   0.00000  Uiso   1.00
O690   O     0.08332   0.79873   0.72702   0.00000  Uiso   1.00
O691   O     0.29873   0.91668   0.27298   0.00000  Uiso   1.00
O692   O     0.20126   0.58332   0.72702   0.00000  Uiso   1.00
O693   O     0.08332   0.79873   0.27298   0.00000  Uiso   1.00
O694   O     0.41668   0.70126   0.72702   0.00000  Uiso   1.00
O695   O     0.20126   0.91668   0.72702   0.00000  Uiso   1.00
O696   O     0.00000   0.75000   0.25000   0.00000  Uiso   1.00
O697   O     0.29873   0.58332   0.27298   0.00000  Uiso   1.00
O698   O     0.41668   0.79873   0.72702   0.00000  Uiso   1.00
O699   O     0.08332   0.70126   0.27298   0.00000  Uiso   1.00
O700   O     0.29873   0.58332   0.72702   0.00000  Uiso   1.00
O701   O     0.20126   0.91668   0.27298   0.00000  Uiso   1.00
O702   O     0.08332   0.70126   0.72702   0.00000  Uiso   1.00
O703   O     0.41668   0.79873   0.27298   0.00000  Uiso   1.00
O704   O     0.45126   0.83332   0.77298   0.00000  Uiso   1.00
O705   O     0.04873   0.66668   0.22702   0.00000  Uiso   1.00
O706   O     0.16668   0.95126   0.77298   0.00000  Uiso   1.00
O707   O    -0.00000   0.75000   0.75000   0.00000  Uiso   1.00
O708   O     0.33332   0.54873   0.22702   0.00000  Uiso   1.00
O709   O     0.04873   0.66668   0.77298   0.00000  Uiso   1.00
O710   O     0.45126   0.83332   0.22702   0.00000  Uiso   1.00
O711   O     0.33332   0.54873   0.77298   0.00000  Uiso   1.00
O712   O     0.16668   0.95126   0.22702   0.00000  Uiso   1.00
O713   O     0.45126   0.66668   0.22702   0.00000  Uiso   1.00
O714   O     0.04873   0.83332   0.77298   0.00000  Uiso   1.00
O715   O     0.16668   0.54873   0.22702   0.00000  Uiso   1.00
O716   O     0.33332   0.95126   0.77298   0.00000  Uiso   1.00
O717   O     0.04873   0.83332   0.22702   0.00000  Uiso   1.00
O718   O     0.25000   0.96538   0.33749   0.00000  Uiso   1.00
O719   O     0.45126   0.66668   0.77298   0.00000  Uiso   1.00
O720   O     0.33332   0.95126   0.22702   0.00000  Uiso   1.00
O721   O     0.16668   0.54873   0.77298   0.00000  Uiso   1.00
O722   O     0.02627   0.59654   0.45107   0.00000  Uiso   1.00
O723   O     0.46391   0.60445   0.49193   0.00000  Uiso   1.00
O724   O     0.46036   0.63403   0.42197   0.00000  Uiso   1.00
O725   O     0.46995   0.90273   0.54941   0.00000  Uiso   1.00
O726   O     0.41406   0.87274   0.50921   0.00000  Uiso   1.00
O727   O     0.42226   0.84421   0.57918   0.00000  Uiso   1.00
O728   O     0.40316   0.52800   0.45114   0.00000  Uiso   1.00
O729   O     0.25000   0.53461   0.66251   0.00000  Uiso   1.00
O730   O     0.39626   0.96559   0.49179   0.00000  Uiso   1.00
O731   O     0.36685   0.96183   0.42180   0.00000  Uiso   1.00
O732   O     0.09761   0.96819   0.54937   0.00000  Uiso   1.00
O733   O     0.12834   0.91264   0.50923   0.00000  Uiso   1.00
O734   O     0.15668   0.92124   0.57922   0.00000  Uiso   1.00
O735   O     0.47373   0.90346   0.45107   0.00000  Uiso   1.00
O736   O     0.03609   0.89555   0.49193   0.00000  Uiso   1.00
O737   O     0.03964   0.86597   0.42197   0.00000  Uiso   1.00
O738   O     0.03004   0.59727   0.54941   0.00000  Uiso   1.00
O739   O     0.08594   0.62726   0.50921   0.00000  Uiso   1.00
O740   O     0.03461   0.75000   0.33749   0.00000  Uiso   1.00
O741   O     0.07774   0.65579   0.57918   0.00000  Uiso   1.00
O742   O     0.09684   0.97200   0.45114   0.00000  Uiso   1.00
O743   O     0.10374   0.53441   0.49179   0.00000  Uiso   1.00
O744   O     0.13315   0.53817   0.42180   0.00000  Uiso   1.00
O745   O     0.40239   0.53181   0.54937   0.00000  Uiso   1.00
O746   O     0.37166   0.58736   0.50923   0.00000  Uiso   1.00
O747   O     0.34332   0.57876   0.57922   0.00000  Uiso   1.00
O748   O     0.21819   0.84761   0.95063   0.00000  Uiso   1.00
O749   O     0.16264   0.87834   0.99077   0.00000  Uiso   1.00
O750   O     0.17124   0.90668   0.92078   0.00000  Uiso   1.00
O751   O     0.46538   0.75000   0.66251   0.00000  Uiso   1.00
O752   O     0.27800   0.65316   0.04886   0.00000  Uiso   1.00
O753   O     0.21559   0.64626   0.00821   0.00000  Uiso   1.00
O754   O     0.21183   0.61685   0.07820   0.00000  Uiso   1.00
O755   O     0.15273   0.71995   0.95059   0.00000  Uiso   1.00
O756   O     0.12274   0.66406   0.99079   0.00000  Uiso   1.00
O757   O     0.09421   0.67226   0.92082   0.00000  Uiso   1.00
O758   O     0.34654   0.77627   0.04893   0.00000  Uiso   1.00
O759   O     0.35445   0.71391   0.00807   0.00000  Uiso   1.00
O760   O     0.38403   0.71036   0.07803   0.00000  Uiso   1.00
O761   O     0.28181   0.65239   0.95063   0.00000  Uiso   1.00
O762   O     0.25000   0.53461   0.33749   0.00000  Uiso   1.00
O763   O     0.33736   0.62166   0.99077   0.00000  Uiso   1.00
O764   O     0.32876   0.59332   0.92078   0.00000  Uiso   1.00
O765   O     0.22200   0.84684   0.04886   0.00000  Uiso   1.00
O766   O     0.28441   0.85374   0.00821   0.00000  Uiso   1.00
O767   O     0.28817   0.88315   0.07820   0.00000  Uiso   1.00
O768   O     0.34727   0.78004   0.95059   0.00000  Uiso   1.00
O769   O     0.37726   0.83594   0.99079   0.00000  Uiso   1.00
O770   O     0.40579   0.82774   0.92082   0.00000  Uiso   1.00
O771   O     0.15346   0.72373   0.04893   0.00000  Uiso   1.00
O772   O     0.14555   0.78609   0.00807   0.00000  Uiso   1.00
S773   S     0.49048   0.62540   0.46140   0.00000  Uiso   1.00
S774   S     0.24188   0.62471   0.03860   0.00000  Uiso   1.00
S775   S     0.11291   0.69679   0.96057   0.00000  Uiso   1.00
S776   S     0.37540   0.74048   0.03861   0.00000  Uiso   1.00
S777   S     0.30449   0.61228   0.96056   0.00000  Uiso   1.00
S778   S     0.25812   0.87529   0.03860   0.00000  Uiso   1.00
S779   S     0.38709   0.80321   0.96057   0.00000  Uiso   1.00
S780   S     0.12460   0.75951   0.03861   0.00000  Uiso   1.00
S781   S     0.44679   0.86291   0.53943   0.00000  Uiso   1.00
S782   S     0.37471   0.99188   0.46140   0.00000  Uiso   1.00
S783   S     0.13772   0.94551   0.53944   0.00000  Uiso   1.00
S784   S     0.00951   0.87460   0.46139   0.00000  Uiso   1.00
S785   S     0.05321   0.63709   0.53943   0.00000  Uiso   1.00
S786   S     0.12529   0.50812   0.46140   0.00000  Uiso   1.00
S787   S     0.36228   0.55449   0.53944   0.00000  Uiso   1.00
S788   S     0.19551   0.88772   0.96056   0.00000  Uiso   1.00
Zn789  Zn    0.20052   0.50000   0.21730   0.00000  Uiso   1.00
Zn790  Zn    0.04947   0.75000   0.28270   0.00000  Uiso   1.00
Zn791  Zn    0.25000   0.95052   0.71730   0.00000  Uiso   1.00
Zn792  Zn    0.25000   0.54947   0.28270   0.00000  Uiso   1.00
Zn793  Zn    0.04947   0.75000   0.71730   0.00000  Uiso   1.00
Zn794  Zn    0.45052   0.75000   0.28270   0.00000  Uiso   1.00
Zn795  Zn    0.25000   0.54947   0.71730   0.00000  Uiso   1.00
Zn796  Zn    0.25000   0.95052   0.28270   0.00000  Uiso   1.00
Zn797  Zn    0.29947   0.50000   0.78270   0.00000  Uiso   1.00
Zn798  Zn    0.00000   0.70052   0.21730   0.00000  Uiso   1.00
Zn799  Zn   -0.00000   0.79947   0.78270   0.00000  Uiso   1.00
Zn800  Zn    0.29947   0.50000   0.21730   0.00000  Uiso   1.00
Zn801  Zn    0.20052   0.50000   0.78270   0.00000  Uiso   1.00
Zn802  Zn    0.00000   0.79947   0.21730   0.00000  Uiso   1.00
Zn803  Zn   -0.00000   0.70052   0.78270   0.00000  Uiso   1.00
Zn804  Zn    0.45052   0.75000   0.71730   0.00000  Uiso   1.00
C805   C     0.75000   0.50000   0.35597   0.00000  Uiso   1.00
C806   C     0.83003   0.91997   0.75000   0.00000  Uiso   1.00
C807   C     0.92373   0.76027   0.01977   0.00000  Uiso   1.00
C808   C     0.76845   0.57467   0.97968   0.00000  Uiso   1.00
C809   C     0.73887   0.92386   0.01975   0.00000  Uiso   1.00
C810   C     0.92513   0.76763   0.97969   0.00000  Uiso   1.00
C811   C     0.57626   0.73973   0.01977   0.00000  Uiso   1.00
C812   C     0.91997   0.66997   0.25000   0.00000  Uiso   1.00
C813   C     0.58003   0.83003   0.75000   0.00000  Uiso   1.00
C814   C     0.83003   0.91997   0.25000   0.00000  Uiso   1.00
C815   C     0.66997   0.58003   0.75000   0.00000  Uiso   1.00
C816   C     0.58003   0.83003   0.25000   0.00000  Uiso   1.00
C817   C     0.91997   0.66997   0.75000   0.00000  Uiso   1.00
C818   C     0.66997   0.91997   0.75000   0.00000  Uiso   1.00
C819   C     0.83003   0.58003   0.25000   0.00000  Uiso   1.00
C820   C     0.91997   0.83003   0.75000   0.00000  Uiso   1.00
C821   C     0.75000   0.50000   0.64414   0.00000  Uiso   1.00
C822   C     0.58003   0.66997   0.25000   0.00000  Uiso   1.00
C823   C     0.83003   0.58003   0.75000   0.00000  Uiso   1.00
C824   C     0.66997   0.91997   0.25000   0.00000  Uiso   1.00
C825   C     0.58003   0.66997   0.75000   0.00000  Uiso   1.00
C826   C     0.91997   0.83003   0.25000   0.00000  Uiso   1.00
C827   C     0.63833   0.88833   0.25000   0.00000  Uiso   1.00
C828   C     0.86167   0.61167   0.75000   0.00000  Uiso   1.00
C829   C     0.61167   0.63833   0.25000   0.00000  Uiso   1.00
C830   C     0.88833   0.86167   0.75000   0.00000  Uiso   1.00
C831   C     0.86167   0.61167   0.25000   0.00000  Uiso   1.00
C832   C     0.50000   0.75000   0.35597   0.00000  Uiso   1.00
C833   C     0.63833   0.88833   0.75000   0.00000  Uiso   1.00
C834   C     0.88833   0.86167   0.25000   0.00000  Uiso   1.00
C835   C     0.61167   0.63833   0.75000   0.00000  Uiso   1.00
C836   C     0.63833   0.61167   0.75000   0.00000  Uiso   1.00
C837   C     0.86167   0.88833   0.25000   0.00000  Uiso   1.00
C838   C     0.61167   0.86167   0.75000   0.00000  Uiso   1.00
C839   C     0.88833   0.63833   0.25000   0.00000  Uiso   1.00
C840   C     0.86167   0.88833   0.75000   0.00000  Uiso   1.00
C841   C     0.63833   0.61167   0.25000   0.00000  Uiso   1.00
C842   C     0.88833   0.63833   0.75000   0.00000  Uiso   1.00
C843   C     0.50000   0.75000   0.64414   0.00000  Uiso   1.00
C844   C     0.61167   0.86167   0.25000   0.00000  Uiso   1.00
C845   C     0.98689   0.78614   0.41856   0.00000  Uiso   1.00
C846   C     0.50084   0.71164   0.58186   0.00000  Uiso   1.00
C847   C     0.71403   0.98644   0.41858   0.00000  Uiso   1.00
C848   C     0.78835   0.50127   0.58187   0.00000  Uiso   1.00
C849   C     0.51311   0.71386   0.41856   0.00000  Uiso   1.00
C850   C     0.99916   0.78836   0.58186   0.00000  Uiso   1.00
C851   C     0.78597   0.51356   0.41858   0.00000  Uiso   1.00
C852   C     0.71165   0.99873   0.58187   0.00000  Uiso   1.00
C853   C     0.75127   0.53835   0.91813   0.00000  Uiso   1.00
C854   C     0.50000   0.75000   0.85586   0.00000  Uiso   1.00
C855   C     0.73644   0.96403   0.08142   0.00000  Uiso   1.00
C856   C     0.96164   0.75084   0.91814   0.00000  Uiso   1.00
C857   C     0.53614   0.73689   0.08144   0.00000  Uiso   1.00
C858   C     0.74873   0.96165   0.91813   0.00000  Uiso   1.00
C859   C     0.76356   0.53597   0.08142   0.00000  Uiso   1.00
C860   C     0.53836   0.74916   0.91814   0.00000  Uiso   1.00
C861   C     0.96386   0.76311   0.08144   0.00000  Uiso   1.00
C862   C     0.50000   0.75000   0.39837   0.00000  Uiso   1.00
C863   C     0.50000   0.75000   0.60190   0.00000  Uiso   1.00
C864   C     0.75000   0.50000   0.39838   0.00000  Uiso   1.00
C865   C     0.50000   0.75000   0.14403   0.00000  Uiso   1.00
C866   C     0.75000   0.50000   0.60191   0.00000  Uiso   1.00
C867   C     0.75000   0.50000   0.89809   0.00000  Uiso   1.00
C868   C     0.75000   0.50000   0.10162   0.00000  Uiso   1.00
C869   C     0.50000   0.75000   0.89809   0.00000  Uiso   1.00
C870   C     0.50000   0.75000   0.10163   0.00000  Uiso   1.00
C871   C     0.50705   0.71186   0.45917   0.00000  Uiso   1.00
C872   C     0.99295   0.78812   0.54127   0.00000  Uiso   1.00
C873   C     0.78805   0.50751   0.45918   0.00000  Uiso   1.00
C874   C     0.71196   0.99253   0.54128   0.00000  Uiso   1.00
C875   C     0.99295   0.78814   0.45917   0.00000  Uiso   1.00
C876   C     0.75000   0.50000   0.85586   0.00000  Uiso   1.00
C877   C     0.50705   0.71188   0.54127   0.00000  Uiso   1.00
C878   C     0.71195   0.99249   0.45918   0.00000  Uiso   1.00
C879   C     0.78804   0.50747   0.54128   0.00000  Uiso   1.00
C880   C     0.74253   0.96196   0.95872   0.00000  Uiso   1.00
C881   C     0.75751   0.53805   0.04082   0.00000  Uiso   1.00
C882   C     0.53812   0.74295   0.95873   0.00000  Uiso   1.00
C883   C     0.96186   0.75705   0.04083   0.00000  Uiso   1.00
C884   C     0.75747   0.53804   0.95872   0.00000  Uiso   1.00
C885   C     0.74249   0.96195   0.04082   0.00000  Uiso   1.00
C886   C     0.96188   0.75705   0.95873   0.00000  Uiso   1.00
C887   C     0.75000   0.50000   0.14403   0.00000  Uiso   1.00
C888   C     0.53814   0.74295   0.04083   0.00000  Uiso   1.00
C889   C     0.50000   0.75000   0.47968   0.00000  Uiso   1.00
C890   C     0.50000   0.75000   0.52073   0.00000  Uiso   1.00
C891   C     0.75000   0.50000   0.47969   0.00000  Uiso   1.00
C892   C     0.75000   0.50000   0.52074   0.00000  Uiso   1.00
C893   C     0.75000   0.50000   0.97926   0.00000  Uiso   1.00
C894   C     0.75000   0.50000   0.02031   0.00000  Uiso   1.00
C895   C     0.50000   0.75000   0.97927   0.00000  Uiso   1.00
C896   C     0.50000   0.75000   0.02032   0.00000  Uiso   1.00
C897   C     0.51027   0.67373   0.48023   0.00000  Uiso   1.00
C898   C     0.66997   0.58003   0.25000   0.00000  Uiso   1.00
C899   C     0.98237   0.82487   0.52031   0.00000  Uiso   1.00
C900   C     0.82614   0.51113   0.48025   0.00000  Uiso   1.00
C901   C     0.67533   0.98155   0.52032   0.00000  Uiso   1.00
C902   C     0.98973   0.82626   0.48023   0.00000  Uiso   1.00
C903   C     0.51763   0.67513   0.52031   0.00000  Uiso   1.00
C904   C     0.67386   0.98887   0.48025   0.00000  Uiso   1.00
C905   C     0.82467   0.51845   0.52032   0.00000  Uiso   1.00
C906   C     0.73155   0.92533   0.97968   0.00000  Uiso   1.00
C907   C     0.76113   0.57614   0.01975   0.00000  Uiso   1.00
C908   C     0.57487   0.73237   0.97969   0.00000  Uiso   1.00
H909   H     0.95018   0.60581   0.41410   0.00000  Uiso   1.00
H910   H     0.68754   0.60014   0.06884   0.00000  Uiso   1.00
H911   H     0.61775   0.65440   0.91163   0.00000  Uiso   1.00
H912   H     0.85581   0.70019   0.08590   0.00000  Uiso   1.00
H913   H     0.84687   0.61666   0.91157   0.00000  Uiso   1.00
H914   H     0.81246   0.89986   0.06884   0.00000  Uiso   1.00
H915   H     0.88225   0.84560   0.91163   0.00000  Uiso   1.00
H916   H     0.64419   0.79982   0.08590   0.00000  Uiso   1.00
H917   H     0.90440   0.86775   0.58838   0.00000  Uiso   1.00
H918   H     0.85014   0.93754   0.43116   0.00000  Uiso   1.00
H919   H     0.63334   0.90313   0.58842   0.00000  Uiso   1.00
H920   H     0.54982   0.89419   0.41410   0.00000  Uiso   1.00
H921   H     0.59560   0.63225   0.58837   0.00000  Uiso   1.00
H922   H     0.64986   0.56246   0.43116   0.00000  Uiso   1.00
H923   H     0.86666   0.59687   0.58842   0.00000  Uiso   1.00
H924   H     0.65313   0.88334   0.91157   0.00000  Uiso   1.00
I925   I     0.95001   0.83234   0.38798   0.00000  Uiso   1.00
I926   I     0.69900   0.91823   0.11194   0.00000  Uiso   1.00
I927   I     0.90599   0.73192   0.88716   0.00000  Uiso   1.00
I928   I     0.58234   0.70001   0.11202   0.00000  Uiso   1.00
I929   I     0.76703   0.90580   0.88715   0.00000  Uiso   1.00
I930   I     0.80100   0.58177   0.11194   0.00000  Uiso   1.00
I931   I     0.59401   0.76808   0.88716   0.00000  Uiso   1.00
I932   I     0.91766   0.79999   0.11202   0.00000  Uiso   1.00
I933   I     0.98192   0.65599   0.61284   0.00000  Uiso   1.00
I934   I     0.66823   0.94900   0.38806   0.00000  Uiso   1.00
I935   I     0.84420   0.98296   0.61285   0.00000  Uiso   1.00
I936   I     0.54999   0.66766   0.38798   0.00000  Uiso   1.00
I937   I     0.51808   0.84401   0.61284   0.00000  Uiso   1.00
I938   I     0.83177   0.55100   0.38806   0.00000  Uiso   1.00
I939   I     0.65580   0.51703   0.61285   0.00000  Uiso   1.00
I940   I     0.73296   0.59420   0.88715   0.00000  Uiso   1.00
O941   O     0.75000   0.50000   0.25000   0.00000  Uiso   1.00
O942   O     0.75000   0.96538   0.66251   0.00000  Uiso   1.00
O943   O     0.61597   0.78964   0.07803   0.00000  Uiso   1.00
O944   O     0.96538   0.75000   0.33749   0.00000  Uiso   1.00
O945   O     0.53461   0.75000   0.66251   0.00000  Uiso   1.00
O946   O     0.50000   0.71538   0.83749   0.00000  Uiso   1.00
O947   O     0.50000   0.78461   0.16251   0.00000  Uiso   1.00
O948   O     0.78461   0.50000   0.83749   0.00000  Uiso   1.00
O949   O     0.71538   0.50000   0.16251   0.00000  Uiso   1.00
O950   O     0.50000   0.78461   0.83749   0.00000  Uiso   1.00
O951   O     0.50000   0.71538   0.16251   0.00000  Uiso   1.00
O952   O     0.71538   0.50000   0.83749   0.00000  Uiso   1.00
O953   O     0.75000   0.50000   0.75000   0.00000  Uiso   1.00
O954   O     0.78461   0.50000   0.16251   0.00000  Uiso   1.00
O955   O     0.70126   0.58332   0.27298   0.00000  Uiso   1.00
O956   O     0.79873   0.91668   0.72702   0.00000  Uiso   1.00
O957   O     0.91668   0.70126   0.27298   0.00000  Uiso   1.00
O958   O     0.58332   0.79873   0.72702   0.00000  Uiso   1.00
O959   O     0.79873   0.91668   0.27298   0.00000  Uiso   1.00
O960   O     0.70126   0.58332   0.72702   0.00000  Uiso   1.00
O961   O     0.58332   0.79873   0.27298   0.00000  Uiso   1.00
O962   O     0.91668   0.70126   0.72702   0.00000  Uiso   1.00
O963   O     0.70126   0.91668   0.72702   0.00000  Uiso   1.00
O964   O     0.50000   0.75000   0.25000   0.00000  Uiso   1.00
O965   O     0.79873   0.58332   0.27298   0.00000  Uiso   1.00
O966   O     0.91668   0.79873   0.72702   0.00000  Uiso   1.00
O967   O     0.58332   0.70126   0.27298   0.00000  Uiso   1.00
O968   O     0.79873   0.58332   0.72702   0.00000  Uiso   1.00
O969   O     0.70126   0.91668   0.27298   0.00000  Uiso   1.00
O970   O     0.58332   0.70126   0.72702   0.00000  Uiso   1.00
O971   O     0.91668   0.79873   0.27298   0.00000  Uiso   1.00
O972   O     0.95126   0.83332   0.77298   0.00000  Uiso   1.00
O973   O     0.54873   0.66668   0.22702   0.00000  Uiso   1.00
O974   O     0.66668   0.95126   0.77298   0.00000  Uiso   1.00
O975   O     0.50000   0.75000   0.75000   0.00000  Uiso   1.00
O976   O     0.83332   0.54873   0.22702   0.00000  Uiso   1.00
O977   O     0.54873   0.66668   0.77298   0.00000  Uiso   1.00
O978   O     0.95126   0.83332   0.22702   0.00000  Uiso   1.00
O979   O     0.83332   0.54873   0.77298   0.00000  Uiso   1.00
O980   O     0.66668   0.95126   0.22702   0.00000  Uiso   1.00
O981   O     0.95126   0.66668   0.22702   0.00000  Uiso   1.00
O982   O     0.54873   0.83332   0.77298   0.00000  Uiso   1.00
O983   O     0.66668   0.54873   0.22702   0.00000  Uiso   1.00
O984   O     0.83332   0.95126   0.77298   0.00000  Uiso   1.00
O985   O     0.54873   0.83332   0.22702   0.00000  Uiso   1.00
O986   O     0.75000   0.96538   0.33749   0.00000  Uiso   1.00
O987   O     0.95126   0.66668   0.77298   0.00000  Uiso   1.00
O988   O     0.83332   0.95126   0.22702   0.00000  Uiso   1.00
O989   O     0.66668   0.54873   0.77298   0.00000  Uiso   1.00
O990   O     0.52627   0.59654   0.45107   0.00000  Uiso   1.00
O991   O     0.96391   0.60445   0.49193   0.00000  Uiso   1.00
O992   O     0.96036   0.63403   0.42197   0.00000  Uiso   1.00
O993   O     0.96995   0.90273   0.54941   0.00000  Uiso   1.00
O994   O     0.91406   0.87274   0.50921   0.00000  Uiso   1.00
O995   O     0.92226   0.84421   0.57918   0.00000  Uiso   1.00
O996   O     0.90316   0.52800   0.45114   0.00000  Uiso   1.00
O997   O     0.75000   0.53461   0.66251   0.00000  Uiso   1.00
O998   O     0.89626   0.96559   0.49179   0.00000  Uiso   1.00
O999   O     0.86685   0.96183   0.42180   0.00000  Uiso   1.00
O1000  O     0.59761   0.96819   0.54937   0.00000  Uiso   1.00
O1001  O     0.62834   0.91264   0.50923   0.00000  Uiso   1.00
O1002  O     0.65668   0.92124   0.57922   0.00000  Uiso   1.00
O1003  O     0.97373   0.90346   0.45107   0.00000  Uiso   1.00
O1004  O     0.53609   0.89555   0.49193   0.00000  Uiso   1.00
O1005  O     0.53964   0.86597   0.42197   0.00000  Uiso   1.00
O1006  O     0.53004   0.59727   0.54941   0.00000  Uiso   1.00
O1007  O     0.58594   0.62726   0.50921   0.00000  Uiso   1.00
O1008  O     0.53461   0.75000   0.33749   0.00000  Uiso   1.00
O1009  O     0.57774   0.65579   0.57918   0.00000  Uiso   1.00
O1010  O     0.59684   0.97200   0.45114   0.00000  Uiso   1.00
O1011  O     0.60374   0.53441   0.49179   0.00000  Uiso   1.00
O1012  O     0.63315   0.53817   0.42180   0.00000  Uiso   1.00
O1013  O     0.90239   0.53181   0.54937   0.00000  Uiso   1.00
O1014  O     0.87166   0.58736   0.50923   0.00000  Uiso   1.00
O1015  O     0.84332   0.57876   0.57922   0.00000  Uiso   1.00
O1016  O     0.71819   0.84761   0.95063   0.00000  Uiso   1.00
O1017  O     0.66264   0.87834   0.99077   0.00000  Uiso   1.00
O1018  O     0.67124   0.90668   0.92078   0.00000  Uiso   1.00
O1019  O     0.96538   0.75000   0.66251   0.00000  Uiso   1.00
O1020  O     0.77800   0.65316   0.04886   0.00000  Uiso   1.00
O1021  O     0.71559   0.64626   0.00821   0.00000  Uiso   1.00
O1022  O     0.71183   0.61685   0.07820   0.00000  Uiso   1.00
O1023  O     0.65273   0.71995   0.95059   0.00000  Uiso   1.00
O1024  O     0.62274   0.66406   0.99079   0.00000  Uiso   1.00
O1025  O     0.59421   0.67226   0.92082   0.00000  Uiso   1.00
O1026  O     0.84654   0.77627   0.04893   0.00000  Uiso   1.00
O1027  O     0.85445   0.71391   0.00807   0.00000  Uiso   1.00
O1028  O     0.88403   0.71036   0.07803   0.00000  Uiso   1.00
O1029  O     0.78181   0.65239   0.95063   0.00000  Uiso   1.00
O1030  O     0.75000   0.53461   0.33749   0.00000  Uiso   1.00
O1031  O     0.83736   0.62166   0.99077   0.00000  Uiso   1.00
O1032  O     0.82876   0.59332   0.92078   0.00000  Uiso   1.00
O1033  O     0.72200   0.84684   0.04886   0.00000  Uiso   1.00
O1034  O     0.78441   0.85374   0.00821   0.00000  Uiso   1.00
O1035  O     0.78817   0.88315   0.07820   0.00000  Uiso   1.00
O1036  O     0.84727   0.78004   0.95059   0.00000  Uiso   1.00
O1037  O     0.87726   0.83594   0.99079   0.00000  Uiso   1.00
O1038  O     0.90579   0.82774   0.92082   0.00000  Uiso   1.00
O1039  O     0.65346   0.72373   0.04893   0.00000  Uiso   1.00
O1040  O     0.64555   0.78609   0.00807   0.00000  Uiso   1.00
S1041  S     0.99048   0.62540   0.46140   0.00000  Uiso   1.00
S1042  S     0.74188   0.62471   0.03860   0.00000  Uiso   1.00
S1043  S     0.61291   0.69679   0.96057   0.00000  Uiso   1.00
S1044  S     0.87540   0.74048   0.03861   0.00000  Uiso   1.00
S1045  S     0.80449   0.61228   0.96056   0.00000  Uiso   1.00
S1046  S     0.75812   0.87529   0.03860   0.00000  Uiso   1.00
S1047  S     0.88709   0.80321   0.96057   0.00000  Uiso   1.00
S1048  S     0.62460   0.75951   0.03861   0.00000  Uiso   1.00
S1049  S     0.94679   0.86291   0.53943   0.00000  Uiso   1.00
S1050  S     0.87471   0.99188   0.46140   0.00000  Uiso   1.00
S1051  S     0.63772   0.94551   0.53944   0.00000  Uiso   1.00
S1052  S     0.50951   0.87460   0.46139   0.00000  Uiso   1.00
S1053  S     0.55321   0.63709   0.53943   0.00000  Uiso   1.00
S1054  S     0.62529   0.50812   0.46140   0.00000  Uiso   1.00
S1055  S     0.86228   0.55449   0.53944   0.00000  Uiso   1.00
S1056  S     0.69551   0.88772   0.96056   0.00000  Uiso   1.00
Zn1057 Zn    0.70052   0.50000   0.21730   0.00000  Uiso   1.00
Zn1058 Zn    0.54947   0.75000   0.28270   0.00000  Uiso   1.00
Zn1059 Zn    0.75000   0.95052   0.71730   0.00000  Uiso   1.00
Zn1060 Zn    0.75000   0.54947   0.28270   0.00000  Uiso   1.00
Zn1061 Zn    0.54947   0.75000   0.71730   0.00000  Uiso   1.00
Zn1062 Zn    0.95052   0.75000   0.28270   0.00000  Uiso   1.00
Zn1063 Zn    0.75000   0.54947   0.71730   0.00000  Uiso   1.00
Zn1064 Zn    0.75000   0.95052   0.28270   0.00000  Uiso   1.00
Zn1065 Zn    0.79947   0.50000   0.78270   0.00000  Uiso   1.00
Zn1066 Zn    0.50000   0.70052   0.21730   0.00000  Uiso   1.00
Zn1067 Zn    0.50000   0.79947   0.78270   0.00000  Uiso   1.00
Zn1068 Zn    0.79947   0.50000   0.21730   0.00000  Uiso   1.00
Zn1069 Zn    0.70052   0.50000   0.78270   0.00000  Uiso   1.00
Zn1070 Zn    0.50000   0.79947   0.21730   0.00000  Uiso   1.00
Zn1071 Zn    0.50000   0.70052   0.78270   0.00000  Uiso   1.00
Zn1072 Zn    0.95052   0.75000   0.71730   0.00000  Uiso   1.00
loop_
_geom_bond_atom_site_label_1
_geom_bond_atom_site_label_2
_geom_bond_distance
_geom_bond_site_symmetry_2
_ccdc_geom_bond_type
C1     O718    1.270   1_545 A
C1     C60     1.459   .     S
C1     O226    1.270   .     S
C2     O180    1.274   .     A
C2     O152    1.274   .     A
C2     C36     1.421   .     S
C3     C79     1.415   .     A
C3     S240    1.781   .     S
C3     C6      1.399   1_554 S
C4     C80     1.413   .     A
C4     S241    1.780   .     S
C4     C103    1.399   1_556 S
C5     C81     1.415   .     A
C5     S242    1.782   .     S
C5     C102    1.399   1_554 S
C6     C82     1.413   .     A
C6     S243    1.781   .     S
C6     C3      1.399   1_556 S
C7     S244    1.781   .     S
C7     C84     1.415   .     A
C7     C104    1.399   1_554 S
C8     O177    1.275   .     A
C8     C35     1.421   .     S
C8     O153    1.275   .     A
C9     O178    1.274   .     A
C9     C34     1.421   .     S
C9     O154    1.274   .     A
C10    O155    1.275   .     A
C10    C33     1.421   .     S
C10    O184    1.275   .     A
C11    C32     1.421   .     S
C11    O185    1.274   .     A
C11    O156    1.274   .     A
C12    O181    1.275   .     A
C12    O157    1.275   .     A
C12    C40     1.421   .     S
C13    O183    1.274   .     A
C13    C38     1.421   .     S
C13    O158    1.274   .     A
C14    O170    1.274   .     A
C14    C29     1.421   .     S
C14    O159    1.274   .     A
C15    C27     1.421   .     S
C15    O161    1.274   .     A
C15    O172    1.274   .     A
C16    C26     1.421   .     S
C16    O162    1.274   .     A
C16    O168    1.274   .     A
C17    O674    1.268   1_545 A
C17    C62     1.453   .     S
C17    O193    1.268   .     S
C18    C25     1.421   .     S
C18    O163    1.274   .     A
C18    O169    1.274   .     A
C19    O164    1.274   .     A
C19    C24     1.421   .     S
C19    O175    1.274   .     A
C20    O165    1.274   .     A
C20    C23     1.421   .     S
C20    O176    1.274   .     A
C21    C31     1.421   .     S
C21    O166    1.274   .     A
C21    O173    1.274   .     A
C22    O174    1.274   .     A
C22    O167    1.274   .     A
C22    C30     1.421   .     S
C23    C40     1.198   .     T
C24    C38     1.198   .     T
C25    C37     1.198   .     T
C26    C36     1.198   .     T
C27    C35     1.198   .     T
C28    O408    1.270   1_455 A
C28    C58     1.459   .     S
C28    O204    1.270   .     S
C29    C34     1.198   .     T
C30    C33     1.198   .     T
C31    C32     1.198   .     T
C37    C94     1.421   .     S
C39    O141    1.268   .     A
C39    C59     1.453   .     S
C39    O483    1.268   1_455 S
C41    C326    1.405   .     A
C41    C71     1.412   .     A
C41    I121    2.153   .     S
C42    C73     1.411   .     A
C42    C59     1.400   .     S
C42    I397    2.150   1_455 S
C43    C74     1.412   .     A
C43    I130    2.153   .     S
C43    C596    1.405   .     S
C44    C75     1.411   .     A
C44    C62     1.400   .     S
C44    I667    2.150   1_545 S
C45    C67     1.412   .     A
C45    I132    2.153   .     S
C45    C58     1.405   .     S
C46    C327    1.400   .     A
C46    C68     1.411   .     A
C46    I401    2.150   .     S
C47    C69     1.412   .     A
C47    C60     1.405   .     A
C47    I134    2.153   .     S
C48    C598    1.400   .     A
C48    C70     1.411   .     A
C48    I671    2.150   .     S
C49    I136    2.150   .     S
C49    C80     1.411   .     A
C49    C63     1.400   .     S
C50    C65     1.453   .     S
C50    O142    1.268   .     S
C50    O146    1.268   .     S
C51    C81     1.412   .     A
C51    C600    1.405   .     A
C51    I122    2.153   .     S
C52    I123    2.150   .     S
C52    C82     1.411   .     A
C52    C333    1.400   .     A
C53    C84     1.412   .     A
C53    I124    2.153   .     S
C53    C66     1.405   .     S
C54    I125    2.150   .     S
C54    C599    1.400   .     A
C54    C76     1.411   .     A
C55    C77     1.412   .     A
C55    I126    2.153   .     S
C55    C64     1.405   .     S
C56    C78     1.411   .     A
C56    I127    2.150   .     S
C56    C65     1.400   .     S
C57    C79     1.412   .     A
C57    C334    1.405   .     A
C57    I128    2.153   .     S
C58    C309    1.405   1_455 A
C59    C314    1.400   1_455 A
C60    C579    1.405   1_545 S
C61    C66     1.459   .     S
C61    O143    1.270   .     S
C61    O147    1.270   .     S
C62    C584    1.400   1_545 A
C63    C590    1.400   1_545 A
C63    C72     1.453   .     S
C64    C83     1.459   .     S
C64    C587    1.405   1_545 A
C65    C320    1.400   1_455 A
C66    C325    1.405   1_455 A
C67    C85     1.420   .     A
C67    C93     1.415   .     A
C68    C95     1.413   .     A
C68    C354    1.420   .     S
C69    C87     1.420   .     A
C69    C96     1.415   .     A
C70    C97     1.413   .     A
C70    C624    1.420   .     A
C71    C98     1.415   .     A
C71    C353    1.420   .     S
C72    O144    1.268   .     A
C72    O148    1.268   .     A
C73    C99     1.413   .     A
C73    C86     1.420   .     A
C74    C100    1.415   .     A
C74    C623    1.420   .     S
C75    C101    1.413   .     A
C75    C88     1.420   .     S
C76    C625    1.420   .     A
C76    C102    1.413   .     A
C77    C103    1.415   .     A
C77    C90     1.420   .     S
C78    C104    1.413   .     A
C78    C91     1.420   .     S
C79    C360    1.420   .     A
C80    C89     1.420   .     S
C81    C626    1.420   .     A
C82    C359    1.420   .     A
C83    O145    1.270   .     A
C83    O150    1.270   .     A
C84    C92     1.420   .     S
C85    C86     1.413   .     A
C85    C339    1.420   1_455 S
C86    C336    1.420   1_455 S
C87    C610    1.420   1_545 S
C87    C88     1.412   .     S
C88    C606    1.420   1_545 A
C89    C612    1.420   1_545 A
C89    C90     1.412   1_556 S
C90    C617    1.420   1_545 A
C90    C89     1.412   1_554 S
C91    C350    1.420   1_455 A
C91    C92     1.413   1_556 S
C92    C347    1.420   1_455 A
C92    C91     1.413   1_554 S
C93    C99     1.399   .     A
C93    S505    1.781   1_455 S
C94    O151    1.275   .     A
C94    O179    1.275   .     A
C95    C98     1.399   .     A
C95    S245    1.781   .     S
C96    C101    1.399   .     A
C96    S782    1.782   1_545 S
C97    S247    1.780   .     S
C97    C100    1.399   .     A
C98    S516    1.781   .     S
C99    S249    1.781   .     S
C100   S786    1.782   .     S
C101   S251    1.780   .     S
C102   S252    1.780   .     S
C102   C5      1.399   1_556 S
C103   S238    1.782   .     S
C103   C4      1.399   1_554 S
C104   S239    1.781   .     S
C104   C7      1.399   1_556 S
H105   O188    0.991   .     S
H106   O218    0.991   .     S
H107   O221    0.991   .     S
H108   O224    0.991   .     S
H109   O228    0.991   .     S
H110   O231    0.991   .     S
H111   O234    0.991   .     S
H112   O139    0.991   .     S
H113   O191    0.991   .     S
H114   O195    0.991   .     S
H115   O198    0.991   .     S
H116   O201    0.991   .     S
H117   O205    0.991   .     S
H118   O208    0.991   .     S
H119   O211    0.991   .     S
H120   O214    0.991   .     S
I129   C310    2.150   .     S
I131   C580    2.150   .     S
I133   C314    2.150   1_455 S
I135   C584    2.150   1_545 S
O137   Zn796   1.933   1_545 S
O137   Zn253   1.933   .     S
O137   Zn256   1.933   .     S
O137   Zn264   1.933   .     S
O138   C553    1.268   .     A
O138   Zn255   1.944   .     S
O139   S244    1.683   .     S
O140   C296    1.270   .     A
O140   Zn258   1.944   .     S
O141   Zn257   1.944   .     S
O142   Zn267   1.944   .     S
O143   Zn266   1.944   .     S
O144   Zn261   1.944   .     S
O145   Zn253   1.944   .     S
O146   Zn263   1.944   .     S
O147   Zn262   1.944   .     S
O148   Zn265   1.944   .     S
O149   Zn265   1.933   .     S
O149   Zn261   1.933   .     S
O149   Zn791   1.933   1_545 S
O149   Zn259   1.933   .     S
O150   Zn264   1.944   .     S
O151   Zn256   1.914   .     S
O152   Zn255   1.914   .     S
O153   Zn258   1.914   .     S
O154   Zn257   1.914   .     S
O155   Zn260   1.914   .     S
O156   Zn259   1.914   .     S
O157   Zn254   1.914   .     S
O158   Zn268   1.914   .     S
O159   Zn255   1.914   .     S
O160   Zn266   1.933   .     S
O160   Zn254   1.933   .     S
O160   Zn262   1.933   .     S
O160   Zn526   1.933   1_455 S
O161   Zn256   1.914   .     S
O162   Zn268   1.914   .     S
O163   Zn254   1.914   .     S
O164   Zn259   1.914   .     S
O165   Zn260   1.914   .     S
O166   Zn257   1.914   .     S
O167   Zn258   1.914   .     S
O168   Zn531   1.914   .     S
O169   Zn262   1.914   .     S
O170   Zn801   1.914   .     S
O171   Zn267   1.933   .     S
O171   Zn536   1.933   1_455 S
O171   Zn263   1.933   .     S
O171   Zn257   1.933   .     S
O172   Zn264   1.914   .     S
O173   Zn267   1.914   .     S
O174   Zn534   1.914   .     S
O175   Zn261   1.914   .     S
O176   Zn789   1.914   .     S
O177   Zn530   1.914   .     S
O178   Zn263   1.914   .     S
O179   Zn253   1.914   .     S
O180   Zn797   1.914   .     S
O181   Zn266   1.914   .     S
O182   C537    1.270   .     A
O182   Zn260   1.944   .     S
O183   Zn535   1.914   .     S
O184   Zn800   1.914   .     S
O185   Zn265   1.914   .     S
O186   S505    1.503   1_455 S
O187   S237    1.503   .     D
O188   S237    1.683   .     S
O189   S245    1.503   .     D
O190   S245    1.503   .     D
O191   S245    1.683   .     S
O192   S782    1.503   1_545 S
O193   Zn259   1.944   .     S
O194   S246    1.503   .     D
O195   S246    1.682   .     S
O196   S247    1.503   .     D
O197   S247    1.503   .     D
O198   S247    1.683   .     S
O199   S516    1.503   .     S
O200   S248    1.503   .     D
O201   S248    1.683   .     S
O202   S249    1.503   .     D
O203   S249    1.503   .     D
O204   Zn254   1.944   .     S
O205   S249    1.683   .     S
O206   S786    1.503   .     S
O207   S250    1.503   .     D
O208   S250    1.682   .     S
O209   S251    1.503   .     D
O210   S251    1.503   .     D
O211   S251    1.683   .     S
O212   S252    1.503   .     D
O213   S252    1.503   .     D
O214   S252    1.683   .     S
O215   Zn268   1.944   .     S
O215   C307    1.268   .     S
O216   S238    1.503   .     D
O217   S238    1.503   .     D
O218   S238    1.682   .     S
O219   S239    1.503   .     D
O220   S239    1.503   .     D
O221   S239    1.683   .     S
O222   S240    1.503   .     D
O223   S240    1.503   .     D
O224   S240    1.683   .     S
O225   S241    1.503   .     D
O226   Zn256   1.944   .     S
O227   S241    1.503   .     D
O228   S241    1.683   .     S
O229   S242    1.503   .     D
O230   S242    1.503   .     D
O231   S242    1.682   .     S
O232   S243    1.503   .     D
O233   S243    1.503   .     D
O234   S243    1.683   .     S
O235   S244    1.503   .     D
O236   S244    1.503   .     D
S237   C361    1.781   .     S
S237   O454    1.503   .     S
S246   C632    1.782   .     S
S246   O728    1.503   .     S
S248   C366    1.781   1_455 S
S248   O467    1.503   1_455 S
S250   C636    1.782   1_545 S
S250   O742    1.503   1_545 S
Zn253  O712    1.914   1_545 S
Zn255  O685    1.933   .     S
Zn258  O428    1.933   .     S
Zn260  O673    1.933   .     S
Zn261  O716    1.914   1_545 S
Zn262  O445    1.914   1_455 S
Zn263  O436    1.914   1_455 S
Zn264  O720    1.914   1_545 S
Zn265  O706    1.914   1_545 S
Zn266  O442    1.914   1_455 S
Zn267  O451    1.914   1_455 S
Zn268  O439    1.933   .     S
C269   O986    1.270   1_545 A
C269   C328    1.459   .     S
C269   O494    1.270   .     S
C270   O448    1.274   .     A
C270   O420    1.274   .     A
C270   C304    1.421   .     S
C271   C347    1.415   .     A
C271   S508    1.781   .     S
C271   C274    1.399   1_554 S
C272   C348    1.413   .     A
C272   S509    1.780   .     S
C272   C371    1.399   1_556 S
C273   C349    1.415   .     A
C273   S510    1.782   .     S
C273   C370    1.399   1_554 S
C274   C350    1.413   .     A
C274   S511    1.781   .     S
C274   C271    1.399   1_556 S
C275   S512    1.781   .     S
C275   C352    1.415   .     A
C275   C372    1.399   1_554 S
C276   O445    1.275   .     A
C276   C303    1.421   .     S
C276   O421    1.275   .     A
C277   O446    1.274   .     A
C277   C302    1.421   .     S
C277   O422    1.274   .     A
C278   O423    1.275   .     A
C278   C301    1.421   .     S
C278   O452    1.275   .     A
C279   C300    1.421   .     S
C279   O453    1.274   .     A
C279   O424    1.274   .     A
C280   O449    1.275   .     A
C280   O425    1.275   .     A
C280   C308    1.421   .     S
C281   O451    1.274   .     A
C281   C306    1.421   .     S
C281   O426    1.274   .     A
C282   O438    1.274   .     A
C282   C297    1.421   .     S
C282   O427    1.274   .     A
C283   C295    1.421   .     S
C283   O429    1.274   .     A
C283   O440    1.274   .     A
C284   C294    1.421   .     S
C284   O430    1.274   .     A
C284   O436    1.274   .     A
C285   O942    1.268   1_545 A
C285   C330    1.453   .     S
C285   O461    1.268   .     S
C286   C293    1.421   .     S
C286   O431    1.274   .     A
C286   O437    1.274   .     A
C287   O432    1.274   .     A
C287   C292    1.421   .     S
C287   O443    1.274   .     A
C288   O433    1.274   .     A
C288   C291    1.421   .     S
C288   O444    1.274   .     A
C289   C299    1.421   .     S
C289   O434    1.274   .     A
C289   O441    1.274   .     A
C290   O442    1.274   .     A
C290   O435    1.274   .     A
C290   C298    1.421   .     S
C291   C308    1.198   .     T
C292   C306    1.198   .     T
C293   C305    1.198   .     T
C294   C304    1.198   .     T
C295   C303    1.198   .     T
C296   C326    1.459   .     S
C296   O472    1.270   .     S
C297   C302    1.198   .     T
C298   C301    1.198   .     T
C299   C300    1.198   .     T
C305   C362    1.421   .     S
C307   O409    1.268   .     A
C307   C327    1.453   .     S
C309   C58     1.405   1_655 A
C309   C339    1.412   .     A
C309   I389    2.153   .     S
C310   C341    1.411   .     A
C310   C327    1.400   .     S
C311   C342    1.412   .     A
C311   I398    2.153   .     S
C311   C864    1.405   .     S
C312   C343    1.411   .     A
C312   C330    1.400   .     S
C312   I935    2.150   1_545 S
C313   C335    1.412   .     A
C313   I400    2.153   .     S
C313   C326    1.405   .     S
C314   C59     1.400   1_655 A
C314   C336    1.411   .     A
C314   I133    2.150   1_655 S
C315   C337    1.412   .     A
C315   C328    1.405   .     A
C315   I402    2.153   .     S
C316   C866    1.400   .     A
C316   C338    1.411   .     A
C316   I939    2.150   .     S
C317   I404    2.150   .     S
C317   C348    1.411   .     A
C317   C331    1.400   .     S
C318   C333    1.453   .     S
C318   O410    1.268   .     S
C318   O414    1.268   .     S
C319   C349    1.412   .     A
C319   C868    1.405   .     A
C319   I390    2.153   .     S
C320   I391    2.150   .     S
C320   C350    1.411   .     A
C320   C65     1.400   1_655 A
C321   C352    1.412   .     A
C321   I392    2.153   .     S
C321   C334    1.405   .     S
C322   I393    2.150   .     S
C322   C867    1.400   .     A
C322   C344    1.411   .     A
C323   C345    1.412   .     A
C323   I394    2.153   .     S
C323   C332    1.405   .     S
C324   C346    1.411   .     A
C324   I395    2.150   .     S
C324   C333    1.400   .     S
C325   C347    1.412   .     A
C325   C66     1.405   1_655 A
C325   I396    2.153   .     S
C328   C847    1.405   1_545 S
C329   C334    1.459   .     S
C329   O411    1.270   .     S
C329   O415    1.270   .     S
C330   C852    1.400   1_545 A
C331   C858    1.400   1_545 A
C331   C340    1.453   .     S
C332   C351    1.459   .     S
C332   C855    1.405   1_545 A
C335   C353    1.420   .     A
C335   C361    1.415   .     A
C336   C363    1.413   .     A
C336   C86     1.420   1_655 S
C337   C355    1.420   .     A
C337   C364    1.415   .     A
C338   C365    1.413   .     A
C338   C892    1.420   .     A
C339   C366    1.415   .     A
C339   C85     1.420   1_655 S
C340   O412    1.268   .     A
C340   O416    1.268   .     A
C341   C367    1.413   .     A
C341   C354    1.420   .     A
C342   C368    1.415   .     A
C342   C891    1.420   .     S
C343   C369    1.413   .     A
C343   C356    1.420   .     S
C344   C893    1.420   .     A
C344   C370    1.413   .     A
C345   C371    1.415   .     A
C345   C358    1.420   .     S
C346   C372    1.413   .     A
C346   C359    1.420   .     S
C347   C92     1.420   1_655 A
C348   C357    1.420   .     S
C349   C894    1.420   .     A
C350   C91     1.420   1_655 A
C351   O413    1.270   .     A
C351   O418    1.270   .     A
C352   C360    1.420   .     S
C353   C354    1.413   .     A
C355   C878    1.420   1_545 S
C355   C356    1.412   .     S
C356   C874    1.420   1_545 A
C357   C880    1.420   1_545 A
C357   C358    1.412   1_556 S
C358   C885    1.420   1_545 A
C358   C357    1.412   1_554 S
C359   C360    1.413   1_556 S
C360   C359    1.413   1_554 S
C361   C367    1.399   .     A
C362   O419    1.275   .     A
C362   O447    1.275   .     A
C363   C366    1.399   .     A
C363   S513    1.781   .     S
C364   C369    1.399   .     A
C364   S1050   1.782   1_545 S
C365   S515    1.780   .     S
C365   C368    1.399   .     A
C366   S248    1.781   1_655 S
C367   S517    1.781   .     S
C368   S1054   1.782   .     S
C369   S519    1.780   .     S
C370   S520    1.780   .     S
C370   C273    1.399   1_556 S
C371   S506    1.782   .     S
C371   C272    1.399   1_554 S
C372   S507    1.781   .     S
C372   C275    1.399   1_556 S
H373   O456    0.991   .     S
H374   O486    0.991   .     S
H375   O489    0.991   .     S
H376   O492    0.991   .     S
H377   O496    0.991   .     S
H378   O499    0.991   .     S
H379   O502    0.991   .     S
H380   O407    0.991   .     S
H381   O459    0.991   .     S
H382   O463    0.991   .     S
H383   O466    0.991   .     S
H384   O469    0.991   .     S
H385   O473    0.991   .     S
H386   O476    0.991   .     S
H387   O479    0.991   .     S
H388   O482    0.991   .     S
I397   C42     2.150   1_655 S
I399   C848    2.150   .     S
I403   C852    2.150   1_545 S
O405   Zn1064  1.933   1_545 S
O405   Zn521   1.933   .     S
O405   Zn524   1.933   .     S
O405   Zn532   1.933   .     S
O406   C821    1.268   .     A
O406   Zn523   1.944   .     S
O407   S512    1.683   .     S
O408   C28     1.270   1_655 A
O408   Zn526   1.944   .     S
O409   Zn525   1.944   .     S
O410   Zn535   1.944   .     S
O411   Zn534   1.944   .     S
O412   Zn529   1.944   .     S
O413   Zn521   1.944   .     S
O414   Zn531   1.944   .     S
O415   Zn530   1.944   .     S
O416   Zn533   1.944   .     S
O417   Zn533   1.933   .     S
O417   Zn529   1.933   .     S
O417   Zn1059  1.933   1_545 S
O417   Zn527   1.933   .     S
O418   Zn532   1.944   .     S
O419   Zn524   1.914   .     S
O420   Zn523   1.914   .     S
O421   Zn526   1.914   .     S
O422   Zn525   1.914   .     S
O423   Zn528   1.914   .     S
O424   Zn527   1.914   .     S
O425   Zn522   1.914   .     S
O426   Zn536   1.914   .     S
O427   Zn523   1.914   .     S
O428   Zn534   1.933   .     S
O428   Zn522   1.933   .     S
O428   Zn530   1.933   .     S
O429   Zn524   1.914   .     S
O430   Zn536   1.914   .     S
O431   Zn522   1.914   .     S
O432   Zn527   1.914   .     S
O433   Zn528   1.914   .     S
O434   Zn525   1.914   .     S
O435   Zn526   1.914   .     S
O436   Zn263   1.914   1_655 S
O437   Zn530   1.914   .     S
O438   Zn1069  1.914   .     S
O439   Zn535   1.933   .     S
O439   Zn531   1.933   .     S
O439   Zn525   1.933   .     S
O440   Zn532   1.914   .     S
O441   Zn535   1.914   .     S
O442   Zn266   1.914   1_655 S
O443   Zn529   1.914   .     S
O444   Zn1057  1.914   .     S
O445   Zn262   1.914   1_655 S
O446   Zn531   1.914   .     S
O447   Zn521   1.914   .     S
O448   Zn1065  1.914   .     S
O449   Zn534   1.914   .     S
O450   C805    1.270   .     A
O450   Zn528   1.944   .     S
O451   Zn267   1.914   1_655 S
O452   Zn1068  1.914   .     S
O453   Zn533   1.914   .     S
O455   S505    1.503   .     D
O456   S505    1.683   .     S
O457   S513    1.503   .     D
O458   S513    1.503   .     D
O459   S513    1.683   .     S
O460   S1050   1.503   1_545 S
O461   Zn527   1.944   .     S
O462   S514    1.503   .     D
O463   S514    1.682   .     S
O464   S515    1.503   .     D
O465   S515    1.503   .     D
O466   S515    1.683   .     S
O467   S248    1.503   1_655 S
O468   S516    1.503   .     D
O469   S516    1.683   .     S
O470   S517    1.503   .     D
O471   S517    1.503   .     D
O472   Zn522   1.944   .     S
O473   S517    1.683   .     S
O474   S1054   1.503   .     S
O475   S518    1.503   .     D
O476   S518    1.682   .     S
O477   S519    1.503   .     D
O478   S519    1.503   .     D
O479   S519    1.683   .     S
O480   S520    1.503   .     D
O481   S520    1.503   .     D
O482   S520    1.683   .     S
O483   Zn536   1.944   .     S
O483   C39     1.268   1_655 S
O484   S506    1.503   .     D
O485   S506    1.503   .     D
O486   S506    1.682   .     S
O487   S507    1.503   .     D
O488   S507    1.503   .     D
O489   S507    1.683   .     S
O490   S508    1.503   .     D
O491   S508    1.503   .     D
O492   S508    1.683   .     S
O493   S509    1.503   .     D
O494   Zn524   1.944   .     S
O495   S509    1.503   .     D
O496   S509    1.683   .     S
O497   S510    1.503   .     D
O498   S510    1.503   .     D
O499   S510    1.682   .     S
O500   S511    1.503   .     D
O501   S511    1.503   .     D
O502   S511    1.683   .     S
O503   S512    1.503   .     D
O504   S512    1.503   .     D
S505   C93     1.781   1_655 S
S505   O186    1.503   1_655 S
S514   C900    1.782   .     S
S514   O996    1.503   .     S
S518   C904    1.782   1_545 S
S518   O1010   1.503   1_545 S
Zn521  O980    1.914   1_545 S
Zn523  O953    1.933   .     S
Zn526  O160    1.933   1_655 S
Zn528  O941    1.933   .     S
Zn529  O984    1.914   1_545 S
Zn532  O988    1.914   1_545 S
Zn533  O974    1.914   1_545 S
Zn536  O171    1.933   1_655 S
C537   C596    1.459   .     S
C537   O762    1.270   .     S
C538   O716    1.274   .     A
C538   O688    1.274   .     A
C538   C572    1.421   .     S
C539   C615    1.415   .     A
C539   S776    1.781   .     S
C539   C542    1.399   1_554 S
C540   C616    1.413   .     A
C540   S777    1.780   .     S
C540   C639    1.399   1_556 S
C541   C617    1.415   .     A
C541   S778    1.782   .     S
C541   C638    1.399   1_554 S
C542   C618    1.413   .     A
C542   S779    1.781   .     S
C542   C539    1.399   1_556 S
C543   S780    1.781   .     S
C543   C620    1.415   .     A
C543   C640    1.399   1_554 S
C544   O713    1.275   .     A
C544   C571    1.421   .     S
C544   O689    1.275   .     A
C545   O714    1.274   .     A
C545   C570    1.421   .     S
C545   O690    1.274   .     A
C546   O691    1.275   .     A
C546   C569    1.421   .     S
C546   O720    1.275   .     A
C547   C568    1.421   .     S
C547   O721    1.274   .     A
C547   O692    1.274   .     A
C548   O717    1.275   .     A
C548   O693    1.275   .     A
C548   C576    1.421   .     S
C549   O719    1.274   .     A
C549   C574    1.421   .     S
C549   O694    1.274   .     A
C550   O706    1.274   .     A
C550   C565    1.421   .     S
C550   O695    1.274   .     A
C551   C563    1.421   .     S
C551   O697    1.274   .     A
C551   O708    1.274   .     A
C552   C562    1.421   .     S
C552   O698    1.274   .     A
C552   O704    1.274   .     A
C553   C598    1.453   .     S
C553   O729    1.268   .     S
C554   C561    1.421   .     S
C554   O699    1.274   .     A
C554   O705    1.274   .     A
C555   O700    1.274   .     A
C555   C560    1.421   .     S
C555   O711    1.274   .     A
C556   O701    1.274   .     A
C556   C559    1.421   .     S
C556   O712    1.274   .     A
C557   C567    1.421   .     S
C557   O702    1.274   .     A
C557   O709    1.274   .     A
C558   O710    1.274   .     A
C558   O703    1.274   .     A
C558   C566    1.421   .     S
C559   C576    1.198   .     T
C560   C574    1.198   .     T
C561   C573    1.198   .     T
C562   C572    1.198   .     T
C563   C571    1.198   .     T
C564   O944    1.270   1_455 A
C564   C594    1.459   .     S
C564   O740    1.270   .     S
C565   C570    1.198   .     T
C566   C569    1.198   .     T
C567   C568    1.198   .     T
C573   C630    1.421   .     S
C575   O677    1.268   .     A
C575   C595    1.453   .     S
C575   O1019   1.268   1_455 S
C577   C862    1.405   .     A
C577   C607    1.412   .     A
C577   I657    2.153   .     S
C578   C609    1.411   .     A
C578   C595    1.400   .     S
C578   I933    2.150   1_455 S
C579   C610    1.412   .     A
C579   I666    2.153   .     S
C579   C60     1.405   1_565 S
C580   C611    1.411   .     A
C580   C598    1.400   .     S
C581   C603    1.412   .     A
C581   I668    2.153   .     S
C581   C594    1.405   .     S
C582   C863    1.400   .     A
C582   C604    1.411   .     A
C582   I937    2.150   .     S
C583   C605    1.412   .     A
C583   C596    1.405   .     A
C583   I670    2.153   .     S
C584   C62     1.400   1_565 A
C584   C606    1.411   .     A
C584   I135    2.150   1_565 S
C585   I672    2.150   .     S
C585   C616    1.411   .     A
C585   C599    1.400   .     S
C586   C601    1.453   .     S
C586   O678    1.268   .     S
C586   O682    1.268   .     S
C587   C617    1.412   .     A
C587   C64     1.405   1_565 A
C587   I658    2.153   .     S
C588   I659    2.150   .     S
C588   C618    1.411   .     A
C588   C869    1.400   .     A
C589   C620    1.412   .     A
C589   I660    2.153   .     S
C589   C602    1.405   .     S
C590   I661    2.150   .     S
C590   C63     1.400   1_565 A
C590   C612    1.411   .     A
C591   C613    1.412   .     A
C591   I662    2.153   .     S
C591   C600    1.405   .     S
C592   C614    1.411   .     A
C592   I663    2.150   .     S
C592   C601    1.400   .     S
C593   C615    1.412   .     A
C593   C870    1.405   .     A
C593   I664    2.153   .     S
C594   C845    1.405   1_455 A
C595   C850    1.400   1_455 A
C597   C602    1.459   .     S
C597   O679    1.270   .     S
C597   O683    1.270   .     S
C599   C608    1.453   .     S
C600   C619    1.459   .     S
C601   C856    1.400   1_455 A
C602   C861    1.405   1_455 A
C603   C621    1.420   .     A
C603   C629    1.415   .     A
C604   C631    1.413   .     A
C604   C890    1.420   .     S
C605   C623    1.420   .     A
C605   C632    1.415   .     A
C606   C633    1.413   .     A
C606   C88     1.420   1_565 A
C607   C634    1.415   .     A
C607   C889    1.420   .     S
C608   O680    1.268   .     A
C608   O684    1.268   .     A
C609   C635    1.413   .     A
C609   C622    1.420   .     A
C610   C636    1.415   .     A
C610   C87     1.420   1_565 S
C611   C637    1.413   .     A
C611   C624    1.420   .     S
C612   C89     1.420   1_565 A
C612   C638    1.413   .     A
C613   C639    1.415   .     A
C613   C626    1.420   .     S
C614   C640    1.413   .     A
C614   C627    1.420   .     S
C615   C896    1.420   .     A
C616   C625    1.420   .     S
C617   C90     1.420   1_565 A
C618   C895    1.420   .     A
C619   O681    1.270   .     A
C619   O686    1.270   .     A
C620   C628    1.420   .     S
C621   C622    1.413   .     A
C621   C875    1.420   1_455 S
C622   C872    1.420   1_455 S
C623   C624    1.412   .     S
C625   C626    1.412   1_556 S
C626   C625    1.412   1_554 S
C627   C886    1.420   1_455 A
C627   C628    1.413   1_556 S
C628   C883    1.420   1_455 A
C628   C627    1.413   1_554 S
C629   C635    1.399   .     A
C629   S1041   1.781   1_455 S
C630   O687    1.275   .     A
C630   O715    1.275   .     A
C631   C634    1.399   .     A
C631   S781    1.781   .     S
C632   C637    1.399   .     A
C633   S783    1.780   .     S
C633   C636    1.399   .     A
C634   S1052   1.781   .     S
C635   S785    1.781   .     S
C636   S250    1.782   1_565 S
C637   S787    1.780   .     S
C638   S788    1.780   .     S
C638   C541    1.399   1_556 S
C639   S774    1.782   .     S
C639   C540    1.399   1_554 S
C640   S775    1.781   .     S
C640   C543    1.399   1_556 S
H641   O724    0.991   .     S
H642   O754    0.991   .     S
H643   O757    0.991   .     S
H644   O760    0.991   .     S
H645   O764    0.991   .     S
H646   O767    0.991   .     S
H647   O770    0.991   .     S
H648   O675    0.991   .     S
H649   O727    0.991   .     S
H650   O731    0.991   .     S
H651   O734    0.991   .     S
H652   O737    0.991   .     S
H653   O741    0.991   .     S
H654   O744    0.991   .     S
H655   O747    0.991   .     S
H656   O750    0.991   .     S
I665   C846    2.150   .     S
I667   C44     2.150   1_565 S
I669   C850    2.150   1_455 S
O673   Zn789   1.933   .     S
O673   Zn792   1.933   .     S
O673   Zn800   1.933   .     S
O674   C17     1.268   1_565 A
O674   Zn791   1.944   .     S
O675   S780    1.683   .     S
O676   C832    1.270   .     A
O676   Zn794   1.944   .     S
O677   Zn793   1.944   .     S
O678   Zn803   1.944   .     S
O679   Zn802   1.944   .     S
O680   Zn797   1.944   .     S
O681   Zn789   1.944   .     S
O682   Zn799   1.944   .     S
O683   Zn798   1.944   .     S
O684   Zn801   1.944   .     S
O685   Zn801   1.933   .     S
O685   Zn797   1.933   .     S
O685   Zn795   1.933   .     S
O686   Zn800   1.944   .     S
O687   Zn792   1.914   .     S
O688   Zn791   1.914   .     S
O689   Zn794   1.914   .     S
O690   Zn793   1.914   .     S
O691   Zn796   1.914   .     S
O692   Zn795   1.914   .     S
O693   Zn790   1.914   .     S
O694   Zn804   1.914   .     S
O695   Zn791   1.914   .     S
O696   Zn802   1.933   .     S
O696   Zn790   1.933   .     S
O696   Zn798   1.933   .     S
O696   Zn1062  1.933   1_455 S
O697   Zn792   1.914   .     S
O698   Zn804   1.914   .     S
O699   Zn790   1.914   .     S
O700   Zn795   1.914   .     S
O701   Zn796   1.914   .     S
O702   Zn793   1.914   .     S
O703   Zn794   1.914   .     S
O704   Zn1067  1.914   .     S
O705   Zn798   1.914   .     S
O706   Zn265   1.914   1_565 S
O707   Zn803   1.933   .     S
O707   Zn1072  1.933   1_455 S
O707   Zn799   1.933   .     S
O707   Zn793   1.933   .     S
O708   Zn800   1.914   .     S
O709   Zn803   1.914   .     S
O710   Zn1070  1.914   .     S
O711   Zn797   1.914   .     S
O712   Zn253   1.914   1_565 S
O713   Zn1066  1.914   .     S
O714   Zn799   1.914   .     S
O715   Zn789   1.914   .     S
O716   Zn261   1.914   1_565 S
O717   Zn802   1.914   .     S
O718   C1      1.270   1_565 A
O718   Zn796   1.944   .     S
O719   Zn1071  1.914   .     S
O720   Zn264   1.914   1_565 S
O721   Zn801   1.914   .     S
O722   S1041   1.503   1_455 S
O723   S773    1.503   .     D
O724   S773    1.683   .     S
O725   S781    1.503   .     D
O726   S781    1.503   .     D
O727   S781    1.683   .     S
O729   Zn795   1.944   .     S
O730   S782    1.503   .     D
O731   S782    1.682   .     S
O732   S783    1.503   .     D
O733   S783    1.503   .     D
O734   S783    1.683   .     S
O735   S1052   1.503   .     S
O736   S784    1.503   .     D
O737   S784    1.683   .     S
O738   S785    1.503   .     D
O739   S785    1.503   .     D
O740   Zn790   1.944   .     S
O741   S785    1.683   .     S
O742   S250    1.503   1_565 S
O743   S786    1.503   .     D
O744   S786    1.682   .     S
O745   S787    1.503   .     D
O746   S787    1.503   .     D
O747   S787    1.683   .     S
O748   S788    1.503   .     D
O749   S788    1.503   .     D
O750   S788    1.683   .     S
O751   Zn804   1.944   .     S
O751   C843    1.268   .     S
O752   S774    1.503   .     D
O753   S774    1.503   .     D
O754   S774    1.682   .     S
O755   S775    1.503   .     D
O756   S775    1.503   .     D
O757   S775    1.683   .     S
O758   S776    1.503   .     D
O759   S776    1.503   .     D
O760   S776    1.683   .     S
O761   S777    1.503   .     D
O762   Zn792   1.944   .     S
O763   S777    1.503   .     D
O764   S777    1.683   .     S
O765   S778    1.503   .     D
O766   S778    1.503   .     D
O767   S778    1.682   .     S
O768   S779    1.503   .     D
O769   S779    1.503   .     D
O770   S779    1.683   .     S
O771   S780    1.503   .     D
O772   S780    1.503   .     D
S773   C897    1.781   .     S
S773   O990    1.503   .     S
S782   C96     1.782   1_565 S
S782   O192    1.503   1_565 S
S784   C902    1.781   1_455 S
S784   O1003   1.503   1_455 S
Zn791  O149    1.933   1_565 S
Zn794  O964    1.933   .     S
Zn796  O137    1.933   1_565 S
Zn798  O981    1.914   1_455 S
Zn799  O972    1.914   1_455 S
Zn802  O978    1.914   1_455 S
Zn803  O987    1.914   1_455 S
Zn804  O975    1.933   .     S
C805   C864    1.459   .     S
C805   O1030   1.270   .     S
C806   O984    1.274   .     A
C806   O956    1.274   .     A
C806   C840    1.421   .     S
C807   C883    1.415   .     A
C807   S1044   1.781   .     S
C807   C810    1.399   1_554 S
C808   C884    1.413   .     A
C808   S1045   1.780   .     S
C808   C907    1.399   1_556 S
C809   C885    1.415   .     A
C809   S1046   1.782   .     S
C809   C906    1.399   1_554 S
C810   C886    1.413   .     A
C810   S1047   1.781   .     S
C810   C807    1.399   1_556 S
C811   S1048   1.781   .     S
C811   C888    1.415   .     A
C811   C908    1.399   1_554 S
C812   O981    1.275   .     A
C812   C839    1.421   .     S
C812   O957    1.275   .     A
C813   O982    1.274   .     A
C813   C838    1.421   .     S
C813   O958    1.274   .     A
C814   O959    1.275   .     A
C814   C837    1.421   .     S
C814   O988    1.275   .     A
C815   C836    1.421   .     S
C815   O989    1.274   .     A
C815   O960    1.274   .     A
C816   O985    1.275   .     A
C816   O961    1.275   .     A
C816   C844    1.421   .     S
C817   O987    1.274   .     A
C817   C842    1.421   .     S
C817   O962    1.274   .     A
C818   O974    1.274   .     A
C818   C833    1.421   .     S
C818   O963    1.274   .     A
C819   C831    1.421   .     S
C819   O965    1.274   .     A
C819   O976    1.274   .     A
C820   C830    1.421   .     S
C820   O966    1.274   .     A
C820   O972    1.274   .     A
C821   C866    1.453   .     S
C821   O997    1.268   .     S
C822   C829    1.421   .     S
C822   O967    1.274   .     A
C822   O973    1.274   .     A
C823   O968    1.274   .     A
C823   C828    1.421   .     S
C823   O979    1.274   .     A
C824   O969    1.274   .     A
C824   C827    1.421   .     S
C824   O980    1.274   .     A
C825   C835    1.421   .     S
C825   O970    1.274   .     A
C825   O977    1.274   .     A
C826   O978    1.274   .     A
C826   O971    1.274   .     A
C826   C834    1.421   .     S
C827   C844    1.198   .     T
C828   C842    1.198   .     T
C829   C841    1.198   .     T
C830   C840    1.198   .     T
C831   C839    1.198   .     T
C832   C862    1.459   .     S
C832   O1008   1.270   .     S
C833   C838    1.198   .     T
C834   C837    1.198   .     T
C835   C836    1.198   .     T
C841   C898    1.421   .     S
C843   O945    1.268   .     A
C843   C863    1.453   .     S
C845   C594    1.405   1_655 A
C845   C875    1.412   .     A
C845   I925    2.153   .     S
C846   C877    1.411   .     A
C846   C863    1.400   .     S
C847   C878    1.412   .     A
C847   I934    2.153   .     S
C847   C328    1.405   1_565 S
C848   C879    1.411   .     A
C848   C866    1.400   .     S
C849   C871    1.412   .     A
C849   I936    2.153   .     S
C849   C862    1.405   .     S
C850   C595    1.400   1_655 A
C850   C872    1.411   .     A
C850   I669    2.150   1_655 S
C851   C873    1.412   .     A
C851   C864    1.405   .     A
C851   I938    2.153   .     S
C852   C330    1.400   1_565 A
C852   C874    1.411   .     A
C852   I403    2.150   1_565 S
C853   I940    2.150   .     S
C853   C884    1.411   .     A
C853   C867    1.400   .     S
C854   C869    1.453   .     S
C854   O946    1.268   .     S
C854   O950    1.268   .     S
C855   C885    1.412   .     A
C855   C332    1.405   1_565 A
C855   I926    2.153   .     S
C856   I927    2.150   .     S
C856   C886    1.411   .     A
C856   C601    1.400   1_655 A
C857   C888    1.412   .     A
C857   I928    2.153   .     S
C857   C870    1.405   .     S
C858   I929    2.150   .     S
C858   C331    1.400   1_565 A
C858   C880    1.411   .     A
C859   C881    1.412   .     A
C859   I930    2.153   .     S
C859   C868    1.405   .     S
C860   C882    1.411   .     A
C860   I931    2.150   .     S
C860   C869    1.400   .     S
C861   C883    1.412   .     A
C861   C602    1.405   1_655 A
C861   I932    2.153   .     S
C865   C870    1.459   .     S
C865   O947    1.270   .     S
C865   O951    1.270   .     S
C867   C876    1.453   .     S
C868   C887    1.459   .     S
C871   C889    1.420   .     A
C871   C897    1.415   .     A
C872   C899    1.413   .     A
C872   C622    1.420   1_655 S
C873   C891    1.420   .     A
C873   C900    1.415   .     A
C874   C901    1.413   .     A
C874   C356    1.420   1_565 A
C875   C902    1.415   .     A
C875   C621    1.420   1_655 S
C876   O948    1.268   .     A
C876   O952    1.268   .     A
C877   C903    1.413   .     A
C877   C890    1.420   .     A
C878   C904    1.415   .     A
C878   C355    1.420   1_565 S
C879   C905    1.413   .     A
C879   C892    1.420   .     S
C880   C357    1.420   1_565 A
C880   C906    1.413   .     A
C881   C907    1.415   .     A
C881   C894    1.420   .     S
C882   C908    1.413   .     A
C882   C895    1.420   .     S
C883   C628    1.420   1_655 A
C884   C893    1.420   .     S
C885   C358    1.420   1_565 A
C886   C627    1.420   1_655 A
C887   O949    1.270   .     A
C887   O954    1.270   .     A
C888   C896    1.420   .     S
C889   C890    1.413   .     A
C891   C892    1.412   .     S
C893   C894    1.412   1_556 S
C894   C893    1.412   1_554 S
C895   C896    1.413   1_556 S
C896   C895    1.413   1_554 S
C897   C903    1.399   .     A
C898   O955    1.275   .     A
C898   O983    1.275   .     A
C899   C902    1.399   .     A
C899   S1049   1.781   .     S
C900   C905    1.399   .     A
C901   S1051   1.780   .     S
C901   C904    1.399   .     A
C902   S784    1.781   1_655 S
C903   S1053   1.781   .     S
C904   S518    1.782   1_565 S
C905   S1055   1.780   .     S
C906   S1056   1.780   .     S
C906   C809    1.399   1_556 S
C907   S1042   1.782   .     S
C907   C808    1.399   1_554 S
C908   S1043   1.781   .     S
C908   C811    1.399   1_556 S
H909   O992    0.991   .     S
H910   O1022   0.991   .     S
H911   O1025   0.991   .     S
H912   O1028   0.991   .     S
H913   O1032   0.991   .     S
H914   O1035   0.991   .     S
H915   O1038   0.991   .     S
H916   O943    0.991   .     S
H917   O995    0.991   .     S
H918   O999    0.991   .     S
H919   O1002   0.991   .     S
H920   O1005   0.991   .     S
H921   O1009   0.991   .     S
H922   O1012   0.991   .     S
H923   O1015   0.991   .     S
H924   O1018   0.991   .     S
I933   C578    2.150   1_655 S
I935   C312    2.150   1_565 S
O941   Zn1057  1.933   .     S
O941   Zn1060  1.933   .     S
O941   Zn1068  1.933   .     S
O942   C285    1.268   1_565 A
O942   Zn1059  1.944   .     S
O943   S1048   1.683   .     S
O944   C564    1.270   1_655 A
O944   Zn1062  1.944   .     S
O945   Zn1061  1.944   .     S
O946   Zn1071  1.944   .     S
O947   Zn1070  1.944   .     S
O948   Zn1065  1.944   .     S
O949   Zn1057  1.944   .     S
O950   Zn1067  1.944   .     S
O951   Zn1066  1.944   .     S
O952   Zn1069  1.944   .     S
O953   Zn1069  1.933   .     S
O953   Zn1065  1.933   .     S
O953   Zn1063  1.933   .     S
O954   Zn1068  1.944   .     S
O955   Zn1060  1.914   .     S
O956   Zn1059  1.914   .     S
O957   Zn1062  1.914   .     S
O958   Zn1061  1.914   .     S
O959   Zn1064  1.914   .     S
O960   Zn1063  1.914   .     S
O961   Zn1058  1.914   .     S
O962   Zn1072  1.914   .     S
O963   Zn1059  1.914   .     S
O964   Zn1070  1.933   .     S
O964   Zn1058  1.933   .     S
O964   Zn1066  1.933   .     S
O965   Zn1060  1.914   .     S
O966   Zn1072  1.914   .     S
O967   Zn1058  1.914   .     S
O968   Zn1063  1.914   .     S
O969   Zn1064  1.914   .     S
O970   Zn1061  1.914   .     S
O971   Zn1062  1.914   .     S
O972   Zn799   1.914   1_655 S
O973   Zn1066  1.914   .     S
O974   Zn533   1.914   1_565 S
O975   Zn1071  1.933   .     S
O975   Zn1067  1.933   .     S
O975   Zn1061  1.933   .     S
O976   Zn1068  1.914   .     S
O977   Zn1071  1.914   .     S
O978   Zn802   1.914   1_655 S
O979   Zn1065  1.914   .     S
O980   Zn521   1.914   1_565 S
O981   Zn798   1.914   1_655 S
O982   Zn1067  1.914   .     S
O983   Zn1057  1.914   .     S
O984   Zn529   1.914   1_565 S
O985   Zn1070  1.914   .     S
O986   C269    1.270   1_565 A
O986   Zn1064  1.944   .     S
O987   Zn803   1.914   1_655 S
O988   Zn532   1.914   1_565 S
O989   Zn1069  1.914   .     S
O991   S1041   1.503   .     D
O992   S1041   1.683   .     S
O993   S1049   1.503   .     D
O994   S1049   1.503   .     D
O995   S1049   1.683   .     S
O997   Zn1063  1.944   .     S
O998   S1050   1.503   .     D
O999   S1050   1.682   .     S
O1000  S1051   1.503   .     D
O1001  S1051   1.503   .     D
O1002  S1051   1.683   .     S
O1003  S784    1.503   1_655 S
O1004  S1052   1.503   .     D
O1005  S1052   1.683   .     S
O1006  S1053   1.503   .     D
O1007  S1053   1.503   .     D
O1008  Zn1058  1.944   .     S
O1009  S1053   1.683   .     S
O1010  S518    1.503   1_565 S
O1011  S1054   1.503   .     D
O1012  S1054   1.682   .     S
O1013  S1055   1.503   .     D
O1014  S1055   1.503   .     D
O1015  S1055   1.683   .     S
O1016  S1056   1.503   .     D
O1017  S1056   1.503   .     D
O1018  S1056   1.683   .     S
O1019  Zn1072  1.944   .     S
O1019  C575    1.268   1_655 S
O1020  S1042   1.503   .     D
O1021  S1042   1.503   .     D
O1022  S1042   1.682   .     S
O1023  S1043   1.503   .     D
O1024  S1043   1.503   .     D
O1025  S1043   1.683   .     S
O1026  S1044   1.503   .     D
O1027  S1044   1.503   .     D
O1028  S1044   1.683   .     S
O1029  S1045   1.503   .     D
O1030  Zn1060  1.944   .     S
O1031  S1045   1.503   .     D
O1032  S1045   1.683   .     S
O1033  S1046   1.503   .     D
O1034  S1046   1.503   .     D
O1035  S1046   1.682   .     S
O1036  S1047   1.503   .     D
O1037  S1047   1.503   .     D
O1038  S1047   1.683   .     S
O1039  S1048   1.503   .     D
O1040  S1048   1.503   .     D
S1041  C629    1.781   1_655 S
S1041  O722    1.503   1_655 S
S1050  C364    1.782   1_565 S
S1050  O460    1.503   1_565 S
Zn1059 O417    1.933   1_565 S
Zn1062 O696    1.933   1_655 S
Zn1064 O405    1.933   1_565 S
Zn1072 O707    1.933   1_655 S
