data_str_m1_o10_o18_pcu_sym.128
_audit_creation_date              2020-01-03
_audit_creation_method            'Materials Studio'
_symmetry_space_group_name_H-M    'P1'
_symmetry_Int_Tables_number       1
_symmetry_cell_setting            triclinic
loop_
_symmetry_equiv_pos_as_xyz
  x,y,z
_cell_length_a                    32.5598
_cell_length_b                    32.5636
_cell_length_c                    35.7981
_cell_angle_alpha                 98.3233
_cell_angle_beta                  72.9088
_cell_angle_gamma                 99.0239
loop_
_atom_site_label
_atom_site_type_symbol
_atom_site_fract_x
_atom_site_fract_y
_atom_site_fract_z
_atom_site_U_iso_or_equiv
_atom_site_adp_type
_atom_site_occupancy
C1     C     0.05246   0.15969   0.25884   0.00000  Uiso   1.00
C2     C     0.19008   0.12604   0.46158   0.00000  Uiso   1.00
C3     C     0.20854   0.10435   0.48177   0.00000  Uiso   1.00
C4     C     0.28110   0.17400   0.24133   0.00000  Uiso   1.00
C5     C     0.20396   0.11522   0.02172   0.00000  Uiso   1.00
C6     C     0.17989   0.14835   0.04223   0.00000  Uiso   1.00
C7     C     0.22228   0.09229   0.04154   0.00000  Uiso   1.00
C8     C     0.21605   0.10094   0.08207   0.00000  Uiso   1.00
C9     C     0.18054   0.16146   0.08168   0.00000  Uiso   1.00
C10    C     0.32731   0.17825   0.23840   0.00000  Uiso   1.00
C11    C     0.00720   0.15743   0.26155   0.00000  Uiso   1.00
C12    C     0.09828   0.21442   0.42056   0.00000  Uiso   1.00
C13    C     0.18326   0.32289   0.23903   0.00000  Uiso   1.00
C14    C     0.15173   0.01188   0.26102   0.00000  Uiso   1.00
C15    C     0.15520   0.05620   0.25931   0.00000  Uiso   1.00
C16    C     0.17732   0.27783   0.24145   0.00000  Uiso   1.00
C17    C     0.18827   0.14511   0.14406   0.00000  Uiso   1.00
C18    C     0.14573   0.18803   0.35607   0.00000  Uiso   1.00
C19    C     0.13504   0.19538   0.39927   0.00000  Uiso   1.00
C20    C     0.19628   0.13629   0.10169   0.00000  Uiso   1.00
C21    C     0.08632   0.21967   0.46167   0.00000  Uiso   1.00
C22    C     0.02478   0.24365   0.22378   0.00000  Uiso   1.00
C23    C     0.16085   0.18204   0.41932   0.00000  Uiso   1.00
C24    C     0.22437   0.01011   0.21244   0.00000  Uiso   1.00
C25    C     0.19922   0.23161   0.08977   0.00000  Uiso   1.00
C26    C     0.20870   0.03742   0.10433   0.00000  Uiso   1.00
C27    C     0.04750   0.24219   0.48299   0.00000  Uiso   1.00
C28    C     0.23189   0.20787   0.40118   0.00000  Uiso   1.00
C29    C     0.14566   0.18077   0.46052   0.00000  Uiso   1.00
C30    C     0.11002   0.20266   0.48196   0.00000  Uiso   1.00
C31    C     0.16527   0.15874   0.48095   0.00000  Uiso   1.00
C32    C     0.15647   0.16682   0.02241   0.00000  Uiso   1.00
C33    C     0.12176   0.18966   0.04289   0.00000  Uiso   1.00
C34    C     0.09854   0.20645   0.02314   0.00000  Uiso   1.00
H35    H     0.07140   0.22243   0.04070   0.00000  Uiso   1.00
H36    H     0.32676   0.25521   0.22693   0.00000  Uiso   1.00
H37    H     0.05008   0.26148   0.20191   0.00000  Uiso   1.00
H38    H     0.24664   0.32048   0.19563   0.00000  Uiso   1.00
H39    H     0.21625   0.02670   0.19106   0.00000  Uiso   1.00
H40    H     0.24191   0.03299   0.23031   0.00000  Uiso   1.00
H41    H     0.20607   0.23512   0.05799   0.00000  Uiso   1.00
H42    H     0.22938   0.22724   0.09661   0.00000  Uiso   1.00
H43    H     0.18825   0.26121   0.10653   0.00000  Uiso   1.00
H44    H     0.21233   0.01965   0.07481   0.00000  Uiso   1.00
H45    H     0.17388   0.03958   0.11969   0.00000  Uiso   1.00
H46    H     0.24037   0.06683   0.02578   0.00000  Uiso   1.00
H47    H     0.22128   0.01929   0.12159   0.00000  Uiso   1.00
H48    H     0.03295   0.25311   0.46232   0.00000  Uiso   1.00
H49    H     0.02223   0.22086   0.00154   0.00000  Uiso   1.00
H50    H     0.05729   0.27004   0.00173   0.00000  Uiso   1.00
H51    H     0.23282   0.21734   0.43210   0.00000  Uiso   1.00
H52    H     0.22481   0.23439   0.38855   0.00000  Uiso   1.00
H53    H     0.26459   0.20020   0.38387   0.00000  Uiso   1.00
H54    H     0.31793   0.13831   0.28297   0.00000  Uiso   1.00
H55    H     0.12168   0.33048   0.27922   0.00000  Uiso   1.00
H56    H     0.22626   0.07864   0.46602   0.00000  Uiso   1.00
H57    H     0.07885   0.22545   0.40502   0.00000  Uiso   1.00
H58    H     0.10949   0.19215   0.07447   0.00000  Uiso   1.00
H59    H     0.19282   0.11435   0.43127   0.00000  Uiso   1.00
H60    H     0.03345   0.25025   0.25210   0.00000  Uiso   1.00
O61    O     0.16667   0.16667   0.25000   0.00000  Uiso   1.00
O62    O     0.15693   0.12393   0.16625   0.00000  Uiso   1.00
O63    O     0.12687   0.20646   0.33749   0.00000  Uiso   1.00
O64    O     0.21088   0.17493   0.15877   0.00000  Uiso   1.00
O65    O     0.17198   0.16135   0.33749   0.00000  Uiso   1.00
O66    O     0.02380   0.20078   0.21005   0.00000  Uiso   1.00
O67    O     0.16614   0.19861   0.10134   0.00000  Uiso   1.00
O68    O     0.23281   0.07741   0.10207   0.00000  Uiso   1.00
O69    O     0.20178   0.17216   0.39847   0.00000  Uiso   1.00
O70    O     0.17849   0.08101   0.27820   0.00000  Uiso   1.00
O71    O     0.14581   0.26136   0.26767   0.00000  Uiso   1.00
O72    O     0.07452   0.13251   0.23607   0.00000  Uiso   1.00
O73    O     0.26785   0.19179   0.21805   0.00000  Uiso   1.00
O74    O     0.06990   0.18960   0.27820   0.00000  Uiso   1.00
O75    O     0.25440   0.15277   0.26767   0.00000  Uiso   1.00
O76    O     0.13800   0.06903   0.23607   0.00000  Uiso   1.00
O77    O     0.20437   0.25527   0.21805   0.00000  Uiso   1.00
Zn78   Zn    0.19244   0.14090   0.28277   0.00000  Uiso   1.00
Zn79   Zn    0.13459   0.12378   0.22257   0.00000  Uiso   1.00
Zn80   Zn    0.21166   0.19664   0.21188   0.00000  Uiso   1.00
Zn81   Zn    0.12798   0.20535   0.28277   0.00000  Uiso   1.00
C82    C     0.38579   0.15969   0.25884   0.00000  Uiso   1.00
C83    C     0.52341   0.12604   0.46158   0.00000  Uiso   1.00
C84    C     0.54187   0.10435   0.48177   0.00000  Uiso   1.00
C85    C     0.61443   0.17400   0.24133   0.00000  Uiso   1.00
C86    C     0.53729   0.11522   0.02172   0.00000  Uiso   1.00
C87    C     0.51322   0.14835   0.04223   0.00000  Uiso   1.00
C88    C     0.55561   0.09229   0.04154   0.00000  Uiso   1.00
C89    C     0.54938   0.10094   0.08207   0.00000  Uiso   1.00
C90    C     0.51387   0.16146   0.08168   0.00000  Uiso   1.00
C91    C     0.66064   0.17825   0.23840   0.00000  Uiso   1.00
C92    C     0.34053   0.15743   0.26155   0.00000  Uiso   1.00
C93    C     0.43161   0.21442   0.42056   0.00000  Uiso   1.00
C94    C     0.51659   0.32289   0.23903   0.00000  Uiso   1.00
C95    C     0.48506   0.01188   0.26102   0.00000  Uiso   1.00
C96    C     0.48854   0.05620   0.25931   0.00000  Uiso   1.00
C97    C     0.51065   0.27783   0.24145   0.00000  Uiso   1.00
C98    C     0.52161   0.14511   0.14406   0.00000  Uiso   1.00
C99    C     0.47906   0.18803   0.35607   0.00000  Uiso   1.00
C100   C     0.46838   0.19538   0.39927   0.00000  Uiso   1.00
C101   C     0.52962   0.13629   0.10169   0.00000  Uiso   1.00
C102   C     0.41965   0.21967   0.46167   0.00000  Uiso   1.00
C103   C     0.35811   0.24365   0.22378   0.00000  Uiso   1.00
C104   C     0.49418   0.18204   0.41932   0.00000  Uiso   1.00
C105   C     0.55771   0.01011   0.21244   0.00000  Uiso   1.00
C106   C     0.53255   0.23161   0.08977   0.00000  Uiso   1.00
C107   C     0.54203   0.03742   0.10433   0.00000  Uiso   1.00
C108   C     0.38083   0.24219   0.48299   0.00000  Uiso   1.00
C109   C     0.56523   0.20787   0.40118   0.00000  Uiso   1.00
C110   C     0.47899   0.18077   0.46052   0.00000  Uiso   1.00
C111   C     0.44335   0.20266   0.48196   0.00000  Uiso   1.00
C112   C     0.49860   0.15874   0.48095   0.00000  Uiso   1.00
C113   C     0.48980   0.16682   0.02241   0.00000  Uiso   1.00
C114   C     0.45509   0.18966   0.04289   0.00000  Uiso   1.00
C115   C     0.43187   0.20645   0.02314   0.00000  Uiso   1.00
H116   H     0.40473   0.22243   0.04070   0.00000  Uiso   1.00
H117   H     0.66009   0.25521   0.22693   0.00000  Uiso   1.00
H118   H     0.38341   0.26148   0.20191   0.00000  Uiso   1.00
H119   H     0.57998   0.32048   0.19563   0.00000  Uiso   1.00
H120   H     0.54958   0.02670   0.19106   0.00000  Uiso   1.00
H121   H     0.57524   0.03299   0.23031   0.00000  Uiso   1.00
H122   H     0.53940   0.23512   0.05799   0.00000  Uiso   1.00
H123   H     0.56272   0.22724   0.09661   0.00000  Uiso   1.00
H124   H     0.52158   0.26121   0.10653   0.00000  Uiso   1.00
H125   H     0.54566   0.01965   0.07481   0.00000  Uiso   1.00
H126   H     0.50722   0.03958   0.11969   0.00000  Uiso   1.00
H127   H     0.57371   0.06683   0.02578   0.00000  Uiso   1.00
H128   H     0.55462   0.01929   0.12159   0.00000  Uiso   1.00
H129   H     0.36628   0.25311   0.46232   0.00000  Uiso   1.00
H130   H     0.35556   0.22086   0.00154   0.00000  Uiso   1.00
H131   H     0.39062   0.27004   0.00173   0.00000  Uiso   1.00
H132   H     0.56615   0.21734   0.43210   0.00000  Uiso   1.00
H133   H     0.55814   0.23439   0.38855   0.00000  Uiso   1.00
H134   H     0.59792   0.20020   0.38387   0.00000  Uiso   1.00
H135   H     0.65127   0.13831   0.28297   0.00000  Uiso   1.00
H136   H     0.45501   0.33048   0.27922   0.00000  Uiso   1.00
H137   H     0.55959   0.07864   0.46602   0.00000  Uiso   1.00
H138   H     0.41218   0.22545   0.40502   0.00000  Uiso   1.00
H139   H     0.44282   0.19215   0.07447   0.00000  Uiso   1.00
H140   H     0.52616   0.11435   0.43127   0.00000  Uiso   1.00
H141   H     0.36679   0.25025   0.25210   0.00000  Uiso   1.00
O142   O     0.50000   0.16667   0.25000   0.00000  Uiso   1.00
O143   O     0.49027   0.12393   0.16625   0.00000  Uiso   1.00
O144   O     0.46020   0.20646   0.33749   0.00000  Uiso   1.00
O145   O     0.54421   0.17493   0.15877   0.00000  Uiso   1.00
O146   O     0.50532   0.16135   0.33749   0.00000  Uiso   1.00
O147   O     0.35713   0.20078   0.21005   0.00000  Uiso   1.00
O148   O     0.49947   0.19861   0.10134   0.00000  Uiso   1.00
O149   O     0.56615   0.07741   0.10207   0.00000  Uiso   1.00
O150   O     0.53512   0.17216   0.39847   0.00000  Uiso   1.00
O151   O     0.51182   0.08101   0.27820   0.00000  Uiso   1.00
O152   O     0.47914   0.26136   0.26767   0.00000  Uiso   1.00
O153   O     0.40785   0.13251   0.23607   0.00000  Uiso   1.00
O154   O     0.60119   0.19179   0.21805   0.00000  Uiso   1.00
O155   O     0.40323   0.18960   0.27820   0.00000  Uiso   1.00
O156   O     0.58773   0.15277   0.26767   0.00000  Uiso   1.00
O157   O     0.47133   0.06903   0.23607   0.00000  Uiso   1.00
O158   O     0.53771   0.25527   0.21805   0.00000  Uiso   1.00
Zn159  Zn    0.52577   0.14090   0.28277   0.00000  Uiso   1.00
Zn160  Zn    0.46792   0.12378   0.22257   0.00000  Uiso   1.00
Zn161  Zn    0.54500   0.19664   0.21188   0.00000  Uiso   1.00
Zn162  Zn    0.46131   0.20535   0.28277   0.00000  Uiso   1.00
C163   C     0.71912   0.15969   0.25884   0.00000  Uiso   1.00
C164   C     0.85674   0.12604   0.46158   0.00000  Uiso   1.00
C165   C     0.87521   0.10435   0.48177   0.00000  Uiso   1.00
C166   C     0.94776   0.17400   0.24133   0.00000  Uiso   1.00
C167   C     0.87063   0.11522   0.02172   0.00000  Uiso   1.00
C168   C     0.84656   0.14835   0.04223   0.00000  Uiso   1.00
C169   C     0.88894   0.09229   0.04154   0.00000  Uiso   1.00
C170   C     0.88271   0.10094   0.08207   0.00000  Uiso   1.00
C171   C     0.84721   0.16146   0.08168   0.00000  Uiso   1.00
C172   C     0.99398   0.17825   0.23840   0.00000  Uiso   1.00
C173   C     0.67386   0.15743   0.26155   0.00000  Uiso   1.00
C174   C     0.76494   0.21442   0.42056   0.00000  Uiso   1.00
C175   C     0.84992   0.32289   0.23903   0.00000  Uiso   1.00
C176   C     0.81839   0.01188   0.26102   0.00000  Uiso   1.00
C177   C     0.82187   0.05620   0.25931   0.00000  Uiso   1.00
C178   C     0.84399   0.27783   0.24145   0.00000  Uiso   1.00
C179   C     0.85494   0.14511   0.14406   0.00000  Uiso   1.00
C180   C     0.81240   0.18803   0.35607   0.00000  Uiso   1.00
C181   C     0.80171   0.19538   0.39927   0.00000  Uiso   1.00
C182   C     0.86295   0.13629   0.10169   0.00000  Uiso   1.00
C183   C     0.75299   0.21967   0.46167   0.00000  Uiso   1.00
C184   C     0.69144   0.24365   0.22378   0.00000  Uiso   1.00
C185   C     0.82751   0.18204   0.41932   0.00000  Uiso   1.00
C186   C     0.89104   0.01011   0.21244   0.00000  Uiso   1.00
C187   C     0.86589   0.23161   0.08977   0.00000  Uiso   1.00
C188   C     0.87537   0.03742   0.10433   0.00000  Uiso   1.00
C189   C     0.71416   0.24219   0.48299   0.00000  Uiso   1.00
C190   C     0.89856   0.20787   0.40118   0.00000  Uiso   1.00
C191   C     0.81232   0.18077   0.46052   0.00000  Uiso   1.00
C192   C     0.77669   0.20266   0.48196   0.00000  Uiso   1.00
C193   C     0.83193   0.15874   0.48095   0.00000  Uiso   1.00
C194   C     0.82313   0.16682   0.02241   0.00000  Uiso   1.00
C195   C     0.78843   0.18966   0.04289   0.00000  Uiso   1.00
C196   C     0.76520   0.20645   0.02314   0.00000  Uiso   1.00
H197   H     0.73806   0.22243   0.04070   0.00000  Uiso   1.00
H198   H     0.99343   0.25521   0.22693   0.00000  Uiso   1.00
H199   H     0.71675   0.26148   0.20191   0.00000  Uiso   1.00
H200   H     0.91331   0.32048   0.19563   0.00000  Uiso   1.00
H201   H     0.88291   0.02670   0.19106   0.00000  Uiso   1.00
H202   H     0.90857   0.03299   0.23031   0.00000  Uiso   1.00
H203   H     0.87273   0.23512   0.05799   0.00000  Uiso   1.00
H204   H     0.89605   0.22724   0.09661   0.00000  Uiso   1.00
H205   H     0.85492   0.26121   0.10653   0.00000  Uiso   1.00
H206   H     0.87900   0.01965   0.07481   0.00000  Uiso   1.00
H207   H     0.84055   0.03958   0.11969   0.00000  Uiso   1.00
H208   H     0.90704   0.06683   0.02578   0.00000  Uiso   1.00
H209   H     0.88795   0.01929   0.12159   0.00000  Uiso   1.00
H210   H     0.69962   0.25311   0.46232   0.00000  Uiso   1.00
H211   H     0.68890   0.22086   0.00154   0.00000  Uiso   1.00
H212   H     0.72396   0.27004   0.00173   0.00000  Uiso   1.00
H213   H     0.89949   0.21734   0.43210   0.00000  Uiso   1.00
H214   H     0.89148   0.23439   0.38855   0.00000  Uiso   1.00
H215   H     0.93125   0.20020   0.38387   0.00000  Uiso   1.00
H216   H     0.98460   0.13831   0.28297   0.00000  Uiso   1.00
H217   H     0.78835   0.33048   0.27922   0.00000  Uiso   1.00
H218   H     0.89293   0.07864   0.46602   0.00000  Uiso   1.00
H219   H     0.74552   0.22545   0.40502   0.00000  Uiso   1.00
H220   H     0.77616   0.19215   0.07447   0.00000  Uiso   1.00
H221   H     0.85949   0.11435   0.43127   0.00000  Uiso   1.00
H222   H     0.70012   0.25025   0.25210   0.00000  Uiso   1.00
O223   O     0.83333   0.16667   0.25000   0.00000  Uiso   1.00
O224   O     0.82360   0.12393   0.16625   0.00000  Uiso   1.00
O225   O     0.79354   0.20646   0.33749   0.00000  Uiso   1.00
O226   O     0.87755   0.17493   0.15877   0.00000  Uiso   1.00
O227   O     0.83865   0.16135   0.33749   0.00000  Uiso   1.00
O228   O     0.69047   0.20078   0.21005   0.00000  Uiso   1.00
O229   O     0.83281   0.19861   0.10134   0.00000  Uiso   1.00
O230   O     0.89948   0.07741   0.10207   0.00000  Uiso   1.00
O231   O     0.86845   0.17216   0.39847   0.00000  Uiso   1.00
O232   O     0.84515   0.08101   0.27820   0.00000  Uiso   1.00
O233   O     0.81247   0.26136   0.26767   0.00000  Uiso   1.00
O234   O     0.74119   0.13251   0.23607   0.00000  Uiso   1.00
O235   O     0.93452   0.19179   0.21805   0.00000  Uiso   1.00
O236   O     0.73656   0.18960   0.27820   0.00000  Uiso   1.00
O237   O     0.92106   0.15277   0.26767   0.00000  Uiso   1.00
O238   O     0.80467   0.06903   0.23607   0.00000  Uiso   1.00
O239   O     0.87104   0.25527   0.21805   0.00000  Uiso   1.00
Zn240  Zn    0.85910   0.14090   0.28277   0.00000  Uiso   1.00
Zn241  Zn    0.80125   0.12378   0.22257   0.00000  Uiso   1.00
Zn242  Zn    0.87833   0.19664   0.21188   0.00000  Uiso   1.00
Zn243  Zn    0.79465   0.20535   0.28277   0.00000  Uiso   1.00
C244   C     0.05246   0.49302   0.25884   0.00000  Uiso   1.00
C245   C     0.19008   0.45937   0.46158   0.00000  Uiso   1.00
C246   C     0.20854   0.43769   0.48177   0.00000  Uiso   1.00
C247   C     0.28110   0.50733   0.24133   0.00000  Uiso   1.00
C248   C     0.20396   0.44855   0.02172   0.00000  Uiso   1.00
C249   C     0.17989   0.48168   0.04223   0.00000  Uiso   1.00
C250   C     0.22228   0.42562   0.04154   0.00000  Uiso   1.00
C251   C     0.21605   0.43427   0.08207   0.00000  Uiso   1.00
C252   C     0.18054   0.49479   0.08168   0.00000  Uiso   1.00
C253   C     0.32731   0.51158   0.23840   0.00000  Uiso   1.00
C254   C     0.00720   0.49077   0.26155   0.00000  Uiso   1.00
C255   C     0.09828   0.54776   0.42056   0.00000  Uiso   1.00
C256   C     0.18326   0.65622   0.23903   0.00000  Uiso   1.00
C257   C     0.15173   0.34521   0.26102   0.00000  Uiso   1.00
C258   C     0.15520   0.38954   0.25931   0.00000  Uiso   1.00
C259   C     0.17732   0.61117   0.24145   0.00000  Uiso   1.00
C260   C     0.18827   0.47844   0.14406   0.00000  Uiso   1.00
C261   C     0.14573   0.52137   0.35607   0.00000  Uiso   1.00
C262   C     0.13504   0.52871   0.39927   0.00000  Uiso   1.00
C263   C     0.19628   0.46963   0.10169   0.00000  Uiso   1.00
C264   C     0.08632   0.55300   0.46167   0.00000  Uiso   1.00
C265   C     0.02478   0.57699   0.22378   0.00000  Uiso   1.00
C266   C     0.16085   0.51537   0.41932   0.00000  Uiso   1.00
C267   C     0.22437   0.34345   0.21244   0.00000  Uiso   1.00
C268   C     0.19922   0.56495   0.08977   0.00000  Uiso   1.00
C269   C     0.20870   0.37075   0.10433   0.00000  Uiso   1.00
C270   C     0.04750   0.57552   0.48299   0.00000  Uiso   1.00
C271   C     0.23189   0.54120   0.40118   0.00000  Uiso   1.00
C272   C     0.14566   0.51410   0.46052   0.00000  Uiso   1.00
C273   C     0.11002   0.53599   0.48196   0.00000  Uiso   1.00
C274   C     0.16527   0.49207   0.48095   0.00000  Uiso   1.00
C275   C     0.15647   0.50015   0.02241   0.00000  Uiso   1.00
C276   C     0.12176   0.52300   0.04289   0.00000  Uiso   1.00
C277   C     0.09854   0.53978   0.02314   0.00000  Uiso   1.00
H278   H     0.07140   0.55577   0.04070   0.00000  Uiso   1.00
H279   H     0.32676   0.58854   0.22693   0.00000  Uiso   1.00
H280   H     0.05008   0.59481   0.20191   0.00000  Uiso   1.00
H281   H     0.24664   0.65382   0.19563   0.00000  Uiso   1.00
H282   H     0.21625   0.36003   0.19106   0.00000  Uiso   1.00
H283   H     0.24191   0.36632   0.23031   0.00000  Uiso   1.00
H284   H     0.20607   0.56845   0.05799   0.00000  Uiso   1.00
H285   H     0.22938   0.56057   0.09661   0.00000  Uiso   1.00
H286   H     0.18825   0.59454   0.10653   0.00000  Uiso   1.00
H287   H     0.21233   0.35299   0.07481   0.00000  Uiso   1.00
H288   H     0.17388   0.37291   0.11969   0.00000  Uiso   1.00
H289   H     0.24037   0.40017   0.02578   0.00000  Uiso   1.00
H290   H     0.22128   0.35262   0.12159   0.00000  Uiso   1.00
H291   H     0.03295   0.58645   0.46232   0.00000  Uiso   1.00
H292   H     0.02223   0.55419   0.00154   0.00000  Uiso   1.00
H293   H     0.05729   0.60337   0.00173   0.00000  Uiso   1.00
H294   H     0.23282   0.55067   0.43210   0.00000  Uiso   1.00
H295   H     0.22481   0.56772   0.38855   0.00000  Uiso   1.00
H296   H     0.26459   0.53353   0.38387   0.00000  Uiso   1.00
H297   H     0.31793   0.47164   0.28297   0.00000  Uiso   1.00
H298   H     0.12168   0.66381   0.27922   0.00000  Uiso   1.00
H299   H     0.22626   0.41197   0.46602   0.00000  Uiso   1.00
H300   H     0.07885   0.55879   0.40502   0.00000  Uiso   1.00
H301   H     0.10949   0.52548   0.07447   0.00000  Uiso   1.00
H302   H     0.19282   0.44768   0.43127   0.00000  Uiso   1.00
H303   H     0.03345   0.58359   0.25210   0.00000  Uiso   1.00
O304   O     0.16667   0.50000   0.25000   0.00000  Uiso   1.00
O305   O     0.15693   0.45726   0.16625   0.00000  Uiso   1.00
O306   O     0.12687   0.53979   0.33749   0.00000  Uiso   1.00
O307   O     0.21088   0.50826   0.15877   0.00000  Uiso   1.00
O308   O     0.17198   0.49468   0.33749   0.00000  Uiso   1.00
O309   O     0.02380   0.53412   0.21005   0.00000  Uiso   1.00
O310   O     0.16614   0.53195   0.10134   0.00000  Uiso   1.00
O311   O     0.23281   0.41074   0.10207   0.00000  Uiso   1.00
O312   O     0.20178   0.50550   0.39847   0.00000  Uiso   1.00
O313   O     0.17849   0.41434   0.27820   0.00000  Uiso   1.00
O314   O     0.14581   0.59469   0.26767   0.00000  Uiso   1.00
O315   O     0.07452   0.46584   0.23607   0.00000  Uiso   1.00
O316   O     0.26785   0.52512   0.21805   0.00000  Uiso   1.00
O317   O     0.06990   0.52293   0.27820   0.00000  Uiso   1.00
O318   O     0.25440   0.48610   0.26767   0.00000  Uiso   1.00
O319   O     0.13800   0.40236   0.23607   0.00000  Uiso   1.00
O320   O     0.20437   0.58860   0.21805   0.00000  Uiso   1.00
Zn321  Zn    0.19244   0.47423   0.28277   0.00000  Uiso   1.00
Zn322  Zn    0.13459   0.45711   0.22257   0.00000  Uiso   1.00
Zn323  Zn    0.21166   0.52997   0.21188   0.00000  Uiso   1.00
Zn324  Zn    0.12798   0.53868   0.28277   0.00000  Uiso   1.00
C325   C     0.38579   0.49302   0.25884   0.00000  Uiso   1.00
C326   C     0.52341   0.45937   0.46158   0.00000  Uiso   1.00
C327   C     0.54187   0.43769   0.48177   0.00000  Uiso   1.00
C328   C     0.61443   0.50733   0.24133   0.00000  Uiso   1.00
C329   C     0.53729   0.44855   0.02172   0.00000  Uiso   1.00
C330   C     0.51322   0.48168   0.04223   0.00000  Uiso   1.00
C331   C     0.55561   0.42562   0.04154   0.00000  Uiso   1.00
C332   C     0.54938   0.43427   0.08207   0.00000  Uiso   1.00
C333   C     0.51387   0.49479   0.08168   0.00000  Uiso   1.00
C334   C     0.66064   0.51158   0.23840   0.00000  Uiso   1.00
C335   C     0.34053   0.49077   0.26155   0.00000  Uiso   1.00
C336   C     0.43161   0.54776   0.42056   0.00000  Uiso   1.00
C337   C     0.51659   0.65622   0.23903   0.00000  Uiso   1.00
C338   C     0.48506   0.34521   0.26102   0.00000  Uiso   1.00
C339   C     0.48854   0.38954   0.25931   0.00000  Uiso   1.00
C340   C     0.51065   0.61117   0.24145   0.00000  Uiso   1.00
C341   C     0.52161   0.47844   0.14406   0.00000  Uiso   1.00
C342   C     0.47906   0.52137   0.35607   0.00000  Uiso   1.00
C343   C     0.46838   0.52871   0.39927   0.00000  Uiso   1.00
C344   C     0.52962   0.46963   0.10169   0.00000  Uiso   1.00
C345   C     0.41965   0.55300   0.46167   0.00000  Uiso   1.00
C346   C     0.35811   0.57699   0.22378   0.00000  Uiso   1.00
C347   C     0.49418   0.51537   0.41932   0.00000  Uiso   1.00
C348   C     0.55771   0.34345   0.21244   0.00000  Uiso   1.00
C349   C     0.53255   0.56495   0.08977   0.00000  Uiso   1.00
C350   C     0.54203   0.37075   0.10433   0.00000  Uiso   1.00
C351   C     0.38083   0.57552   0.48299   0.00000  Uiso   1.00
C352   C     0.56523   0.54120   0.40118   0.00000  Uiso   1.00
C353   C     0.47899   0.51410   0.46052   0.00000  Uiso   1.00
C354   C     0.44335   0.53599   0.48196   0.00000  Uiso   1.00
C355   C     0.49860   0.49207   0.48095   0.00000  Uiso   1.00
C356   C     0.48980   0.50015   0.02241   0.00000  Uiso   1.00
C357   C     0.45509   0.52300   0.04289   0.00000  Uiso   1.00
C358   C     0.43187   0.53978   0.02314   0.00000  Uiso   1.00
H359   H     0.40473   0.55577   0.04070   0.00000  Uiso   1.00
H360   H     0.66009   0.58854   0.22693   0.00000  Uiso   1.00
H361   H     0.38341   0.59481   0.20191   0.00000  Uiso   1.00
H362   H     0.57998   0.65382   0.19563   0.00000  Uiso   1.00
H363   H     0.54958   0.36003   0.19106   0.00000  Uiso   1.00
H364   H     0.57524   0.36632   0.23031   0.00000  Uiso   1.00
H365   H     0.53940   0.56845   0.05799   0.00000  Uiso   1.00
H366   H     0.56272   0.56057   0.09661   0.00000  Uiso   1.00
H367   H     0.52158   0.59454   0.10653   0.00000  Uiso   1.00
H368   H     0.54566   0.35299   0.07481   0.00000  Uiso   1.00
H369   H     0.50722   0.37291   0.11969   0.00000  Uiso   1.00
H370   H     0.57371   0.40017   0.02578   0.00000  Uiso   1.00
H371   H     0.55462   0.35262   0.12159   0.00000  Uiso   1.00
H372   H     0.36628   0.58645   0.46232   0.00000  Uiso   1.00
H373   H     0.35556   0.55419   0.00154   0.00000  Uiso   1.00
H374   H     0.39062   0.60337   0.00173   0.00000  Uiso   1.00
H375   H     0.56615   0.55067   0.43210   0.00000  Uiso   1.00
H376   H     0.55814   0.56772   0.38855   0.00000  Uiso   1.00
H377   H     0.59792   0.53353   0.38387   0.00000  Uiso   1.00
H378   H     0.65127   0.47164   0.28297   0.00000  Uiso   1.00
H379   H     0.45501   0.66381   0.27922   0.00000  Uiso   1.00
H380   H     0.55959   0.41197   0.46602   0.00000  Uiso   1.00
H381   H     0.41218   0.55879   0.40502   0.00000  Uiso   1.00
H382   H     0.44282   0.52548   0.07447   0.00000  Uiso   1.00
H383   H     0.52616   0.44768   0.43127   0.00000  Uiso   1.00
H384   H     0.36679   0.58359   0.25210   0.00000  Uiso   1.00
O385   O     0.50000   0.50000   0.25000   0.00000  Uiso   1.00
O386   O     0.49027   0.45726   0.16625   0.00000  Uiso   1.00
O387   O     0.46020   0.53979   0.33749   0.00000  Uiso   1.00
O388   O     0.54421   0.50826   0.15877   0.00000  Uiso   1.00
O389   O     0.50532   0.49468   0.33749   0.00000  Uiso   1.00
O390   O     0.35713   0.53412   0.21005   0.00000  Uiso   1.00
O391   O     0.49947   0.53195   0.10134   0.00000  Uiso   1.00
O392   O     0.56615   0.41074   0.10207   0.00000  Uiso   1.00
O393   O     0.53512   0.50550   0.39847   0.00000  Uiso   1.00
O394   O     0.51182   0.41434   0.27820   0.00000  Uiso   1.00
O395   O     0.47914   0.59469   0.26767   0.00000  Uiso   1.00
O396   O     0.40785   0.46584   0.23607   0.00000  Uiso   1.00
O397   O     0.60119   0.52512   0.21805   0.00000  Uiso   1.00
O398   O     0.40323   0.52293   0.27820   0.00000  Uiso   1.00
O399   O     0.58773   0.48610   0.26767   0.00000  Uiso   1.00
O400   O     0.47133   0.40236   0.23607   0.00000  Uiso   1.00
O401   O     0.53771   0.58860   0.21805   0.00000  Uiso   1.00
Zn402  Zn    0.52577   0.47423   0.28277   0.00000  Uiso   1.00
Zn403  Zn    0.46792   0.45711   0.22257   0.00000  Uiso   1.00
Zn404  Zn    0.54500   0.52997   0.21188   0.00000  Uiso   1.00
Zn405  Zn    0.46131   0.53868   0.28277   0.00000  Uiso   1.00
C406   C     0.71912   0.49302   0.25884   0.00000  Uiso   1.00
C407   C     0.85674   0.45937   0.46158   0.00000  Uiso   1.00
C408   C     0.87521   0.43769   0.48177   0.00000  Uiso   1.00
C409   C     0.94776   0.50733   0.24133   0.00000  Uiso   1.00
C410   C     0.87063   0.44855   0.02172   0.00000  Uiso   1.00
C411   C     0.84656   0.48168   0.04223   0.00000  Uiso   1.00
C412   C     0.88894   0.42562   0.04154   0.00000  Uiso   1.00
C413   C     0.88271   0.43427   0.08207   0.00000  Uiso   1.00
C414   C     0.84721   0.49479   0.08168   0.00000  Uiso   1.00
C415   C     0.99398   0.51158   0.23840   0.00000  Uiso   1.00
C416   C     0.67386   0.49077   0.26155   0.00000  Uiso   1.00
C417   C     0.76494   0.54776   0.42056   0.00000  Uiso   1.00
C418   C     0.84992   0.65622   0.23903   0.00000  Uiso   1.00
C419   C     0.81839   0.34521   0.26102   0.00000  Uiso   1.00
C420   C     0.82187   0.38954   0.25931   0.00000  Uiso   1.00
C421   C     0.84399   0.61117   0.24145   0.00000  Uiso   1.00
C422   C     0.85494   0.47844   0.14406   0.00000  Uiso   1.00
C423   C     0.81240   0.52137   0.35607   0.00000  Uiso   1.00
C424   C     0.80171   0.52871   0.39927   0.00000  Uiso   1.00
C425   C     0.86295   0.46963   0.10169   0.00000  Uiso   1.00
C426   C     0.75299   0.55300   0.46167   0.00000  Uiso   1.00
C427   C     0.69144   0.57699   0.22378   0.00000  Uiso   1.00
C428   C     0.82751   0.51537   0.41932   0.00000  Uiso   1.00
C429   C     0.89104   0.34345   0.21244   0.00000  Uiso   1.00
C430   C     0.86589   0.56495   0.08977   0.00000  Uiso   1.00
C431   C     0.87537   0.37075   0.10433   0.00000  Uiso   1.00
C432   C     0.71416   0.57552   0.48299   0.00000  Uiso   1.00
C433   C     0.89856   0.54120   0.40118   0.00000  Uiso   1.00
C434   C     0.81232   0.51410   0.46052   0.00000  Uiso   1.00
C435   C     0.77669   0.53599   0.48196   0.00000  Uiso   1.00
C436   C     0.83193   0.49207   0.48095   0.00000  Uiso   1.00
C437   C     0.82313   0.50015   0.02241   0.00000  Uiso   1.00
C438   C     0.78843   0.52300   0.04289   0.00000  Uiso   1.00
C439   C     0.76520   0.53978   0.02314   0.00000  Uiso   1.00
H440   H     0.73806   0.55577   0.04070   0.00000  Uiso   1.00
H441   H     0.99343   0.58854   0.22693   0.00000  Uiso   1.00
H442   H     0.71675   0.59481   0.20191   0.00000  Uiso   1.00
H443   H     0.91331   0.65382   0.19563   0.00000  Uiso   1.00
H444   H     0.88291   0.36003   0.19106   0.00000  Uiso   1.00
H445   H     0.90857   0.36632   0.23031   0.00000  Uiso   1.00
H446   H     0.87273   0.56845   0.05799   0.00000  Uiso   1.00
H447   H     0.89605   0.56057   0.09661   0.00000  Uiso   1.00
H448   H     0.85492   0.59454   0.10653   0.00000  Uiso   1.00
H449   H     0.87900   0.35299   0.07481   0.00000  Uiso   1.00
H450   H     0.84055   0.37291   0.11969   0.00000  Uiso   1.00
H451   H     0.90704   0.40017   0.02578   0.00000  Uiso   1.00
H452   H     0.88795   0.35262   0.12159   0.00000  Uiso   1.00
H453   H     0.69962   0.58645   0.46232   0.00000  Uiso   1.00
H454   H     0.68890   0.55419   0.00154   0.00000  Uiso   1.00
H455   H     0.72396   0.60337   0.00173   0.00000  Uiso   1.00
H456   H     0.89949   0.55067   0.43210   0.00000  Uiso   1.00
H457   H     0.89148   0.56772   0.38855   0.00000  Uiso   1.00
H458   H     0.93125   0.53353   0.38387   0.00000  Uiso   1.00
H459   H     0.98460   0.47164   0.28297   0.00000  Uiso   1.00
H460   H     0.78835   0.66381   0.27922   0.00000  Uiso   1.00
H461   H     0.89293   0.41197   0.46602   0.00000  Uiso   1.00
H462   H     0.74552   0.55879   0.40502   0.00000  Uiso   1.00
H463   H     0.77616   0.52548   0.07447   0.00000  Uiso   1.00
H464   H     0.85949   0.44768   0.43127   0.00000  Uiso   1.00
H465   H     0.70012   0.58359   0.25210   0.00000  Uiso   1.00
O466   O     0.83333   0.50000   0.25000   0.00000  Uiso   1.00
O467   O     0.82360   0.45726   0.16625   0.00000  Uiso   1.00
O468   O     0.79354   0.53979   0.33749   0.00000  Uiso   1.00
O469   O     0.87755   0.50826   0.15877   0.00000  Uiso   1.00
O470   O     0.83865   0.49468   0.33749   0.00000  Uiso   1.00
O471   O     0.69047   0.53412   0.21005   0.00000  Uiso   1.00
O472   O     0.83281   0.53195   0.10134   0.00000  Uiso   1.00
O473   O     0.89948   0.41074   0.10207   0.00000  Uiso   1.00
O474   O     0.86845   0.50550   0.39847   0.00000  Uiso   1.00
O475   O     0.84515   0.41434   0.27820   0.00000  Uiso   1.00
O476   O     0.81247   0.59469   0.26767   0.00000  Uiso   1.00
O477   O     0.74119   0.46584   0.23607   0.00000  Uiso   1.00
O478   O     0.93452   0.52512   0.21805   0.00000  Uiso   1.00
O479   O     0.73656   0.52293   0.27820   0.00000  Uiso   1.00
O480   O     0.92106   0.48610   0.26767   0.00000  Uiso   1.00
O481   O     0.80467   0.40236   0.23607   0.00000  Uiso   1.00
O482   O     0.87104   0.58860   0.21805   0.00000  Uiso   1.00
Zn483  Zn    0.85910   0.47423   0.28277   0.00000  Uiso   1.00
Zn484  Zn    0.80125   0.45711   0.22257   0.00000  Uiso   1.00
Zn485  Zn    0.87833   0.52997   0.21188   0.00000  Uiso   1.00
Zn486  Zn    0.79465   0.53868   0.28277   0.00000  Uiso   1.00
C487   C     0.05246   0.82636   0.25884   0.00000  Uiso   1.00
C488   C     0.19008   0.79270   0.46158   0.00000  Uiso   1.00
C489   C     0.20854   0.77102   0.48177   0.00000  Uiso   1.00
C490   C     0.28110   0.84067   0.24133   0.00000  Uiso   1.00
C491   C     0.20396   0.78188   0.02172   0.00000  Uiso   1.00
C492   C     0.17989   0.81501   0.04223   0.00000  Uiso   1.00
C493   C     0.22228   0.75896   0.04154   0.00000  Uiso   1.00
C494   C     0.21605   0.76760   0.08207   0.00000  Uiso   1.00
C495   C     0.18054   0.82812   0.08168   0.00000  Uiso   1.00
C496   C     0.32731   0.84491   0.23840   0.00000  Uiso   1.00
C497   C     0.00720   0.82410   0.26155   0.00000  Uiso   1.00
C498   C     0.09828   0.88109   0.42056   0.00000  Uiso   1.00
C499   C     0.18326   0.98956   0.23903   0.00000  Uiso   1.00
C500   C     0.15173   0.67854   0.26102   0.00000  Uiso   1.00
C501   C     0.15520   0.72287   0.25931   0.00000  Uiso   1.00
C502   C     0.17732   0.94450   0.24145   0.00000  Uiso   1.00
C503   C     0.18827   0.81178   0.14406   0.00000  Uiso   1.00
C504   C     0.14573   0.85470   0.35607   0.00000  Uiso   1.00
C505   C     0.13504   0.86204   0.39927   0.00000  Uiso   1.00
C506   C     0.19628   0.80296   0.10169   0.00000  Uiso   1.00
C507   C     0.08632   0.88634   0.46167   0.00000  Uiso   1.00
C508   C     0.02478   0.91032   0.22378   0.00000  Uiso   1.00
C509   C     0.16085   0.84871   0.41932   0.00000  Uiso   1.00
C510   C     0.22437   0.67678   0.21244   0.00000  Uiso   1.00
C511   C     0.19922   0.89828   0.08977   0.00000  Uiso   1.00
C512   C     0.20870   0.70408   0.10433   0.00000  Uiso   1.00
C513   C     0.04750   0.90885   0.48299   0.00000  Uiso   1.00
C514   C     0.23189   0.87454   0.40118   0.00000  Uiso   1.00
C515   C     0.14566   0.84743   0.46052   0.00000  Uiso   1.00
C516   C     0.11002   0.86933   0.48196   0.00000  Uiso   1.00
C517   C     0.16527   0.82540   0.48095   0.00000  Uiso   1.00
C518   C     0.15647   0.83348   0.02241   0.00000  Uiso   1.00
C519   C     0.12176   0.85633   0.04289   0.00000  Uiso   1.00
C520   C     0.09854   0.87311   0.02314   0.00000  Uiso   1.00
H521   H     0.07140   0.88910   0.04070   0.00000  Uiso   1.00
H522   H     0.32676   0.92188   0.22693   0.00000  Uiso   1.00
H523   H     0.05008   0.92814   0.20191   0.00000  Uiso   1.00
H524   H     0.24664   0.98715   0.19563   0.00000  Uiso   1.00
H525   H     0.21625   0.69336   0.19106   0.00000  Uiso   1.00
H526   H     0.24191   0.69965   0.23031   0.00000  Uiso   1.00
H527   H     0.20607   0.90179   0.05799   0.00000  Uiso   1.00
H528   H     0.22938   0.89391   0.09661   0.00000  Uiso   1.00
H529   H     0.18825   0.92788   0.10653   0.00000  Uiso   1.00
H530   H     0.21233   0.68632   0.07481   0.00000  Uiso   1.00
H531   H     0.17388   0.70625   0.11969   0.00000  Uiso   1.00
H532   H     0.24037   0.73350   0.02578   0.00000  Uiso   1.00
H533   H     0.22128   0.68596   0.12159   0.00000  Uiso   1.00
H534   H     0.03295   0.91978   0.46232   0.00000  Uiso   1.00
H535   H     0.02223   0.88753   0.00154   0.00000  Uiso   1.00
H536   H     0.05729   0.93671   0.00173   0.00000  Uiso   1.00
H537   H     0.23282   0.88400   0.43210   0.00000  Uiso   1.00
H538   H     0.22481   0.90105   0.38855   0.00000  Uiso   1.00
H539   H     0.26459   0.86686   0.38387   0.00000  Uiso   1.00
H540   H     0.31793   0.80497   0.28297   0.00000  Uiso   1.00
H541   H     0.12168   0.99715   0.27922   0.00000  Uiso   1.00
H542   H     0.22626   0.74531   0.46602   0.00000  Uiso   1.00
H543   H     0.07885   0.89212   0.40502   0.00000  Uiso   1.00
H544   H     0.10949   0.85881   0.07447   0.00000  Uiso   1.00
H545   H     0.19282   0.78101   0.43127   0.00000  Uiso   1.00
H546   H     0.03345   0.91692   0.25210   0.00000  Uiso   1.00
O547   O     0.16667   0.83333   0.25000   0.00000  Uiso   1.00
O548   O     0.15693   0.79060   0.16625   0.00000  Uiso   1.00
O549   O     0.12687   0.87313   0.33749   0.00000  Uiso   1.00
O550   O     0.21088   0.84159   0.15877   0.00000  Uiso   1.00
O551   O     0.17198   0.82802   0.33749   0.00000  Uiso   1.00
O552   O     0.02380   0.86745   0.21005   0.00000  Uiso   1.00
O553   O     0.16614   0.86528   0.10134   0.00000  Uiso   1.00
O554   O     0.23281   0.74407   0.10207   0.00000  Uiso   1.00
O555   O     0.20178   0.83883   0.39847   0.00000  Uiso   1.00
O556   O     0.17849   0.74768   0.27820   0.00000  Uiso   1.00
O557   O     0.14581   0.92803   0.26767   0.00000  Uiso   1.00
O558   O     0.07452   0.79917   0.23607   0.00000  Uiso   1.00
O559   O     0.26785   0.85845   0.21805   0.00000  Uiso   1.00
O560   O     0.06990   0.85627   0.27820   0.00000  Uiso   1.00
O561   O     0.25440   0.81944   0.26767   0.00000  Uiso   1.00
O562   O     0.13800   0.73570   0.23607   0.00000  Uiso   1.00
O563   O     0.20437   0.92193   0.21805   0.00000  Uiso   1.00
Zn564  Zn    0.19244   0.80756   0.28277   0.00000  Uiso   1.00
Zn565  Zn    0.13459   0.79044   0.22257   0.00000  Uiso   1.00
Zn566  Zn    0.21166   0.86331   0.21188   0.00000  Uiso   1.00
Zn567  Zn    0.12798   0.87202   0.28277   0.00000  Uiso   1.00
C568   C     0.38579   0.82636   0.25884   0.00000  Uiso   1.00
C569   C     0.52341   0.79270   0.46158   0.00000  Uiso   1.00
C570   C     0.54187   0.77102   0.48177   0.00000  Uiso   1.00
C571   C     0.61443   0.84067   0.24133   0.00000  Uiso   1.00
C572   C     0.53729   0.78188   0.02172   0.00000  Uiso   1.00
C573   C     0.51322   0.81501   0.04223   0.00000  Uiso   1.00
C574   C     0.55561   0.75896   0.04154   0.00000  Uiso   1.00
C575   C     0.54938   0.76760   0.08207   0.00000  Uiso   1.00
C576   C     0.51387   0.82812   0.08168   0.00000  Uiso   1.00
C577   C     0.66064   0.84491   0.23840   0.00000  Uiso   1.00
C578   C     0.34053   0.82410   0.26155   0.00000  Uiso   1.00
C579   C     0.43161   0.88109   0.42056   0.00000  Uiso   1.00
C580   C     0.51659   0.98956   0.23903   0.00000  Uiso   1.00
C581   C     0.48506   0.67854   0.26102   0.00000  Uiso   1.00
C582   C     0.48854   0.72287   0.25931   0.00000  Uiso   1.00
C583   C     0.51065   0.94450   0.24145   0.00000  Uiso   1.00
C584   C     0.52161   0.81178   0.14406   0.00000  Uiso   1.00
C585   C     0.47906   0.85470   0.35607   0.00000  Uiso   1.00
C586   C     0.46838   0.86204   0.39927   0.00000  Uiso   1.00
C587   C     0.52962   0.80296   0.10169   0.00000  Uiso   1.00
C588   C     0.41965   0.88634   0.46167   0.00000  Uiso   1.00
C589   C     0.35811   0.91032   0.22378   0.00000  Uiso   1.00
C590   C     0.49418   0.84871   0.41932   0.00000  Uiso   1.00
C591   C     0.55771   0.67678   0.21244   0.00000  Uiso   1.00
C592   C     0.53255   0.89828   0.08977   0.00000  Uiso   1.00
C593   C     0.54203   0.70408   0.10433   0.00000  Uiso   1.00
C594   C     0.38083   0.90885   0.48299   0.00000  Uiso   1.00
C595   C     0.56523   0.87454   0.40118   0.00000  Uiso   1.00
C596   C     0.47899   0.84743   0.46052   0.00000  Uiso   1.00
C597   C     0.44335   0.86933   0.48196   0.00000  Uiso   1.00
C598   C     0.49860   0.82540   0.48095   0.00000  Uiso   1.00
C599   C     0.48980   0.83348   0.02241   0.00000  Uiso   1.00
C600   C     0.45509   0.85633   0.04289   0.00000  Uiso   1.00
C601   C     0.43187   0.87311   0.02314   0.00000  Uiso   1.00
H602   H     0.40473   0.88910   0.04070   0.00000  Uiso   1.00
H603   H     0.66009   0.92188   0.22693   0.00000  Uiso   1.00
H604   H     0.38341   0.92814   0.20191   0.00000  Uiso   1.00
H605   H     0.57998   0.98715   0.19563   0.00000  Uiso   1.00
H606   H     0.54958   0.69336   0.19106   0.00000  Uiso   1.00
H607   H     0.57524   0.69965   0.23031   0.00000  Uiso   1.00
H608   H     0.53940   0.90179   0.05799   0.00000  Uiso   1.00
H609   H     0.56272   0.89391   0.09661   0.00000  Uiso   1.00
H610   H     0.52158   0.92788   0.10653   0.00000  Uiso   1.00
H611   H     0.54566   0.68632   0.07481   0.00000  Uiso   1.00
H612   H     0.50722   0.70625   0.11969   0.00000  Uiso   1.00
H613   H     0.57371   0.73350   0.02578   0.00000  Uiso   1.00
H614   H     0.55462   0.68596   0.12159   0.00000  Uiso   1.00
H615   H     0.36628   0.91978   0.46232   0.00000  Uiso   1.00
H616   H     0.35556   0.88753   0.00154   0.00000  Uiso   1.00
H617   H     0.39062   0.93671   0.00173   0.00000  Uiso   1.00
H618   H     0.56615   0.88400   0.43210   0.00000  Uiso   1.00
H619   H     0.55814   0.90105   0.38855   0.00000  Uiso   1.00
H620   H     0.59792   0.86686   0.38387   0.00000  Uiso   1.00
H621   H     0.65127   0.80497   0.28297   0.00000  Uiso   1.00
H622   H     0.45501   0.99715   0.27922   0.00000  Uiso   1.00
H623   H     0.55959   0.74531   0.46602   0.00000  Uiso   1.00
H624   H     0.41218   0.89212   0.40502   0.00000  Uiso   1.00
H625   H     0.44282   0.85881   0.07447   0.00000  Uiso   1.00
H626   H     0.52616   0.78101   0.43127   0.00000  Uiso   1.00
H627   H     0.36679   0.91692   0.25210   0.00000  Uiso   1.00
O628   O     0.50000   0.83333   0.25000   0.00000  Uiso   1.00
O629   O     0.49027   0.79060   0.16625   0.00000  Uiso   1.00
O630   O     0.46020   0.87313   0.33749   0.00000  Uiso   1.00
O631   O     0.54421   0.84159   0.15877   0.00000  Uiso   1.00
O632   O     0.50532   0.82802   0.33749   0.00000  Uiso   1.00
O633   O     0.35713   0.86745   0.21005   0.00000  Uiso   1.00
O634   O     0.49947   0.86528   0.10134   0.00000  Uiso   1.00
O635   O     0.56615   0.74407   0.10207   0.00000  Uiso   1.00
O636   O     0.53512   0.83883   0.39847   0.00000  Uiso   1.00
O637   O     0.51182   0.74768   0.27820   0.00000  Uiso   1.00
O638   O     0.47914   0.92803   0.26767   0.00000  Uiso   1.00
O639   O     0.40785   0.79917   0.23607   0.00000  Uiso   1.00
O640   O     0.60119   0.85845   0.21805   0.00000  Uiso   1.00
O641   O     0.40323   0.85627   0.27820   0.00000  Uiso   1.00
O642   O     0.58773   0.81944   0.26767   0.00000  Uiso   1.00
O643   O     0.47133   0.73570   0.23607   0.00000  Uiso   1.00
O644   O     0.53771   0.92193   0.21805   0.00000  Uiso   1.00
Zn645  Zn    0.52577   0.80756   0.28277   0.00000  Uiso   1.00
Zn646  Zn    0.46792   0.79044   0.22257   0.00000  Uiso   1.00
Zn647  Zn    0.54500   0.86331   0.21188   0.00000  Uiso   1.00
Zn648  Zn    0.46131   0.87202   0.28277   0.00000  Uiso   1.00
C649   C     0.71912   0.82636   0.25884   0.00000  Uiso   1.00
C650   C     0.85674   0.79270   0.46158   0.00000  Uiso   1.00
C651   C     0.87521   0.77102   0.48177   0.00000  Uiso   1.00
C652   C     0.94776   0.84067   0.24133   0.00000  Uiso   1.00
C653   C     0.87063   0.78188   0.02172   0.00000  Uiso   1.00
C654   C     0.84656   0.81501   0.04223   0.00000  Uiso   1.00
C655   C     0.88894   0.75896   0.04154   0.00000  Uiso   1.00
C656   C     0.88271   0.76760   0.08207   0.00000  Uiso   1.00
C657   C     0.84721   0.82812   0.08168   0.00000  Uiso   1.00
C658   C     0.99398   0.84491   0.23840   0.00000  Uiso   1.00
C659   C     0.67386   0.82410   0.26155   0.00000  Uiso   1.00
C660   C     0.76494   0.88109   0.42056   0.00000  Uiso   1.00
C661   C     0.84992   0.98956   0.23903   0.00000  Uiso   1.00
C662   C     0.81839   0.67854   0.26102   0.00000  Uiso   1.00
C663   C     0.82187   0.72287   0.25931   0.00000  Uiso   1.00
C664   C     0.84399   0.94450   0.24145   0.00000  Uiso   1.00
C665   C     0.85494   0.81178   0.14406   0.00000  Uiso   1.00
C666   C     0.81240   0.85470   0.35607   0.00000  Uiso   1.00
C667   C     0.80171   0.86204   0.39927   0.00000  Uiso   1.00
C668   C     0.86295   0.80296   0.10169   0.00000  Uiso   1.00
C669   C     0.75299   0.88634   0.46167   0.00000  Uiso   1.00
C670   C     0.69144   0.91032   0.22378   0.00000  Uiso   1.00
C671   C     0.82751   0.84871   0.41932   0.00000  Uiso   1.00
C672   C     0.89104   0.67678   0.21244   0.00000  Uiso   1.00
C673   C     0.86589   0.89828   0.08977   0.00000  Uiso   1.00
C674   C     0.87537   0.70408   0.10433   0.00000  Uiso   1.00
C675   C     0.71416   0.90885   0.48299   0.00000  Uiso   1.00
C676   C     0.89856   0.87454   0.40118   0.00000  Uiso   1.00
C677   C     0.81232   0.84743   0.46052   0.00000  Uiso   1.00
C678   C     0.77669   0.86933   0.48196   0.00000  Uiso   1.00
C679   C     0.83193   0.82540   0.48095   0.00000  Uiso   1.00
C680   C     0.82313   0.83348   0.02241   0.00000  Uiso   1.00
C681   C     0.78843   0.85633   0.04289   0.00000  Uiso   1.00
C682   C     0.76520   0.87311   0.02314   0.00000  Uiso   1.00
H683   H     0.73806   0.88910   0.04070   0.00000  Uiso   1.00
H684   H     0.99343   0.92188   0.22693   0.00000  Uiso   1.00
H685   H     0.71675   0.92814   0.20191   0.00000  Uiso   1.00
H686   H     0.91331   0.98715   0.19563   0.00000  Uiso   1.00
H687   H     0.88291   0.69336   0.19106   0.00000  Uiso   1.00
H688   H     0.90857   0.69965   0.23031   0.00000  Uiso   1.00
H689   H     0.87273   0.90179   0.05799   0.00000  Uiso   1.00
H690   H     0.89605   0.89391   0.09661   0.00000  Uiso   1.00
H691   H     0.85492   0.92788   0.10653   0.00000  Uiso   1.00
H692   H     0.87900   0.68632   0.07481   0.00000  Uiso   1.00
H693   H     0.84055   0.70625   0.11969   0.00000  Uiso   1.00
H694   H     0.90704   0.73350   0.02578   0.00000  Uiso   1.00
H695   H     0.88795   0.68596   0.12159   0.00000  Uiso   1.00
H696   H     0.69962   0.91978   0.46232   0.00000  Uiso   1.00
H697   H     0.68890   0.88753   0.00154   0.00000  Uiso   1.00
H698   H     0.72396   0.93671   0.00173   0.00000  Uiso   1.00
H699   H     0.89949   0.88400   0.43210   0.00000  Uiso   1.00
H700   H     0.89148   0.90105   0.38855   0.00000  Uiso   1.00
H701   H     0.93125   0.86686   0.38387   0.00000  Uiso   1.00
H702   H     0.98460   0.80497   0.28297   0.00000  Uiso   1.00
H703   H     0.78835   0.99715   0.27922   0.00000  Uiso   1.00
H704   H     0.89293   0.74531   0.46602   0.00000  Uiso   1.00
H705   H     0.74552   0.89212   0.40502   0.00000  Uiso   1.00
H706   H     0.77616   0.85881   0.07447   0.00000  Uiso   1.00
H707   H     0.85949   0.78101   0.43127   0.00000  Uiso   1.00
H708   H     0.70012   0.91692   0.25210   0.00000  Uiso   1.00
O709   O     0.83333   0.83333   0.25000   0.00000  Uiso   1.00
O710   O     0.82360   0.79060   0.16625   0.00000  Uiso   1.00
O711   O     0.79354   0.87313   0.33749   0.00000  Uiso   1.00
O712   O     0.87755   0.84159   0.15877   0.00000  Uiso   1.00
O713   O     0.83865   0.82802   0.33749   0.00000  Uiso   1.00
O714   O     0.69047   0.86745   0.21005   0.00000  Uiso   1.00
O715   O     0.83281   0.86528   0.10134   0.00000  Uiso   1.00
O716   O     0.89948   0.74407   0.10207   0.00000  Uiso   1.00
O717   O     0.86845   0.83883   0.39847   0.00000  Uiso   1.00
O718   O     0.84515   0.74768   0.27820   0.00000  Uiso   1.00
O719   O     0.81247   0.92803   0.26767   0.00000  Uiso   1.00
O720   O     0.74119   0.79917   0.23607   0.00000  Uiso   1.00
O721   O     0.93452   0.85845   0.21805   0.00000  Uiso   1.00
O722   O     0.73656   0.85627   0.27820   0.00000  Uiso   1.00
O723   O     0.92106   0.81944   0.26767   0.00000  Uiso   1.00
O724   O     0.80467   0.73570   0.23607   0.00000  Uiso   1.00
O725   O     0.87104   0.92193   0.21805   0.00000  Uiso   1.00
Zn726  Zn    0.85910   0.80756   0.28277   0.00000  Uiso   1.00
Zn727  Zn    0.80125   0.79044   0.22257   0.00000  Uiso   1.00
Zn728  Zn    0.87833   0.86331   0.21188   0.00000  Uiso   1.00
Zn729  Zn    0.79465   0.87202   0.28277   0.00000  Uiso   1.00
C730   C     0.05246   0.15969   0.75884   0.00000  Uiso   1.00
C731   C     0.19008   0.12604   0.96158   0.00000  Uiso   1.00
C732   C     0.20854   0.10435   0.98177   0.00000  Uiso   1.00
C733   C     0.28110   0.17400   0.74133   0.00000  Uiso   1.00
C734   C     0.20396   0.11522   0.52172   0.00000  Uiso   1.00
C735   C     0.17989   0.14835   0.54223   0.00000  Uiso   1.00
C736   C     0.22228   0.09229   0.54154   0.00000  Uiso   1.00
C737   C     0.21605   0.10094   0.58207   0.00000  Uiso   1.00
C738   C     0.18054   0.16146   0.58168   0.00000  Uiso   1.00
C739   C     0.32731   0.17825   0.73840   0.00000  Uiso   1.00
C740   C     0.00720   0.15743   0.76155   0.00000  Uiso   1.00
C741   C     0.09828   0.21442   0.92056   0.00000  Uiso   1.00
C742   C     0.18326   0.32289   0.73903   0.00000  Uiso   1.00
C743   C     0.15173   0.01188   0.76102   0.00000  Uiso   1.00
C744   C     0.15520   0.05620   0.75931   0.00000  Uiso   1.00
C745   C     0.17732   0.27783   0.74145   0.00000  Uiso   1.00
C746   C     0.18827   0.14511   0.64406   0.00000  Uiso   1.00
C747   C     0.14573   0.18803   0.85607   0.00000  Uiso   1.00
C748   C     0.13504   0.19538   0.89927   0.00000  Uiso   1.00
C749   C     0.19628   0.13629   0.60169   0.00000  Uiso   1.00
C750   C     0.08632   0.21967   0.96167   0.00000  Uiso   1.00
C751   C     0.02478   0.24365   0.72378   0.00000  Uiso   1.00
C752   C     0.16085   0.18204   0.91932   0.00000  Uiso   1.00
C753   C     0.22437   0.01011   0.71244   0.00000  Uiso   1.00
C754   C     0.19922   0.23161   0.58977   0.00000  Uiso   1.00
C755   C     0.20870   0.03742   0.60433   0.00000  Uiso   1.00
C756   C     0.04750   0.24219   0.98299   0.00000  Uiso   1.00
C757   C     0.23189   0.20787   0.90118   0.00000  Uiso   1.00
C758   C     0.14566   0.18077   0.96052   0.00000  Uiso   1.00
C759   C     0.11002   0.20266   0.98196   0.00000  Uiso   1.00
C760   C     0.16527   0.15874   0.98095   0.00000  Uiso   1.00
C761   C     0.15647   0.16682   0.52241   0.00000  Uiso   1.00
C762   C     0.12176   0.18966   0.54289   0.00000  Uiso   1.00
C763   C     0.09854   0.20645   0.52314   0.00000  Uiso   1.00
H764   H     0.07140   0.22243   0.54070   0.00000  Uiso   1.00
H765   H     0.32676   0.25521   0.72693   0.00000  Uiso   1.00
H766   H     0.05008   0.26148   0.70191   0.00000  Uiso   1.00
H767   H     0.24664   0.32048   0.69563   0.00000  Uiso   1.00
H768   H     0.21625   0.02670   0.69106   0.00000  Uiso   1.00
H769   H     0.24191   0.03299   0.73031   0.00000  Uiso   1.00
H770   H     0.20607   0.23512   0.55799   0.00000  Uiso   1.00
H771   H     0.22938   0.22724   0.59661   0.00000  Uiso   1.00
H772   H     0.18825   0.26121   0.60653   0.00000  Uiso   1.00
H773   H     0.21233   0.01965   0.57481   0.00000  Uiso   1.00
H774   H     0.17388   0.03958   0.61969   0.00000  Uiso   1.00
H775   H     0.24037   0.06683   0.52578   0.00000  Uiso   1.00
H776   H     0.22128   0.01929   0.62159   0.00000  Uiso   1.00
H777   H     0.03295   0.25311   0.96232   0.00000  Uiso   1.00
H778   H     0.02223   0.22086   0.50154   0.00000  Uiso   1.00
H779   H     0.05729   0.27004   0.50173   0.00000  Uiso   1.00
H780   H     0.23282   0.21734   0.93210   0.00000  Uiso   1.00
H781   H     0.22481   0.23439   0.88855   0.00000  Uiso   1.00
H782   H     0.26459   0.20020   0.88387   0.00000  Uiso   1.00
H783   H     0.31793   0.13831   0.78297   0.00000  Uiso   1.00
H784   H     0.12168   0.33048   0.77922   0.00000  Uiso   1.00
H785   H     0.22626   0.07864   0.96602   0.00000  Uiso   1.00
H786   H     0.07885   0.22545   0.90502   0.00000  Uiso   1.00
H787   H     0.10949   0.19215   0.57447   0.00000  Uiso   1.00
H788   H     0.19282   0.11435   0.93127   0.00000  Uiso   1.00
H789   H     0.03345   0.25025   0.75210   0.00000  Uiso   1.00
O790   O     0.16667   0.16667   0.75000   0.00000  Uiso   1.00
O791   O     0.15693   0.12393   0.66625   0.00000  Uiso   1.00
O792   O     0.12687   0.20646   0.83749   0.00000  Uiso   1.00
O793   O     0.21088   0.17493   0.65877   0.00000  Uiso   1.00
O794   O     0.17198   0.16135   0.83749   0.00000  Uiso   1.00
O795   O     0.02380   0.20078   0.71005   0.00000  Uiso   1.00
O796   O     0.16614   0.19861   0.60134   0.00000  Uiso   1.00
O797   O     0.23281   0.07741   0.60207   0.00000  Uiso   1.00
O798   O     0.20178   0.17216   0.89847   0.00000  Uiso   1.00
O799   O     0.17849   0.08101   0.77820   0.00000  Uiso   1.00
O800   O     0.14581   0.26136   0.76767   0.00000  Uiso   1.00
O801   O     0.07452   0.13251   0.73607   0.00000  Uiso   1.00
O802   O     0.26785   0.19179   0.71805   0.00000  Uiso   1.00
O803   O     0.06990   0.18960   0.77820   0.00000  Uiso   1.00
O804   O     0.25440   0.15277   0.76767   0.00000  Uiso   1.00
O805   O     0.13800   0.06903   0.73607   0.00000  Uiso   1.00
O806   O     0.20437   0.25527   0.71805   0.00000  Uiso   1.00
Zn807  Zn    0.19244   0.14090   0.78277   0.00000  Uiso   1.00
Zn808  Zn    0.13459   0.12378   0.72257   0.00000  Uiso   1.00
Zn809  Zn    0.21166   0.19664   0.71188   0.00000  Uiso   1.00
Zn810  Zn    0.12798   0.20535   0.78277   0.00000  Uiso   1.00
C811   C     0.38579   0.15969   0.75884   0.00000  Uiso   1.00
C812   C     0.52341   0.12604   0.96158   0.00000  Uiso   1.00
C813   C     0.54187   0.10435   0.98177   0.00000  Uiso   1.00
C814   C     0.61443   0.17400   0.74133   0.00000  Uiso   1.00
C815   C     0.53729   0.11522   0.52172   0.00000  Uiso   1.00
C816   C     0.51322   0.14835   0.54223   0.00000  Uiso   1.00
C817   C     0.55561   0.09229   0.54154   0.00000  Uiso   1.00
C818   C     0.54938   0.10094   0.58207   0.00000  Uiso   1.00
C819   C     0.51387   0.16146   0.58168   0.00000  Uiso   1.00
C820   C     0.66064   0.17825   0.73840   0.00000  Uiso   1.00
C821   C     0.34053   0.15743   0.76155   0.00000  Uiso   1.00
C822   C     0.43161   0.21442   0.92056   0.00000  Uiso   1.00
C823   C     0.51659   0.32289   0.73903   0.00000  Uiso   1.00
C824   C     0.48506   0.01188   0.76102   0.00000  Uiso   1.00
C825   C     0.48854   0.05620   0.75931   0.00000  Uiso   1.00
C826   C     0.51065   0.27783   0.74145   0.00000  Uiso   1.00
C827   C     0.52161   0.14511   0.64406   0.00000  Uiso   1.00
C828   C     0.47906   0.18803   0.85607   0.00000  Uiso   1.00
C829   C     0.46838   0.19538   0.89927   0.00000  Uiso   1.00
C830   C     0.52962   0.13629   0.60169   0.00000  Uiso   1.00
C831   C     0.41965   0.21967   0.96167   0.00000  Uiso   1.00
C832   C     0.35811   0.24365   0.72378   0.00000  Uiso   1.00
C833   C     0.49418   0.18204   0.91932   0.00000  Uiso   1.00
C834   C     0.55771   0.01011   0.71244   0.00000  Uiso   1.00
C835   C     0.53255   0.23161   0.58977   0.00000  Uiso   1.00
C836   C     0.54203   0.03742   0.60433   0.00000  Uiso   1.00
C837   C     0.38083   0.24219   0.98299   0.00000  Uiso   1.00
C838   C     0.56523   0.20787   0.90118   0.00000  Uiso   1.00
C839   C     0.47899   0.18077   0.96052   0.00000  Uiso   1.00
C840   C     0.44335   0.20266   0.98196   0.00000  Uiso   1.00
C841   C     0.49860   0.15874   0.98095   0.00000  Uiso   1.00
C842   C     0.48980   0.16682   0.52241   0.00000  Uiso   1.00
C843   C     0.45509   0.18966   0.54289   0.00000  Uiso   1.00
C844   C     0.43187   0.20645   0.52314   0.00000  Uiso   1.00
H845   H     0.40473   0.22243   0.54070   0.00000  Uiso   1.00
H846   H     0.66009   0.25521   0.72693   0.00000  Uiso   1.00
H847   H     0.38341   0.26148   0.70191   0.00000  Uiso   1.00
H848   H     0.57998   0.32048   0.69563   0.00000  Uiso   1.00
H849   H     0.54958   0.02670   0.69106   0.00000  Uiso   1.00
H850   H     0.57524   0.03299   0.73031   0.00000  Uiso   1.00
H851   H     0.53940   0.23512   0.55799   0.00000  Uiso   1.00
H852   H     0.56272   0.22724   0.59661   0.00000  Uiso   1.00
H853   H     0.52158   0.26121   0.60653   0.00000  Uiso   1.00
H854   H     0.54566   0.01965   0.57481   0.00000  Uiso   1.00
H855   H     0.50722   0.03958   0.61969   0.00000  Uiso   1.00
H856   H     0.57371   0.06683   0.52578   0.00000  Uiso   1.00
H857   H     0.55462   0.01929   0.62159   0.00000  Uiso   1.00
H858   H     0.36628   0.25311   0.96232   0.00000  Uiso   1.00
H859   H     0.35556   0.22086   0.50154   0.00000  Uiso   1.00
H860   H     0.39062   0.27004   0.50173   0.00000  Uiso   1.00
H861   H     0.56615   0.21734   0.93210   0.00000  Uiso   1.00
H862   H     0.55814   0.23439   0.88855   0.00000  Uiso   1.00
H863   H     0.59792   0.20020   0.88387   0.00000  Uiso   1.00
H864   H     0.65127   0.13831   0.78297   0.00000  Uiso   1.00
H865   H     0.45501   0.33048   0.77922   0.00000  Uiso   1.00
H866   H     0.55959   0.07864   0.96602   0.00000  Uiso   1.00
H867   H     0.41218   0.22545   0.90502   0.00000  Uiso   1.00
H868   H     0.44282   0.19215   0.57447   0.00000  Uiso   1.00
H869   H     0.52616   0.11435   0.93127   0.00000  Uiso   1.00
H870   H     0.36679   0.25025   0.75210   0.00000  Uiso   1.00
O871   O     0.50000   0.16667   0.75000   0.00000  Uiso   1.00
O872   O     0.49027   0.12393   0.66625   0.00000  Uiso   1.00
O873   O     0.46020   0.20646   0.83749   0.00000  Uiso   1.00
O874   O     0.54421   0.17493   0.65877   0.00000  Uiso   1.00
O875   O     0.50532   0.16135   0.83749   0.00000  Uiso   1.00
O876   O     0.35713   0.20078   0.71005   0.00000  Uiso   1.00
O877   O     0.49947   0.19861   0.60134   0.00000  Uiso   1.00
O878   O     0.56615   0.07741   0.60207   0.00000  Uiso   1.00
O879   O     0.53512   0.17216   0.89847   0.00000  Uiso   1.00
O880   O     0.51182   0.08101   0.77820   0.00000  Uiso   1.00
O881   O     0.47914   0.26136   0.76767   0.00000  Uiso   1.00
O882   O     0.40785   0.13251   0.73607   0.00000  Uiso   1.00
O883   O     0.60119   0.19179   0.71805   0.00000  Uiso   1.00
O884   O     0.40323   0.18960   0.77820   0.00000  Uiso   1.00
O885   O     0.58773   0.15277   0.76767   0.00000  Uiso   1.00
O886   O     0.47133   0.06903   0.73607   0.00000  Uiso   1.00
O887   O     0.53771   0.25527   0.71805   0.00000  Uiso   1.00
Zn888  Zn    0.52577   0.14090   0.78277   0.00000  Uiso   1.00
Zn889  Zn    0.46792   0.12378   0.72257   0.00000  Uiso   1.00
Zn890  Zn    0.54500   0.19664   0.71188   0.00000  Uiso   1.00
Zn891  Zn    0.46131   0.20535   0.78277   0.00000  Uiso   1.00
C892   C     0.71912   0.15969   0.75884   0.00000  Uiso   1.00
C893   C     0.85674   0.12604   0.96158   0.00000  Uiso   1.00
C894   C     0.87521   0.10435   0.98177   0.00000  Uiso   1.00
C895   C     0.94776   0.17400   0.74133   0.00000  Uiso   1.00
C896   C     0.87063   0.11522   0.52172   0.00000  Uiso   1.00
C897   C     0.84656   0.14835   0.54223   0.00000  Uiso   1.00
C898   C     0.88894   0.09229   0.54154   0.00000  Uiso   1.00
C899   C     0.88271   0.10094   0.58207   0.00000  Uiso   1.00
C900   C     0.84721   0.16146   0.58168   0.00000  Uiso   1.00
C901   C     0.99398   0.17825   0.73840   0.00000  Uiso   1.00
C902   C     0.67386   0.15743   0.76155   0.00000  Uiso   1.00
C903   C     0.76494   0.21442   0.92056   0.00000  Uiso   1.00
C904   C     0.84992   0.32289   0.73903   0.00000  Uiso   1.00
C905   C     0.81839   0.01188   0.76102   0.00000  Uiso   1.00
C906   C     0.82187   0.05620   0.75931   0.00000  Uiso   1.00
C907   C     0.84399   0.27783   0.74145   0.00000  Uiso   1.00
C908   C     0.85494   0.14511   0.64406   0.00000  Uiso   1.00
C909   C     0.81240   0.18803   0.85607   0.00000  Uiso   1.00
C910   C     0.80171   0.19538   0.89927   0.00000  Uiso   1.00
C911   C     0.86295   0.13629   0.60169   0.00000  Uiso   1.00
C912   C     0.75299   0.21967   0.96167   0.00000  Uiso   1.00
C913   C     0.69144   0.24365   0.72378   0.00000  Uiso   1.00
C914   C     0.82751   0.18204   0.91932   0.00000  Uiso   1.00
C915   C     0.89104   0.01011   0.71244   0.00000  Uiso   1.00
C916   C     0.86589   0.23161   0.58977   0.00000  Uiso   1.00
C917   C     0.87537   0.03742   0.60433   0.00000  Uiso   1.00
C918   C     0.71416   0.24219   0.98299   0.00000  Uiso   1.00
C919   C     0.89856   0.20787   0.90118   0.00000  Uiso   1.00
C920   C     0.81232   0.18077   0.96052   0.00000  Uiso   1.00
C921   C     0.77669   0.20266   0.98196   0.00000  Uiso   1.00
C922   C     0.83193   0.15874   0.98095   0.00000  Uiso   1.00
C923   C     0.82313   0.16682   0.52241   0.00000  Uiso   1.00
C924   C     0.78843   0.18966   0.54289   0.00000  Uiso   1.00
C925   C     0.76520   0.20645   0.52314   0.00000  Uiso   1.00
H926   H     0.73806   0.22243   0.54070   0.00000  Uiso   1.00
H927   H     0.99343   0.25521   0.72693   0.00000  Uiso   1.00
H928   H     0.71675   0.26148   0.70191   0.00000  Uiso   1.00
H929   H     0.91331   0.32048   0.69563   0.00000  Uiso   1.00
H930   H     0.88291   0.02670   0.69106   0.00000  Uiso   1.00
H931   H     0.90857   0.03299   0.73031   0.00000  Uiso   1.00
H932   H     0.87273   0.23512   0.55799   0.00000  Uiso   1.00
H933   H     0.89605   0.22724   0.59661   0.00000  Uiso   1.00
H934   H     0.85492   0.26121   0.60653   0.00000  Uiso   1.00
H935   H     0.87900   0.01965   0.57481   0.00000  Uiso   1.00
H936   H     0.84055   0.03958   0.61969   0.00000  Uiso   1.00
H937   H     0.90704   0.06683   0.52578   0.00000  Uiso   1.00
H938   H     0.88795   0.01929   0.62159   0.00000  Uiso   1.00
H939   H     0.69962   0.25311   0.96232   0.00000  Uiso   1.00
H940   H     0.68890   0.22086   0.50154   0.00000  Uiso   1.00
H941   H     0.72396   0.27004   0.50173   0.00000  Uiso   1.00
H942   H     0.89949   0.21734   0.93210   0.00000  Uiso   1.00
H943   H     0.89148   0.23439   0.88855   0.00000  Uiso   1.00
H944   H     0.93125   0.20020   0.88387   0.00000  Uiso   1.00
H945   H     0.98460   0.13831   0.78297   0.00000  Uiso   1.00
H946   H     0.78835   0.33048   0.77922   0.00000  Uiso   1.00
H947   H     0.89293   0.07864   0.96602   0.00000  Uiso   1.00
H948   H     0.74552   0.22545   0.90502   0.00000  Uiso   1.00
H949   H     0.77616   0.19215   0.57447   0.00000  Uiso   1.00
H950   H     0.85949   0.11435   0.93127   0.00000  Uiso   1.00
H951   H     0.70012   0.25025   0.75210   0.00000  Uiso   1.00
O952   O     0.83333   0.16667   0.75000   0.00000  Uiso   1.00
O953   O     0.82360   0.12393   0.66625   0.00000  Uiso   1.00
O954   O     0.79354   0.20646   0.83749   0.00000  Uiso   1.00
O955   O     0.87755   0.17493   0.65877   0.00000  Uiso   1.00
O956   O     0.83865   0.16135   0.83749   0.00000  Uiso   1.00
O957   O     0.69047   0.20078   0.71005   0.00000  Uiso   1.00
O958   O     0.83281   0.19861   0.60134   0.00000  Uiso   1.00
O959   O     0.89948   0.07741   0.60207   0.00000  Uiso   1.00
O960   O     0.86845   0.17216   0.89847   0.00000  Uiso   1.00
O961   O     0.84515   0.08101   0.77820   0.00000  Uiso   1.00
O962   O     0.81247   0.26136   0.76767   0.00000  Uiso   1.00
O963   O     0.74119   0.13251   0.73607   0.00000  Uiso   1.00
O964   O     0.93452   0.19179   0.71805   0.00000  Uiso   1.00
O965   O     0.73656   0.18960   0.77820   0.00000  Uiso   1.00
O966   O     0.92106   0.15277   0.76767   0.00000  Uiso   1.00
O967   O     0.80467   0.06903   0.73607   0.00000  Uiso   1.00
O968   O     0.87104   0.25527   0.71805   0.00000  Uiso   1.00
Zn969  Zn    0.85910   0.14090   0.78277   0.00000  Uiso   1.00
Zn970  Zn    0.80125   0.12378   0.72257   0.00000  Uiso   1.00
Zn971  Zn    0.87833   0.19664   0.71188   0.00000  Uiso   1.00
Zn972  Zn    0.79465   0.20535   0.78277   0.00000  Uiso   1.00
C973   C     0.05246   0.49302   0.75884   0.00000  Uiso   1.00
C974   C     0.19008   0.45937   0.96158   0.00000  Uiso   1.00
C975   C     0.20854   0.43769   0.98177   0.00000  Uiso   1.00
C976   C     0.28110   0.50733   0.74133   0.00000  Uiso   1.00
C977   C     0.20396   0.44855   0.52172   0.00000  Uiso   1.00
C978   C     0.17989   0.48168   0.54223   0.00000  Uiso   1.00
C979   C     0.22228   0.42562   0.54154   0.00000  Uiso   1.00
C980   C     0.21605   0.43427   0.58207   0.00000  Uiso   1.00
C981   C     0.18054   0.49479   0.58168   0.00000  Uiso   1.00
C982   C     0.32731   0.51158   0.73840   0.00000  Uiso   1.00
C983   C     0.00720   0.49077   0.76155   0.00000  Uiso   1.00
C984   C     0.09828   0.54776   0.92056   0.00000  Uiso   1.00
C985   C     0.18326   0.65622   0.73903   0.00000  Uiso   1.00
C986   C     0.15173   0.34521   0.76102   0.00000  Uiso   1.00
C987   C     0.15520   0.38954   0.75931   0.00000  Uiso   1.00
C988   C     0.17732   0.61117   0.74145   0.00000  Uiso   1.00
C989   C     0.18827   0.47844   0.64406   0.00000  Uiso   1.00
C990   C     0.14573   0.52137   0.85607   0.00000  Uiso   1.00
C991   C     0.13504   0.52871   0.89927   0.00000  Uiso   1.00
C992   C     0.19628   0.46963   0.60169   0.00000  Uiso   1.00
C993   C     0.08632   0.55300   0.96167   0.00000  Uiso   1.00
C994   C     0.02478   0.57699   0.72378   0.00000  Uiso   1.00
C995   C     0.16085   0.51537   0.91932   0.00000  Uiso   1.00
C996   C     0.22437   0.34345   0.71244   0.00000  Uiso   1.00
C997   C     0.19922   0.56495   0.58977   0.00000  Uiso   1.00
C998   C     0.20870   0.37075   0.60433   0.00000  Uiso   1.00
C999   C     0.04750   0.57552   0.98299   0.00000  Uiso   1.00
C1000  C     0.23189   0.54120   0.90118   0.00000  Uiso   1.00
C1001  C     0.14566   0.51410   0.96052   0.00000  Uiso   1.00
C1002  C     0.11002   0.53599   0.98196   0.00000  Uiso   1.00
C1003  C     0.16527   0.49207   0.98095   0.00000  Uiso   1.00
C1004  C     0.15647   0.50015   0.52241   0.00000  Uiso   1.00
C1005  C     0.12176   0.52300   0.54289   0.00000  Uiso   1.00
C1006  C     0.09854   0.53978   0.52314   0.00000  Uiso   1.00
H1007  H     0.07140   0.55577   0.54070   0.00000  Uiso   1.00
H1008  H     0.32676   0.58854   0.72693   0.00000  Uiso   1.00
H1009  H     0.05008   0.59481   0.70191   0.00000  Uiso   1.00
H1010  H     0.24664   0.65382   0.69563   0.00000  Uiso   1.00
H1011  H     0.21625   0.36003   0.69106   0.00000  Uiso   1.00
H1012  H     0.24191   0.36632   0.73031   0.00000  Uiso   1.00
H1013  H     0.20607   0.56845   0.55799   0.00000  Uiso   1.00
H1014  H     0.22938   0.56057   0.59661   0.00000  Uiso   1.00
H1015  H     0.18825   0.59454   0.60653   0.00000  Uiso   1.00
H1016  H     0.21233   0.35299   0.57481   0.00000  Uiso   1.00
H1017  H     0.17388   0.37291   0.61969   0.00000  Uiso   1.00
H1018  H     0.24037   0.40017   0.52578   0.00000  Uiso   1.00
H1019  H     0.22128   0.35262   0.62159   0.00000  Uiso   1.00
H1020  H     0.03295   0.58645   0.96232   0.00000  Uiso   1.00
H1021  H     0.02223   0.55419   0.50154   0.00000  Uiso   1.00
H1022  H     0.05729   0.60337   0.50173   0.00000  Uiso   1.00
H1023  H     0.23282   0.55067   0.93210   0.00000  Uiso   1.00
H1024  H     0.22481   0.56772   0.88855   0.00000  Uiso   1.00
H1025  H     0.26459   0.53353   0.88387   0.00000  Uiso   1.00
H1026  H     0.31793   0.47164   0.78297   0.00000  Uiso   1.00
H1027  H     0.12168   0.66381   0.77922   0.00000  Uiso   1.00
H1028  H     0.22626   0.41197   0.96602   0.00000  Uiso   1.00
H1029  H     0.07885   0.55879   0.90502   0.00000  Uiso   1.00
H1030  H     0.10949   0.52548   0.57447   0.00000  Uiso   1.00
H1031  H     0.19282   0.44768   0.93127   0.00000  Uiso   1.00
H1032  H     0.03345   0.58359   0.75210   0.00000  Uiso   1.00
O1033  O     0.16667   0.50000   0.75000   0.00000  Uiso   1.00
O1034  O     0.15693   0.45726   0.66625   0.00000  Uiso   1.00
O1035  O     0.12687   0.53979   0.83749   0.00000  Uiso   1.00
O1036  O     0.21088   0.50826   0.65877   0.00000  Uiso   1.00
O1037  O     0.17198   0.49468   0.83749   0.00000  Uiso   1.00
O1038  O     0.02380   0.53412   0.71005   0.00000  Uiso   1.00
O1039  O     0.16614   0.53195   0.60134   0.00000  Uiso   1.00
O1040  O     0.23281   0.41074   0.60207   0.00000  Uiso   1.00
O1041  O     0.20178   0.50550   0.89847   0.00000  Uiso   1.00
O1042  O     0.17849   0.41434   0.77820   0.00000  Uiso   1.00
O1043  O     0.14581   0.59469   0.76767   0.00000  Uiso   1.00
O1044  O     0.07452   0.46584   0.73607   0.00000  Uiso   1.00
O1045  O     0.26785   0.52512   0.71805   0.00000  Uiso   1.00
O1046  O     0.06990   0.52293   0.77820   0.00000  Uiso   1.00
O1047  O     0.25440   0.48610   0.76767   0.00000  Uiso   1.00
O1048  O     0.13800   0.40236   0.73607   0.00000  Uiso   1.00
O1049  O     0.20437   0.58860   0.71805   0.00000  Uiso   1.00
Zn1050 Zn    0.19244   0.47423   0.78277   0.00000  Uiso   1.00
Zn1051 Zn    0.13459   0.45711   0.72257   0.00000  Uiso   1.00
Zn1052 Zn    0.21166   0.52997   0.71188   0.00000  Uiso   1.00
Zn1053 Zn    0.12798   0.53868   0.78277   0.00000  Uiso   1.00
C1054  C     0.38579   0.49302   0.75884   0.00000  Uiso   1.00
C1055  C     0.52341   0.45937   0.96158   0.00000  Uiso   1.00
C1056  C     0.54187   0.43769   0.98177   0.00000  Uiso   1.00
C1057  C     0.61443   0.50733   0.74133   0.00000  Uiso   1.00
C1058  C     0.53729   0.44855   0.52172   0.00000  Uiso   1.00
C1059  C     0.51322   0.48168   0.54223   0.00000  Uiso   1.00
C1060  C     0.55561   0.42562   0.54154   0.00000  Uiso   1.00
C1061  C     0.54938   0.43427   0.58207   0.00000  Uiso   1.00
C1062  C     0.51387   0.49479   0.58168   0.00000  Uiso   1.00
C1063  C     0.66064   0.51158   0.73840   0.00000  Uiso   1.00
C1064  C     0.34053   0.49077   0.76155   0.00000  Uiso   1.00
C1065  C     0.43161   0.54776   0.92056   0.00000  Uiso   1.00
C1066  C     0.51659   0.65622   0.73903   0.00000  Uiso   1.00
C1067  C     0.48506   0.34521   0.76102   0.00000  Uiso   1.00
C1068  C     0.48854   0.38954   0.75931   0.00000  Uiso   1.00
C1069  C     0.51065   0.61117   0.74145   0.00000  Uiso   1.00
C1070  C     0.52161   0.47844   0.64406   0.00000  Uiso   1.00
C1071  C     0.47906   0.52137   0.85607   0.00000  Uiso   1.00
C1072  C     0.46838   0.52871   0.89927   0.00000  Uiso   1.00
C1073  C     0.52962   0.46963   0.60169   0.00000  Uiso   1.00
C1074  C     0.41965   0.55300   0.96167   0.00000  Uiso   1.00
C1075  C     0.35811   0.57699   0.72378   0.00000  Uiso   1.00
C1076  C     0.49418   0.51537   0.91932   0.00000  Uiso   1.00
C1077  C     0.55771   0.34345   0.71244   0.00000  Uiso   1.00
C1078  C     0.53255   0.56495   0.58977   0.00000  Uiso   1.00
C1079  C     0.54203   0.37075   0.60433   0.00000  Uiso   1.00
C1080  C     0.38083   0.57552   0.98299   0.00000  Uiso   1.00
C1081  C     0.56523   0.54120   0.90118   0.00000  Uiso   1.00
C1082  C     0.47899   0.51410   0.96052   0.00000  Uiso   1.00
C1083  C     0.44335   0.53599   0.98196   0.00000  Uiso   1.00
C1084  C     0.49860   0.49207   0.98095   0.00000  Uiso   1.00
C1085  C     0.48980   0.50015   0.52241   0.00000  Uiso   1.00
C1086  C     0.45509   0.52300   0.54289   0.00000  Uiso   1.00
C1087  C     0.43187   0.53978   0.52314   0.00000  Uiso   1.00
H1088  H     0.40473   0.55577   0.54070   0.00000  Uiso   1.00
H1089  H     0.66009   0.58854   0.72693   0.00000  Uiso   1.00
H1090  H     0.38341   0.59481   0.70191   0.00000  Uiso   1.00
H1091  H     0.57998   0.65382   0.69563   0.00000  Uiso   1.00
H1092  H     0.54958   0.36003   0.69106   0.00000  Uiso   1.00
H1093  H     0.57524   0.36632   0.73031   0.00000  Uiso   1.00
H1094  H     0.53940   0.56845   0.55799   0.00000  Uiso   1.00
H1095  H     0.56272   0.56057   0.59661   0.00000  Uiso   1.00
H1096  H     0.52158   0.59454   0.60653   0.00000  Uiso   1.00
H1097  H     0.54566   0.35299   0.57481   0.00000  Uiso   1.00
H1098  H     0.50722   0.37291   0.61969   0.00000  Uiso   1.00
H1099  H     0.57371   0.40017   0.52578   0.00000  Uiso   1.00
H1100  H     0.55462   0.35262   0.62159   0.00000  Uiso   1.00
H1101  H     0.36628   0.58645   0.96232   0.00000  Uiso   1.00
H1102  H     0.35556   0.55419   0.50154   0.00000  Uiso   1.00
H1103  H     0.39062   0.60337   0.50173   0.00000  Uiso   1.00
H1104  H     0.56615   0.55067   0.93210   0.00000  Uiso   1.00
H1105  H     0.55814   0.56772   0.88855   0.00000  Uiso   1.00
H1106  H     0.59792   0.53353   0.88387   0.00000  Uiso   1.00
H1107  H     0.65127   0.47164   0.78297   0.00000  Uiso   1.00
H1108  H     0.45501   0.66381   0.77922   0.00000  Uiso   1.00
H1109  H     0.55959   0.41197   0.96602   0.00000  Uiso   1.00
H1110  H     0.41218   0.55879   0.90502   0.00000  Uiso   1.00
H1111  H     0.44282   0.52548   0.57447   0.00000  Uiso   1.00
H1112  H     0.52616   0.44768   0.93127   0.00000  Uiso   1.00
H1113  H     0.36679   0.58359   0.75210   0.00000  Uiso   1.00
O1114  O     0.50000   0.50000   0.75000   0.00000  Uiso   1.00
O1115  O     0.49027   0.45726   0.66625   0.00000  Uiso   1.00
O1116  O     0.46020   0.53979   0.83749   0.00000  Uiso   1.00
O1117  O     0.54421   0.50826   0.65877   0.00000  Uiso   1.00
O1118  O     0.50532   0.49468   0.83749   0.00000  Uiso   1.00
O1119  O     0.35713   0.53412   0.71005   0.00000  Uiso   1.00
O1120  O     0.49947   0.53195   0.60134   0.00000  Uiso   1.00
O1121  O     0.56615   0.41074   0.60207   0.00000  Uiso   1.00
O1122  O     0.53512   0.50550   0.89847   0.00000  Uiso   1.00
O1123  O     0.51182   0.41434   0.77820   0.00000  Uiso   1.00
O1124  O     0.47914   0.59469   0.76767   0.00000  Uiso   1.00
O1125  O     0.40785   0.46584   0.73607   0.00000  Uiso   1.00
O1126  O     0.60119   0.52512   0.71805   0.00000  Uiso   1.00
O1127  O     0.40323   0.52293   0.77820   0.00000  Uiso   1.00
O1128  O     0.58773   0.48610   0.76767   0.00000  Uiso   1.00
O1129  O     0.47133   0.40236   0.73607   0.00000  Uiso   1.00
O1130  O     0.53771   0.58860   0.71805   0.00000  Uiso   1.00
Zn1131 Zn    0.52577   0.47423   0.78277   0.00000  Uiso   1.00
Zn1132 Zn    0.46792   0.45711   0.72257   0.00000  Uiso   1.00
Zn1133 Zn    0.54500   0.52997   0.71188   0.00000  Uiso   1.00
Zn1134 Zn    0.46131   0.53868   0.78277   0.00000  Uiso   1.00
C1135  C     0.71912   0.49302   0.75884   0.00000  Uiso   1.00
C1136  C     0.85674   0.45937   0.96158   0.00000  Uiso   1.00
C1137  C     0.87521   0.43769   0.98177   0.00000  Uiso   1.00
C1138  C     0.94776   0.50733   0.74133   0.00000  Uiso   1.00
C1139  C     0.87063   0.44855   0.52172   0.00000  Uiso   1.00
C1140  C     0.84656   0.48168   0.54223   0.00000  Uiso   1.00
C1141  C     0.88894   0.42562   0.54154   0.00000  Uiso   1.00
C1142  C     0.88271   0.43427   0.58207   0.00000  Uiso   1.00
C1143  C     0.84721   0.49479   0.58168   0.00000  Uiso   1.00
C1144  C     0.99398   0.51158   0.73840   0.00000  Uiso   1.00
C1145  C     0.67386   0.49077   0.76155   0.00000  Uiso   1.00
C1146  C     0.76494   0.54776   0.92056   0.00000  Uiso   1.00
C1147  C     0.84992   0.65622   0.73903   0.00000  Uiso   1.00
C1148  C     0.81839   0.34521   0.76102   0.00000  Uiso   1.00
C1149  C     0.82187   0.38954   0.75931   0.00000  Uiso   1.00
C1150  C     0.84399   0.61117   0.74145   0.00000  Uiso   1.00
C1151  C     0.85494   0.47844   0.64406   0.00000  Uiso   1.00
C1152  C     0.81240   0.52137   0.85607   0.00000  Uiso   1.00
C1153  C     0.80171   0.52871   0.89927   0.00000  Uiso   1.00
C1154  C     0.86295   0.46963   0.60169   0.00000  Uiso   1.00
C1155  C     0.75299   0.55300   0.96167   0.00000  Uiso   1.00
C1156  C     0.69144   0.57699   0.72378   0.00000  Uiso   1.00
C1157  C     0.82751   0.51537   0.91932   0.00000  Uiso   1.00
C1158  C     0.89104   0.34345   0.71244   0.00000  Uiso   1.00
C1159  C     0.86589   0.56495   0.58977   0.00000  Uiso   1.00
C1160  C     0.87537   0.37075   0.60433   0.00000  Uiso   1.00
C1161  C     0.71416   0.57552   0.98299   0.00000  Uiso   1.00
C1162  C     0.89856   0.54120   0.90118   0.00000  Uiso   1.00
C1163  C     0.81232   0.51410   0.96052   0.00000  Uiso   1.00
C1164  C     0.77669   0.53599   0.98196   0.00000  Uiso   1.00
C1165  C     0.83193   0.49207   0.98095   0.00000  Uiso   1.00
C1166  C     0.82313   0.50015   0.52241   0.00000  Uiso   1.00
C1167  C     0.78843   0.52300   0.54289   0.00000  Uiso   1.00
C1168  C     0.76520   0.53978   0.52314   0.00000  Uiso   1.00
H1169  H     0.73806   0.55577   0.54070   0.00000  Uiso   1.00
H1170  H     0.99343   0.58854   0.72693   0.00000  Uiso   1.00
H1171  H     0.71675   0.59481   0.70191   0.00000  Uiso   1.00
H1172  H     0.91331   0.65382   0.69563   0.00000  Uiso   1.00
H1173  H     0.88291   0.36003   0.69106   0.00000  Uiso   1.00
H1174  H     0.90857   0.36632   0.73031   0.00000  Uiso   1.00
H1175  H     0.87273   0.56845   0.55799   0.00000  Uiso   1.00
H1176  H     0.89605   0.56057   0.59661   0.00000  Uiso   1.00
H1177  H     0.85492   0.59454   0.60653   0.00000  Uiso   1.00
H1178  H     0.87900   0.35299   0.57481   0.00000  Uiso   1.00
H1179  H     0.84055   0.37291   0.61969   0.00000  Uiso   1.00
H1180  H     0.90704   0.40017   0.52578   0.00000  Uiso   1.00
H1181  H     0.88795   0.35262   0.62159   0.00000  Uiso   1.00
H1182  H     0.69962   0.58645   0.96232   0.00000  Uiso   1.00
H1183  H     0.68890   0.55419   0.50154   0.00000  Uiso   1.00
H1184  H     0.72396   0.60337   0.50173   0.00000  Uiso   1.00
H1185  H     0.89949   0.55067   0.93210   0.00000  Uiso   1.00
H1186  H     0.89148   0.56772   0.88855   0.00000  Uiso   1.00
H1187  H     0.93125   0.53353   0.88387   0.00000  Uiso   1.00
H1188  H     0.98460   0.47164   0.78297   0.00000  Uiso   1.00
H1189  H     0.78835   0.66381   0.77922   0.00000  Uiso   1.00
H1190  H     0.89293   0.41197   0.96602   0.00000  Uiso   1.00
H1191  H     0.74552   0.55879   0.90502   0.00000  Uiso   1.00
H1192  H     0.77616   0.52548   0.57447   0.00000  Uiso   1.00
H1193  H     0.85949   0.44768   0.93127   0.00000  Uiso   1.00
H1194  H     0.70012   0.58359   0.75210   0.00000  Uiso   1.00
O1195  O     0.83333   0.50000   0.75000   0.00000  Uiso   1.00
O1196  O     0.82360   0.45726   0.66625   0.00000  Uiso   1.00
O1197  O     0.79354   0.53979   0.83749   0.00000  Uiso   1.00
O1198  O     0.87755   0.50826   0.65877   0.00000  Uiso   1.00
O1199  O     0.83865   0.49468   0.83749   0.00000  Uiso   1.00
O1200  O     0.69047   0.53412   0.71005   0.00000  Uiso   1.00
O1201  O     0.83281   0.53195   0.60134   0.00000  Uiso   1.00
O1202  O     0.89948   0.41074   0.60207   0.00000  Uiso   1.00
O1203  O     0.86845   0.50550   0.89847   0.00000  Uiso   1.00
O1204  O     0.84515   0.41434   0.77820   0.00000  Uiso   1.00
O1205  O     0.81247   0.59469   0.76767   0.00000  Uiso   1.00
O1206  O     0.74119   0.46584   0.73607   0.00000  Uiso   1.00
O1207  O     0.93452   0.52512   0.71805   0.00000  Uiso   1.00
O1208  O     0.73656   0.52293   0.77820   0.00000  Uiso   1.00
O1209  O     0.92106   0.48610   0.76767   0.00000  Uiso   1.00
O1210  O     0.80467   0.40236   0.73607   0.00000  Uiso   1.00
O1211  O     0.87104   0.58860   0.71805   0.00000  Uiso   1.00
Zn1212 Zn    0.85910   0.47423   0.78277   0.00000  Uiso   1.00
Zn1213 Zn    0.80125   0.45711   0.72257   0.00000  Uiso   1.00
Zn1214 Zn    0.87833   0.52997   0.71188   0.00000  Uiso   1.00
Zn1215 Zn    0.79465   0.53868   0.78277   0.00000  Uiso   1.00
C1216  C     0.05246   0.82636   0.75884   0.00000  Uiso   1.00
C1217  C     0.19008   0.79270   0.96158   0.00000  Uiso   1.00
C1218  C     0.20854   0.77102   0.98177   0.00000  Uiso   1.00
C1219  C     0.28110   0.84067   0.74133   0.00000  Uiso   1.00
C1220  C     0.20396   0.78188   0.52172   0.00000  Uiso   1.00
C1221  C     0.17989   0.81501   0.54223   0.00000  Uiso   1.00
C1222  C     0.22228   0.75896   0.54154   0.00000  Uiso   1.00
C1223  C     0.21605   0.76760   0.58207   0.00000  Uiso   1.00
C1224  C     0.18054   0.82812   0.58168   0.00000  Uiso   1.00
C1225  C     0.32731   0.84491   0.73840   0.00000  Uiso   1.00
C1226  C     0.00720   0.82410   0.76155   0.00000  Uiso   1.00
C1227  C     0.09828   0.88109   0.92056   0.00000  Uiso   1.00
C1228  C     0.18326   0.98956   0.73903   0.00000  Uiso   1.00
C1229  C     0.15173   0.67854   0.76102   0.00000  Uiso   1.00
C1230  C     0.15520   0.72287   0.75931   0.00000  Uiso   1.00
C1231  C     0.17732   0.94450   0.74145   0.00000  Uiso   1.00
C1232  C     0.18827   0.81178   0.64406   0.00000  Uiso   1.00
C1233  C     0.14573   0.85470   0.85607   0.00000  Uiso   1.00
C1234  C     0.13504   0.86204   0.89927   0.00000  Uiso   1.00
C1235  C     0.19628   0.80296   0.60169   0.00000  Uiso   1.00
C1236  C     0.08632   0.88634   0.96167   0.00000  Uiso   1.00
C1237  C     0.02478   0.91032   0.72378   0.00000  Uiso   1.00
C1238  C     0.16085   0.84871   0.91932   0.00000  Uiso   1.00
C1239  C     0.22437   0.67678   0.71244   0.00000  Uiso   1.00
C1240  C     0.19922   0.89828   0.58977   0.00000  Uiso   1.00
C1241  C     0.20870   0.70408   0.60433   0.00000  Uiso   1.00
C1242  C     0.04750   0.90885   0.98299   0.00000  Uiso   1.00
C1243  C     0.23189   0.87454   0.90118   0.00000  Uiso   1.00
C1244  C     0.14566   0.84743   0.96052   0.00000  Uiso   1.00
C1245  C     0.11002   0.86933   0.98196   0.00000  Uiso   1.00
C1246  C     0.16527   0.82540   0.98095   0.00000  Uiso   1.00
C1247  C     0.15647   0.83348   0.52241   0.00000  Uiso   1.00
C1248  C     0.12176   0.85633   0.54289   0.00000  Uiso   1.00
C1249  C     0.09854   0.87311   0.52314   0.00000  Uiso   1.00
H1250  H     0.07140   0.88910   0.54070   0.00000  Uiso   1.00
H1251  H     0.32676   0.92188   0.72693   0.00000  Uiso   1.00
H1252  H     0.05008   0.92814   0.70191   0.00000  Uiso   1.00
H1253  H     0.24664   0.98715   0.69563   0.00000  Uiso   1.00
H1254  H     0.21625   0.69336   0.69106   0.00000  Uiso   1.00
H1255  H     0.24191   0.69965   0.73031   0.00000  Uiso   1.00
H1256  H     0.20607   0.90179   0.55799   0.00000  Uiso   1.00
H1257  H     0.22938   0.89391   0.59661   0.00000  Uiso   1.00
H1258  H     0.18825   0.92788   0.60653   0.00000  Uiso   1.00
H1259  H     0.21233   0.68632   0.57481   0.00000  Uiso   1.00
H1260  H     0.17388   0.70625   0.61969   0.00000  Uiso   1.00
H1261  H     0.24037   0.73350   0.52578   0.00000  Uiso   1.00
H1262  H     0.22128   0.68596   0.62159   0.00000  Uiso   1.00
H1263  H     0.03295   0.91978   0.96232   0.00000  Uiso   1.00
H1264  H     0.02223   0.88753   0.50154   0.00000  Uiso   1.00
H1265  H     0.05729   0.93671   0.50173   0.00000  Uiso   1.00
H1266  H     0.23282   0.88400   0.93210   0.00000  Uiso   1.00
H1267  H     0.22481   0.90105   0.88855   0.00000  Uiso   1.00
H1268  H     0.26459   0.86686   0.88387   0.00000  Uiso   1.00
H1269  H     0.31793   0.80497   0.78297   0.00000  Uiso   1.00
H1270  H     0.12168   0.99715   0.77922   0.00000  Uiso   1.00
H1271  H     0.22626   0.74531   0.96602   0.00000  Uiso   1.00
H1272  H     0.07885   0.89212   0.90502   0.00000  Uiso   1.00
H1273  H     0.10949   0.85881   0.57447   0.00000  Uiso   1.00
H1274  H     0.19282   0.78101   0.93127   0.00000  Uiso   1.00
H1275  H     0.03345   0.91692   0.75210   0.00000  Uiso   1.00
O1276  O     0.16667   0.83333   0.75000   0.00000  Uiso   1.00
O1277  O     0.15693   0.79060   0.66625   0.00000  Uiso   1.00
O1278  O     0.12687   0.87313   0.83749   0.00000  Uiso   1.00
O1279  O     0.21088   0.84159   0.65877   0.00000  Uiso   1.00
O1280  O     0.17198   0.82802   0.83749   0.00000  Uiso   1.00
O1281  O     0.02380   0.86745   0.71005   0.00000  Uiso   1.00
O1282  O     0.16614   0.86528   0.60134   0.00000  Uiso   1.00
O1283  O     0.23281   0.74407   0.60207   0.00000  Uiso   1.00
O1284  O     0.20178   0.83883   0.89847   0.00000  Uiso   1.00
O1285  O     0.17849   0.74768   0.77820   0.00000  Uiso   1.00
O1286  O     0.14581   0.92803   0.76767   0.00000  Uiso   1.00
O1287  O     0.07452   0.79917   0.73607   0.00000  Uiso   1.00
O1288  O     0.26785   0.85845   0.71805   0.00000  Uiso   1.00
O1289  O     0.06990   0.85627   0.77820   0.00000  Uiso   1.00
O1290  O     0.25440   0.81944   0.76767   0.00000  Uiso   1.00
O1291  O     0.13800   0.73570   0.73607   0.00000  Uiso   1.00
O1292  O     0.20437   0.92193   0.71805   0.00000  Uiso   1.00
Zn1293 Zn    0.19244   0.80756   0.78277   0.00000  Uiso   1.00
Zn1294 Zn    0.13459   0.79044   0.72257   0.00000  Uiso   1.00
Zn1295 Zn    0.21166   0.86331   0.71188   0.00000  Uiso   1.00
Zn1296 Zn    0.12798   0.87202   0.78277   0.00000  Uiso   1.00
C1297  C     0.38579   0.82636   0.75884   0.00000  Uiso   1.00
C1298  C     0.52341   0.79270   0.96158   0.00000  Uiso   1.00
C1299  C     0.54187   0.77102   0.98177   0.00000  Uiso   1.00
C1300  C     0.61443   0.84067   0.74133   0.00000  Uiso   1.00
C1301  C     0.53729   0.78188   0.52172   0.00000  Uiso   1.00
C1302  C     0.51322   0.81501   0.54223   0.00000  Uiso   1.00
C1303  C     0.55561   0.75896   0.54154   0.00000  Uiso   1.00
C1304  C     0.54938   0.76760   0.58207   0.00000  Uiso   1.00
C1305  C     0.51387   0.82812   0.58168   0.00000  Uiso   1.00
C1306  C     0.66064   0.84491   0.73840   0.00000  Uiso   1.00
C1307  C     0.34053   0.82410   0.76155   0.00000  Uiso   1.00
C1308  C     0.43161   0.88109   0.92056   0.00000  Uiso   1.00
C1309  C     0.51659   0.98956   0.73903   0.00000  Uiso   1.00
C1310  C     0.48506   0.67854   0.76102   0.00000  Uiso   1.00
C1311  C     0.48854   0.72287   0.75931   0.00000  Uiso   1.00
C1312  C     0.51065   0.94450   0.74145   0.00000  Uiso   1.00
C1313  C     0.52161   0.81178   0.64406   0.00000  Uiso   1.00
C1314  C     0.47906   0.85470   0.85607   0.00000  Uiso   1.00
C1315  C     0.46838   0.86204   0.89927   0.00000  Uiso   1.00
C1316  C     0.52962   0.80296   0.60169   0.00000  Uiso   1.00
C1317  C     0.41965   0.88634   0.96167   0.00000  Uiso   1.00
C1318  C     0.35811   0.91032   0.72378   0.00000  Uiso   1.00
C1319  C     0.49418   0.84871   0.91932   0.00000  Uiso   1.00
C1320  C     0.55771   0.67678   0.71244   0.00000  Uiso   1.00
C1321  C     0.53255   0.89828   0.58977   0.00000  Uiso   1.00
C1322  C     0.54203   0.70408   0.60433   0.00000  Uiso   1.00
C1323  C     0.38083   0.90885   0.98299   0.00000  Uiso   1.00
C1324  C     0.56523   0.87454   0.90118   0.00000  Uiso   1.00
C1325  C     0.47899   0.84743   0.96052   0.00000  Uiso   1.00
C1326  C     0.44335   0.86933   0.98196   0.00000  Uiso   1.00
C1327  C     0.49860   0.82540   0.98095   0.00000  Uiso   1.00
C1328  C     0.48980   0.83348   0.52241   0.00000  Uiso   1.00
C1329  C     0.45509   0.85633   0.54289   0.00000  Uiso   1.00
C1330  C     0.43187   0.87311   0.52314   0.00000  Uiso   1.00
H1331  H     0.40473   0.88910   0.54070   0.00000  Uiso   1.00
H1332  H     0.66009   0.92188   0.72693   0.00000  Uiso   1.00
H1333  H     0.38341   0.92814   0.70191   0.00000  Uiso   1.00
H1334  H     0.57998   0.98715   0.69563   0.00000  Uiso   1.00
H1335  H     0.54958   0.69336   0.69106   0.00000  Uiso   1.00
H1336  H     0.57524   0.69965   0.73031   0.00000  Uiso   1.00
H1337  H     0.53940   0.90179   0.55799   0.00000  Uiso   1.00
H1338  H     0.56272   0.89391   0.59661   0.00000  Uiso   1.00
H1339  H     0.52158   0.92788   0.60653   0.00000  Uiso   1.00
H1340  H     0.54566   0.68632   0.57481   0.00000  Uiso   1.00
H1341  H     0.50722   0.70625   0.61969   0.00000  Uiso   1.00
H1342  H     0.57371   0.73350   0.52578   0.00000  Uiso   1.00
H1343  H     0.55462   0.68596   0.62159   0.00000  Uiso   1.00
H1344  H     0.36628   0.91978   0.96232   0.00000  Uiso   1.00
H1345  H     0.35556   0.88753   0.50154   0.00000  Uiso   1.00
H1346  H     0.39062   0.93671   0.50173   0.00000  Uiso   1.00
H1347  H     0.56615   0.88400   0.93210   0.00000  Uiso   1.00
H1348  H     0.55814   0.90105   0.88855   0.00000  Uiso   1.00
H1349  H     0.59792   0.86686   0.88387   0.00000  Uiso   1.00
H1350  H     0.65127   0.80497   0.78297   0.00000  Uiso   1.00
H1351  H     0.45501   0.99715   0.77922   0.00000  Uiso   1.00
H1352  H     0.55959   0.74531   0.96602   0.00000  Uiso   1.00
H1353  H     0.41218   0.89212   0.90502   0.00000  Uiso   1.00
H1354  H     0.44282   0.85881   0.57447   0.00000  Uiso   1.00
H1355  H     0.52616   0.78101   0.93127   0.00000  Uiso   1.00
H1356  H     0.36679   0.91692   0.75210   0.00000  Uiso   1.00
O1357  O     0.50000   0.83333   0.75000   0.00000  Uiso   1.00
O1358  O     0.49027   0.79060   0.66625   0.00000  Uiso   1.00
O1359  O     0.46020   0.87313   0.83749   0.00000  Uiso   1.00
O1360  O     0.54421   0.84159   0.65877   0.00000  Uiso   1.00
O1361  O     0.50532   0.82802   0.83749   0.00000  Uiso   1.00
O1362  O     0.35713   0.86745   0.71005   0.00000  Uiso   1.00
O1363  O     0.49947   0.86528   0.60134   0.00000  Uiso   1.00
O1364  O     0.56615   0.74407   0.60207   0.00000  Uiso   1.00
O1365  O     0.53512   0.83883   0.89847   0.00000  Uiso   1.00
O1366  O     0.51182   0.74768   0.77820   0.00000  Uiso   1.00
O1367  O     0.47914   0.92803   0.76767   0.00000  Uiso   1.00
O1368  O     0.40785   0.79917   0.73607   0.00000  Uiso   1.00
O1369  O     0.60119   0.85845   0.71805   0.00000  Uiso   1.00
O1370  O     0.40323   0.85627   0.77820   0.00000  Uiso   1.00
O1371  O     0.58773   0.81944   0.76767   0.00000  Uiso   1.00
O1372  O     0.47133   0.73570   0.73607   0.00000  Uiso   1.00
O1373  O     0.53771   0.92193   0.71805   0.00000  Uiso   1.00
Zn1374 Zn    0.52577   0.80756   0.78277   0.00000  Uiso   1.00
Zn1375 Zn    0.46792   0.79044   0.72257   0.00000  Uiso   1.00
Zn1376 Zn    0.54500   0.86331   0.71188   0.00000  Uiso   1.00
Zn1377 Zn    0.46131   0.87202   0.78277   0.00000  Uiso   1.00
C1378  C     0.71912   0.82636   0.75884   0.00000  Uiso   1.00
C1379  C     0.85674   0.79270   0.96158   0.00000  Uiso   1.00
C1380  C     0.87521   0.77102   0.98177   0.00000  Uiso   1.00
C1381  C     0.94776   0.84067   0.74133   0.00000  Uiso   1.00
C1382  C     0.87063   0.78188   0.52172   0.00000  Uiso   1.00
C1383  C     0.84656   0.81501   0.54223   0.00000  Uiso   1.00
C1384  C     0.88894   0.75896   0.54154   0.00000  Uiso   1.00
C1385  C     0.88271   0.76760   0.58207   0.00000  Uiso   1.00
C1386  C     0.84721   0.82812   0.58168   0.00000  Uiso   1.00
C1387  C     0.99398   0.84491   0.73840   0.00000  Uiso   1.00
C1388  C     0.67386   0.82410   0.76155   0.00000  Uiso   1.00
C1389  C     0.76494   0.88109   0.92056   0.00000  Uiso   1.00
C1390  C     0.84992   0.98956   0.73903   0.00000  Uiso   1.00
C1391  C     0.81839   0.67854   0.76102   0.00000  Uiso   1.00
C1392  C     0.82187   0.72287   0.75931   0.00000  Uiso   1.00
C1393  C     0.84399   0.94450   0.74145   0.00000  Uiso   1.00
C1394  C     0.85494   0.81178   0.64406   0.00000  Uiso   1.00
C1395  C     0.81240   0.85470   0.85607   0.00000  Uiso   1.00
C1396  C     0.80171   0.86204   0.89927   0.00000  Uiso   1.00
C1397  C     0.86295   0.80296   0.60169   0.00000  Uiso   1.00
C1398  C     0.75299   0.88634   0.96167   0.00000  Uiso   1.00
C1399  C     0.69144   0.91032   0.72378   0.00000  Uiso   1.00
C1400  C     0.82751   0.84871   0.91932   0.00000  Uiso   1.00
C1401  C     0.89104   0.67678   0.71244   0.00000  Uiso   1.00
C1402  C     0.86589   0.89828   0.58977   0.00000  Uiso   1.00
C1403  C     0.87537   0.70408   0.60433   0.00000  Uiso   1.00
C1404  C     0.71416   0.90885   0.98299   0.00000  Uiso   1.00
C1405  C     0.89856   0.87454   0.90118   0.00000  Uiso   1.00
C1406  C     0.81232   0.84743   0.96052   0.00000  Uiso   1.00
C1407  C     0.77669   0.86933   0.98196   0.00000  Uiso   1.00
C1408  C     0.83193   0.82540   0.98095   0.00000  Uiso   1.00
C1409  C     0.82313   0.83348   0.52241   0.00000  Uiso   1.00
C1410  C     0.78843   0.85633   0.54289   0.00000  Uiso   1.00
C1411  C     0.76520   0.87311   0.52314   0.00000  Uiso   1.00
H1412  H     0.73806   0.88910   0.54070   0.00000  Uiso   1.00
H1413  H     0.99343   0.92188   0.72693   0.00000  Uiso   1.00
H1414  H     0.71675   0.92814   0.70191   0.00000  Uiso   1.00
H1415  H     0.91331   0.98715   0.69563   0.00000  Uiso   1.00
H1416  H     0.88291   0.69336   0.69106   0.00000  Uiso   1.00
H1417  H     0.90857   0.69965   0.73031   0.00000  Uiso   1.00
H1418  H     0.87273   0.90179   0.55799   0.00000  Uiso   1.00
H1419  H     0.89605   0.89391   0.59661   0.00000  Uiso   1.00
H1420  H     0.85492   0.92788   0.60653   0.00000  Uiso   1.00
H1421  H     0.87900   0.68632   0.57481   0.00000  Uiso   1.00
H1422  H     0.84055   0.70625   0.61969   0.00000  Uiso   1.00
H1423  H     0.90704   0.73350   0.52578   0.00000  Uiso   1.00
H1424  H     0.88795   0.68596   0.62159   0.00000  Uiso   1.00
H1425  H     0.69962   0.91978   0.96232   0.00000  Uiso   1.00
H1426  H     0.68890   0.88753   0.50154   0.00000  Uiso   1.00
H1427  H     0.72396   0.93671   0.50173   0.00000  Uiso   1.00
H1428  H     0.89949   0.88400   0.93210   0.00000  Uiso   1.00
H1429  H     0.89148   0.90105   0.88855   0.00000  Uiso   1.00
H1430  H     0.93125   0.86686   0.88387   0.00000  Uiso   1.00
H1431  H     0.98460   0.80497   0.78297   0.00000  Uiso   1.00
H1432  H     0.78835   0.99715   0.77922   0.00000  Uiso   1.00
H1433  H     0.89293   0.74531   0.96602   0.00000  Uiso   1.00
H1434  H     0.74552   0.89212   0.90502   0.00000  Uiso   1.00
H1435  H     0.77616   0.85881   0.57447   0.00000  Uiso   1.00
H1436  H     0.85949   0.78101   0.93127   0.00000  Uiso   1.00
H1437  H     0.70012   0.91692   0.75210   0.00000  Uiso   1.00
O1438  O     0.83333   0.83333   0.75000   0.00000  Uiso   1.00
O1439  O     0.82360   0.79060   0.66625   0.00000  Uiso   1.00
O1440  O     0.79354   0.87313   0.83749   0.00000  Uiso   1.00
O1441  O     0.87755   0.84159   0.65877   0.00000  Uiso   1.00
O1442  O     0.83865   0.82802   0.83749   0.00000  Uiso   1.00
O1443  O     0.69047   0.86745   0.71005   0.00000  Uiso   1.00
O1444  O     0.83281   0.86528   0.60134   0.00000  Uiso   1.00
O1445  O     0.89948   0.74407   0.60207   0.00000  Uiso   1.00
O1446  O     0.86845   0.83883   0.89847   0.00000  Uiso   1.00
O1447  O     0.84515   0.74768   0.77820   0.00000  Uiso   1.00
O1448  O     0.81247   0.92803   0.76767   0.00000  Uiso   1.00
O1449  O     0.74119   0.79917   0.73607   0.00000  Uiso   1.00
O1450  O     0.93452   0.85845   0.71805   0.00000  Uiso   1.00
O1451  O     0.73656   0.85627   0.77820   0.00000  Uiso   1.00
O1452  O     0.92106   0.81944   0.76767   0.00000  Uiso   1.00
O1453  O     0.80467   0.73570   0.73607   0.00000  Uiso   1.00
O1454  O     0.87104   0.92193   0.71805   0.00000  Uiso   1.00
Zn1455 Zn    0.85910   0.80756   0.78277   0.00000  Uiso   1.00
Zn1456 Zn    0.80125   0.79044   0.72257   0.00000  Uiso   1.00
Zn1457 Zn    0.87833   0.86331   0.71188   0.00000  Uiso   1.00
Zn1458 Zn    0.79465   0.87202   0.78277   0.00000  Uiso   1.00
loop_
_geom_bond_atom_site_label_1
_geom_bond_atom_site_label_2
_geom_bond_distance
_geom_bond_site_symmetry_2
_ccdc_geom_bond_type
C1     O74     1.270   .     A
C1     C11     1.439   .     S
C1     O72     1.269   .     A
C2     H59     1.079   .     S
C2     C31     1.412   .     A
C2     C3      1.385   .     A
C3     H56     1.084   .     S
C3     C734    1.392   .     S
C4     O75     1.281   .     A
C4     O73     1.283   .     A
C4     C10     1.463   .     S
C5     C6      1.419   .     A
C5     C7      1.399   .     A
C5     C732    1.392   1_554 S
C6     C32     1.426   .     A
C6     C9      1.420   .     A
C7     C8      1.397   .     A
C7     H46     1.084   .     S
C8     C20     1.402   .     A
C8     O68     1.385   .     S
C9     O67     1.384   .     S
C9     C20     1.402   .     A
C10    C92     1.340   .     S
C10    O147    1.387   .     S
C11    C172    1.340   1_455 S
C11    H216    1.086   1_455 S
C12    C21     1.399   .     A
C12    H57     1.084   .     S
C12    C19     1.399   .     A
C13    C16     1.461   .     S
C13    C257    1.340   .     S
C13    C267    1.517   .     S
C14    C15     1.439   .     S
C14    C499    1.340   1_545 S
C14    H541    1.086   1_545 S
C15    O70     1.279   .     A
C15    O76     1.276   .     A
C16    O77     1.268   .     A
C16    O71     1.276   .     A
C17    O64     1.272   .     A
C17    C20     1.455   .     S
C17    O62     1.269   .     A
C18    O65     1.288   .     A
C18    C19     1.474   .     S
C18    O63     1.285   .     A
C19    C23     1.403   .     A
C21    C27     1.510   .     S
C21    C30     1.418   .     A
C22    H60     1.114   .     S
C22    O66     1.410   .     S
C22    H37     1.109   .     S
C22    H198    1.112   1_455 S
C23    O69     1.385   .     S
C23    C29     1.416   .     A
C24    H40     1.110   .     S
C24    H39     1.110   .     S
C24    C499    1.517   1_545 S
C24    H524    1.109   1_545 S
C25    O67     1.411   .     S
C25    H43     1.109   .     S
C25    H41     1.113   .     S
C25    H42     1.113   .     S
C26    H44     1.112   .     S
C26    H45     1.114   .     S
C26    H47     1.108   .     S
C26    O68     1.411   .     S
C27    H48     1.111   .     S
C27    H778    1.110   .     S
C27    H779    1.110   .     S
C28    O69     1.410   .     S
C28    H51     1.113   .     S
C28    H53     1.109   .     S
C28    H52     1.114   .     S
C29    C30     1.422   .     A
C29    C31     1.424   .     A
C30    C763    1.402   .     S
C31    C761    1.419   .     S
C32    C33     1.410   .     A
C32    C760    1.419   1_554 S
C33    H58     1.078   .     S
C33    C34     1.388   .     A
C34    H35     1.082   .     S
C34    C759    1.402   1_554 S
H36    C103    1.112   .     S
H38    C267    1.109   .     S
H49    C756    1.110   1_554 S
H50    C756    1.110   1_554 S
H54    C92     1.086   .     S
H55    C257    1.086   .     S
O61    Zn80    1.930   .     S
O61    Zn78    1.967   .     S
O61    Zn81    1.937   .     S
O61    Zn79    1.937   .     S
O62    Zn79    1.932   .     S
O63    Zn81    1.944   .     S
O64    Zn80    1.936   .     S
O65    Zn78    1.928   .     S
O66    C172    1.387   1_455 S
O70    Zn78    1.926   .     S
O71    Zn81    1.930   .     S
O72    Zn79    1.928   .     S
O73    Zn80    1.939   .     S
O74    Zn81    1.929   .     S
O75    Zn78    1.920   .     S
O76    Zn79    1.941   .     S
O77    Zn80    1.934   .     S
C82    O155    1.270   .     A
C82    C92     1.439   .     S
C82    O153    1.269   .     A
C83    H140    1.079   .     S
C83    C112    1.412   .     A
C83    C84     1.385   .     A
C84    H137    1.084   .     S
C84    C815    1.392   .     S
C85    O156    1.281   .     A
C85    O154    1.283   .     A
C85    C91     1.463   .     S
C86    C87     1.419   .     A
C86    C88     1.399   .     A
C86    C813    1.392   1_554 S
C87    C113    1.426   .     A
C87    C90     1.420   .     A
C88    C89     1.397   .     A
C88    H127    1.084   .     S
C89    C101    1.402   .     A
C89    O149    1.385   .     S
C90    O148    1.384   .     S
C90    C101    1.402   .     A
C91    C173    1.340   .     S
C91    O228    1.387   .     S
C93    C102    1.399   .     A
C93    H138    1.084   .     S
C93    C100    1.399   .     A
C94    C97     1.461   .     S
C94    C338    1.340   .     S
C94    C348    1.517   .     S
C95    C96     1.439   .     S
C95    C580    1.340   1_545 S
C95    H622    1.086   1_545 S
C96    O151    1.279   .     A
C96    O157    1.276   .     A
C97    O158    1.268   .     A
C97    O152    1.276   .     A
C98    O145    1.272   .     A
C98    C101    1.455   .     S
C98    O143    1.269   .     A
C99    O146    1.288   .     A
C99    C100    1.474   .     S
C99    O144    1.285   .     A
C100   C104    1.403   .     A
C102   C108    1.510   .     S
C102   C111    1.418   .     A
C103   H141    1.114   .     S
C103   O147    1.410   .     S
C103   H118    1.109   .     S
C104   O150    1.385   .     S
C104   C110    1.416   .     A
C105   H121    1.110   .     S
C105   H120    1.110   .     S
C105   C580    1.517   1_545 S
C105   H605    1.109   1_545 S
C106   O148    1.411   .     S
C106   H124    1.109   .     S
C106   H122    1.113   .     S
C106   H123    1.113   .     S
C107   H125    1.112   .     S
C107   H126    1.114   .     S
C107   H128    1.108   .     S
C107   O149    1.411   .     S
C108   H129    1.111   .     S
C108   H859    1.110   .     S
C108   H860    1.110   .     S
C109   O150    1.410   .     S
C109   H132    1.113   .     S
C109   H134    1.109   .     S
C109   H133    1.114   .     S
C110   C111    1.422   .     A
C110   C112    1.424   .     A
C111   C844    1.402   .     S
C112   C842    1.419   .     S
C113   C114    1.410   .     A
C113   C841    1.419   1_554 S
C114   H139    1.078   .     S
C114   C115    1.388   .     A
C115   H116    1.082   .     S
C115   C840    1.402   1_554 S
H117   C184    1.112   .     S
H119   C348    1.109   .     S
H130   C837    1.110   1_554 S
H131   C837    1.110   1_554 S
H135   C173    1.086   .     S
H136   C338    1.086   .     S
O142   Zn161   1.930   .     S
O142   Zn159   1.967   .     S
O142   Zn162   1.937   .     S
O142   Zn160   1.937   .     S
O143   Zn160   1.932   .     S
O144   Zn162   1.944   .     S
O145   Zn161   1.936   .     S
O146   Zn159   1.928   .     S
O151   Zn159   1.926   .     S
O152   Zn162   1.930   .     S
O153   Zn160   1.928   .     S
O154   Zn161   1.939   .     S
O155   Zn162   1.929   .     S
O156   Zn159   1.920   .     S
O157   Zn160   1.941   .     S
O158   Zn161   1.934   .     S
C163   O236    1.270   .     A
C163   C173    1.439   .     S
C163   O234    1.269   .     A
C164   H221    1.079   .     S
C164   C193    1.412   .     A
C164   C165    1.385   .     A
C165   H218    1.084   .     S
C165   C896    1.392   .     S
C166   O237    1.281   .     A
C166   O235    1.283   .     A
C166   C172    1.463   .     S
C167   C168    1.419   .     A
C167   C169    1.399   .     A
C167   C894    1.392   1_554 S
C168   C194    1.426   .     A
C168   C171    1.420   .     A
C169   C170    1.397   .     A
C169   H208    1.084   .     S
C170   C182    1.402   .     A
C170   O230    1.385   .     S
C171   O229    1.384   .     S
C171   C182    1.402   .     A
C172   C11     1.340   1_655 S
C172   O66     1.387   1_655 S
C174   C183    1.399   .     A
C174   H219    1.084   .     S
C174   C181    1.399   .     A
C175   C178    1.461   .     S
C175   C419    1.340   .     S
C175   C429    1.517   .     S
C176   C177    1.439   .     S
C176   C661    1.340   1_545 S
C176   H703    1.086   1_545 S
C177   O232    1.279   .     A
C177   O238    1.276   .     A
C178   O239    1.268   .     A
C178   O233    1.276   .     A
C179   O226    1.272   .     A
C179   C182    1.455   .     S
C179   O224    1.269   .     A
C180   O227    1.288   .     A
C180   C181    1.474   .     S
C180   O225    1.285   .     A
C181   C185    1.403   .     A
C183   C189    1.510   .     S
C183   C192    1.418   .     A
C184   H222    1.114   .     S
C184   O228    1.410   .     S
C184   H199    1.109   .     S
C185   O231    1.385   .     S
C185   C191    1.416   .     A
C186   H202    1.110   .     S
C186   H201    1.110   .     S
C186   C661    1.517   1_545 S
C186   H686    1.109   1_545 S
C187   O229    1.411   .     S
C187   H205    1.109   .     S
C187   H203    1.113   .     S
C187   H204    1.113   .     S
C188   H206    1.112   .     S
C188   H207    1.114   .     S
C188   H209    1.108   .     S
C188   O230    1.411   .     S
C189   H210    1.111   .     S
C189   H940    1.110   .     S
C189   H941    1.110   .     S
C190   O231    1.410   .     S
C190   H213    1.113   .     S
C190   H215    1.109   .     S
C190   H214    1.114   .     S
C191   C192    1.422   .     A
C191   C193    1.424   .     A
C192   C925    1.402   .     S
C193   C923    1.419   .     S
C194   C195    1.410   .     A
C194   C922    1.419   1_554 S
C195   H220    1.078   .     S
C195   C196    1.388   .     A
C196   H197    1.082   .     S
C196   C921    1.402   1_554 S
H198   C22     1.112   1_655 S
H200   C429    1.109   .     S
H211   C918    1.110   1_554 S
H212   C918    1.110   1_554 S
H216   C11     1.086   1_655 S
H217   C419    1.086   .     S
O223   Zn242   1.930   .     S
O223   Zn240   1.967   .     S
O223   Zn243   1.937   .     S
O223   Zn241   1.937   .     S
O224   Zn241   1.932   .     S
O225   Zn243   1.944   .     S
O226   Zn242   1.936   .     S
O227   Zn240   1.928   .     S
O232   Zn240   1.926   .     S
O233   Zn243   1.930   .     S
O234   Zn241   1.928   .     S
O235   Zn242   1.939   .     S
O236   Zn243   1.929   .     S
O237   Zn240   1.920   .     S
O238   Zn241   1.941   .     S
O239   Zn242   1.934   .     S
C244   O317    1.270   .     A
C244   C254    1.439   .     S
C244   O315    1.269   .     A
C245   H302    1.079   .     S
C245   C274    1.412   .     A
C245   C246    1.385   .     A
C246   H299    1.084   .     S
C246   C977    1.392   .     S
C247   O318    1.281   .     A
C247   O316    1.283   .     A
C247   C253    1.463   .     S
C248   C249    1.419   .     A
C248   C250    1.399   .     A
C248   C975    1.392   1_554 S
C249   C275    1.426   .     A
C249   C252    1.420   .     A
C250   C251    1.397   .     A
C250   H289    1.084   .     S
C251   C263    1.402   .     A
C251   O311    1.385   .     S
C252   O310    1.384   .     S
C252   C263    1.402   .     A
C253   C335    1.340   .     S
C253   O390    1.387   .     S
C254   C415    1.340   1_455 S
C254   H459    1.086   1_455 S
C255   C264    1.399   .     A
C255   H300    1.084   .     S
C255   C262    1.399   .     A
C256   C259    1.461   .     S
C256   C500    1.340   .     S
C256   C510    1.517   .     S
C257   C258    1.439   .     S
C258   O313    1.279   .     A
C258   O319    1.276   .     A
C259   O320    1.268   .     A
C259   O314    1.276   .     A
C260   O307    1.272   .     A
C260   C263    1.455   .     S
C260   O305    1.269   .     A
C261   O308    1.288   .     A
C261   C262    1.474   .     S
C261   O306    1.285   .     A
C262   C266    1.403   .     A
C264   C270    1.510   .     S
C264   C273    1.418   .     A
C265   H303    1.114   .     S
C265   O309    1.410   .     S
C265   H280    1.109   .     S
C265   H441    1.112   1_455 S
C266   O312    1.385   .     S
C266   C272    1.416   .     A
C267   H283    1.110   .     S
C267   H282    1.110   .     S
C268   O310    1.411   .     S
C268   H286    1.109   .     S
C268   H284    1.113   .     S
C268   H285    1.113   .     S
C269   H287    1.112   .     S
C269   H288    1.114   .     S
C269   H290    1.108   .     S
C269   O311    1.411   .     S
C270   H291    1.111   .     S
C270   H1021   1.110   .     S
C270   H1022   1.110   .     S
C271   O312    1.410   .     S
C271   H294    1.113   .     S
C271   H296    1.109   .     S
C271   H295    1.114   .     S
C272   C273    1.422   .     A
C272   C274    1.424   .     A
C273   C1006   1.402   .     S
C274   C1004   1.419   .     S
C275   C276    1.410   .     A
C275   C1003   1.419   1_554 S
C276   H301    1.078   .     S
C276   C277    1.388   .     A
C277   H278    1.082   .     S
C277   C1002   1.402   1_554 S
H279   C346    1.112   .     S
H281   C510    1.109   .     S
H292   C999    1.110   1_554 S
H293   C999    1.110   1_554 S
H297   C335    1.086   .     S
H298   C500    1.086   .     S
O304   Zn323   1.930   .     S
O304   Zn321   1.967   .     S
O304   Zn324   1.937   .     S
O304   Zn322   1.937   .     S
O305   Zn322   1.932   .     S
O306   Zn324   1.944   .     S
O307   Zn323   1.936   .     S
O308   Zn321   1.928   .     S
O309   C415    1.387   1_455 S
O313   Zn321   1.926   .     S
O314   Zn324   1.930   .     S
O315   Zn322   1.928   .     S
O316   Zn323   1.939   .     S
O317   Zn324   1.929   .     S
O318   Zn321   1.920   .     S
O319   Zn322   1.941   .     S
O320   Zn323   1.934   .     S
C325   O398    1.270   .     A
C325   C335    1.439   .     S
C325   O396    1.269   .     A
C326   H383    1.079   .     S
C326   C355    1.412   .     A
C326   C327    1.385   .     A
C327   H380    1.084   .     S
C327   C1058   1.392   .     S
C328   O399    1.281   .     A
C328   O397    1.283   .     A
C328   C334    1.463   .     S
C329   C330    1.419   .     A
C329   C331    1.399   .     A
C329   C1056   1.392   1_554 S
C330   C356    1.426   .     A
C330   C333    1.420   .     A
C331   C332    1.397   .     A
C331   H370    1.084   .     S
C332   C344    1.402   .     A
C332   O392    1.385   .     S
C333   O391    1.384   .     S
C333   C344    1.402   .     A
C334   C416    1.340   .     S
C334   O471    1.387   .     S
C336   C345    1.399   .     A
C336   H381    1.084   .     S
C336   C343    1.399   .     A
C337   C340    1.461   .     S
C337   C581    1.340   .     S
C337   C591    1.517   .     S
C338   C339    1.439   .     S
C339   O394    1.279   .     A
C339   O400    1.276   .     A
C340   O401    1.268   .     A
C340   O395    1.276   .     A
C341   O388    1.272   .     A
C341   C344    1.455   .     S
C341   O386    1.269   .     A
C342   O389    1.288   .     A
C342   C343    1.474   .     S
C342   O387    1.285   .     A
C343   C347    1.403   .     A
C345   C351    1.510   .     S
C345   C354    1.418   .     A
C346   H384    1.114   .     S
C346   O390    1.410   .     S
C346   H361    1.109   .     S
C347   O393    1.385   .     S
C347   C353    1.416   .     A
C348   H364    1.110   .     S
C348   H363    1.110   .     S
C349   O391    1.411   .     S
C349   H367    1.109   .     S
C349   H365    1.113   .     S
C349   H366    1.113   .     S
C350   H368    1.112   .     S
C350   H369    1.114   .     S
C350   H371    1.108   .     S
C350   O392    1.411   .     S
C351   H372    1.111   .     S
C351   H1102   1.110   .     S
C351   H1103   1.110   .     S
C352   O393    1.410   .     S
C352   H375    1.113   .     S
C352   H377    1.109   .     S
C352   H376    1.114   .     S
C353   C354    1.422   .     A
C353   C355    1.424   .     A
C354   C1087   1.402   .     S
C355   C1085   1.419   .     S
C356   C357    1.410   .     A
C356   C1084   1.419   1_554 S
C357   H382    1.078   .     S
C357   C358    1.388   .     A
C358   H359    1.082   .     S
C358   C1083   1.402   1_554 S
H360   C427    1.112   .     S
H362   C591    1.109   .     S
H373   C1080   1.110   1_554 S
H374   C1080   1.110   1_554 S
H378   C416    1.086   .     S
H379   C581    1.086   .     S
O385   Zn404   1.930   .     S
O385   Zn402   1.967   .     S
O385   Zn405   1.937   .     S
O385   Zn403   1.937   .     S
O386   Zn403   1.932   .     S
O387   Zn405   1.944   .     S
O388   Zn404   1.936   .     S
O389   Zn402   1.928   .     S
O394   Zn402   1.926   .     S
O395   Zn405   1.930   .     S
O396   Zn403   1.928   .     S
O397   Zn404   1.939   .     S
O398   Zn405   1.929   .     S
O399   Zn402   1.920   .     S
O400   Zn403   1.941   .     S
O401   Zn404   1.934   .     S
C406   O479    1.270   .     A
C406   C416    1.439   .     S
C406   O477    1.269   .     A
C407   H464    1.079   .     S
C407   C436    1.412   .     A
C407   C408    1.385   .     A
C408   H461    1.084   .     S
C408   C1139   1.392   .     S
C409   O480    1.281   .     A
C409   O478    1.283   .     A
C409   C415    1.463   .     S
C410   C411    1.419   .     A
C410   C412    1.399   .     A
C410   C1137   1.392   1_554 S
C411   C437    1.426   .     A
C411   C414    1.420   .     A
C412   C413    1.397   .     A
C412   H451    1.084   .     S
C413   C425    1.402   .     A
C413   O473    1.385   .     S
C414   O472    1.384   .     S
C414   C425    1.402   .     A
C415   C254    1.340   1_655 S
C415   O309    1.387   1_655 S
C417   C426    1.399   .     A
C417   H462    1.084   .     S
C417   C424    1.399   .     A
C418   C421    1.461   .     S
C418   C662    1.340   .     S
C418   C672    1.517   .     S
C419   C420    1.439   .     S
C420   O475    1.279   .     A
C420   O481    1.276   .     A
C421   O482    1.268   .     A
C421   O476    1.276   .     A
C422   O469    1.272   .     A
C422   C425    1.455   .     S
C422   O467    1.269   .     A
C423   O470    1.288   .     A
C423   C424    1.474   .     S
C423   O468    1.285   .     A
C424   C428    1.403   .     A
C426   C432    1.510   .     S
C426   C435    1.418   .     A
C427   H465    1.114   .     S
C427   O471    1.410   .     S
C427   H442    1.109   .     S
C428   O474    1.385   .     S
C428   C434    1.416   .     A
C429   H445    1.110   .     S
C429   H444    1.110   .     S
C430   O472    1.411   .     S
C430   H448    1.109   .     S
C430   H446    1.113   .     S
C430   H447    1.113   .     S
C431   H449    1.112   .     S
C431   H450    1.114   .     S
C431   H452    1.108   .     S
C431   O473    1.411   .     S
C432   H453    1.111   .     S
C432   H1183   1.110   .     S
C432   H1184   1.110   .     S
C433   O474    1.410   .     S
C433   H456    1.113   .     S
C433   H458    1.109   .     S
C433   H457    1.114   .     S
C434   C435    1.422   .     A
C434   C436    1.424   .     A
C435   C1168   1.402   .     S
C436   C1166   1.419   .     S
C437   C438    1.410   .     A
C437   C1165   1.419   1_554 S
C438   H463    1.078   .     S
C438   C439    1.388   .     A
C439   H440    1.082   .     S
C439   C1164   1.402   1_554 S
H441   C265    1.112   1_655 S
H443   C672    1.109   .     S
H454   C1161   1.110   1_554 S
H455   C1161   1.110   1_554 S
H459   C254    1.086   1_655 S
H460   C662    1.086   .     S
O466   Zn485   1.930   .     S
O466   Zn483   1.967   .     S
O466   Zn486   1.937   .     S
O466   Zn484   1.937   .     S
O467   Zn484   1.932   .     S
O468   Zn486   1.944   .     S
O469   Zn485   1.936   .     S
O470   Zn483   1.928   .     S
O475   Zn483   1.926   .     S
O476   Zn486   1.930   .     S
O477   Zn484   1.928   .     S
O478   Zn485   1.939   .     S
O479   Zn486   1.929   .     S
O480   Zn483   1.920   .     S
O481   Zn484   1.941   .     S
O482   Zn485   1.934   .     S
C487   O560    1.270   .     A
C487   C497    1.439   .     S
C487   O558    1.269   .     A
C488   H545    1.079   .     S
C488   C517    1.412   .     A
C488   C489    1.385   .     A
C489   H542    1.084   .     S
C489   C1220   1.392   .     S
C490   O561    1.281   .     A
C490   O559    1.283   .     A
C490   C496    1.463   .     S
C491   C492    1.419   .     A
C491   C493    1.399   .     A
C491   C1218   1.392   1_554 S
C492   C518    1.426   .     A
C492   C495    1.420   .     A
C493   C494    1.397   .     A
C493   H532    1.084   .     S
C494   C506    1.402   .     A
C494   O554    1.385   .     S
C495   O553    1.384   .     S
C495   C506    1.402   .     A
C496   C578    1.340   .     S
C496   O633    1.387   .     S
C497   C658    1.340   1_455 S
C497   H702    1.086   1_455 S
C498   C507    1.399   .     A
C498   H543    1.084   .     S
C498   C505    1.399   .     A
C499   C502    1.461   .     S
C499   C14     1.340   1_565 S
C499   C24     1.517   1_565 S
C500   C501    1.439   .     S
C501   O556    1.279   .     A
C501   O562    1.276   .     A
C502   O563    1.268   .     A
C502   O557    1.276   .     A
C503   O550    1.272   .     A
C503   C506    1.455   .     S
C503   O548    1.269   .     A
C504   O551    1.288   .     A
C504   C505    1.474   .     S
C504   O549    1.285   .     A
C505   C509    1.403   .     A
C507   C513    1.510   .     S
C507   C516    1.418   .     A
C508   H546    1.114   .     S
C508   O552    1.410   .     S
C508   H523    1.109   .     S
C508   H684    1.112   1_455 S
C509   O555    1.385   .     S
C509   C515    1.416   .     A
C510   H526    1.110   .     S
C510   H525    1.110   .     S
C511   O553    1.411   .     S
C511   H529    1.109   .     S
C511   H527    1.113   .     S
C511   H528    1.113   .     S
C512   H530    1.112   .     S
C512   H531    1.114   .     S
C512   H533    1.108   .     S
C512   O554    1.411   .     S
C513   H534    1.111   .     S
C513   H1264   1.110   .     S
C513   H1265   1.110   .     S
C514   O555    1.410   .     S
C514   H537    1.113   .     S
C514   H539    1.109   .     S
C514   H538    1.114   .     S
C515   C516    1.422   .     A
C515   C517    1.424   .     A
C516   C1249   1.402   .     S
C517   C1247   1.419   .     S
C518   C519    1.410   .     A
C518   C1246   1.419   1_554 S
C519   H544    1.078   .     S
C519   C520    1.388   .     A
C520   H521    1.082   .     S
C520   C1245   1.402   1_554 S
H522   C589    1.112   .     S
H524   C24     1.109   1_565 S
H535   C1242   1.110   1_554 S
H536   C1242   1.110   1_554 S
H540   C578    1.086   .     S
H541   C14     1.086   1_565 S
O547   Zn566   1.930   .     S
O547   Zn564   1.967   .     S
O547   Zn567   1.937   .     S
O547   Zn565   1.937   .     S
O548   Zn565   1.932   .     S
O549   Zn567   1.944   .     S
O550   Zn566   1.936   .     S
O551   Zn564   1.928   .     S
O552   C658    1.387   1_455 S
O556   Zn564   1.926   .     S
O557   Zn567   1.930   .     S
O558   Zn565   1.928   .     S
O559   Zn566   1.939   .     S
O560   Zn567   1.929   .     S
O561   Zn564   1.920   .     S
O562   Zn565   1.941   .     S
O563   Zn566   1.934   .     S
C568   O641    1.270   .     A
C568   C578    1.439   .     S
C568   O639    1.269   .     A
C569   H626    1.079   .     S
C569   C598    1.412   .     A
C569   C570    1.385   .     A
C570   H623    1.084   .     S
C570   C1301   1.392   .     S
C571   O642    1.281   .     A
C571   O640    1.283   .     A
C571   C577    1.463   .     S
C572   C573    1.419   .     A
C572   C574    1.399   .     A
C572   C1299   1.392   1_554 S
C573   C599    1.426   .     A
C573   C576    1.420   .     A
C574   C575    1.397   .     A
C574   H613    1.084   .     S
C575   C587    1.402   .     A
C575   O635    1.385   .     S
C576   O634    1.384   .     S
C576   C587    1.402   .     A
C577   C659    1.340   .     S
C577   O714    1.387   .     S
C579   C588    1.399   .     A
C579   H624    1.084   .     S
C579   C586    1.399   .     A
C580   C583    1.461   .     S
C580   C95     1.340   1_565 S
C580   C105    1.517   1_565 S
C581   C582    1.439   .     S
C582   O637    1.279   .     A
C582   O643    1.276   .     A
C583   O644    1.268   .     A
C583   O638    1.276   .     A
C584   O631    1.272   .     A
C584   C587    1.455   .     S
C584   O629    1.269   .     A
C585   O632    1.288   .     A
C585   C586    1.474   .     S
C585   O630    1.285   .     A
C586   C590    1.403   .     A
C588   C594    1.510   .     S
C588   C597    1.418   .     A
C589   H627    1.114   .     S
C589   O633    1.410   .     S
C589   H604    1.109   .     S
C590   O636    1.385   .     S
C590   C596    1.416   .     A
C591   H607    1.110   .     S
C591   H606    1.110   .     S
C592   O634    1.411   .     S
C592   H610    1.109   .     S
C592   H608    1.113   .     S
C592   H609    1.113   .     S
C593   H611    1.112   .     S
C593   H612    1.114   .     S
C593   H614    1.108   .     S
C593   O635    1.411   .     S
C594   H615    1.111   .     S
C594   H1345   1.110   .     S
C594   H1346   1.110   .     S
C595   O636    1.410   .     S
C595   H618    1.113   .     S
C595   H620    1.109   .     S
C595   H619    1.114   .     S
C596   C597    1.422   .     A
C596   C598    1.424   .     A
C597   C1330   1.402   .     S
C598   C1328   1.419   .     S
C599   C600    1.410   .     A
C599   C1327   1.419   1_554 S
C600   H625    1.078   .     S
C600   C601    1.388   .     A
C601   H602    1.082   .     S
C601   C1326   1.402   1_554 S
H603   C670    1.112   .     S
H605   C105    1.109   1_565 S
H616   C1323   1.110   1_554 S
H617   C1323   1.110   1_554 S
H621   C659    1.086   .     S
H622   C95     1.086   1_565 S
O628   Zn647   1.930   .     S
O628   Zn645   1.967   .     S
O628   Zn648   1.937   .     S
O628   Zn646   1.937   .     S
O629   Zn646   1.932   .     S
O630   Zn648   1.944   .     S
O631   Zn647   1.936   .     S
O632   Zn645   1.928   .     S
O637   Zn645   1.926   .     S
O638   Zn648   1.930   .     S
O639   Zn646   1.928   .     S
O640   Zn647   1.939   .     S
O641   Zn648   1.929   .     S
O642   Zn645   1.920   .     S
O643   Zn646   1.941   .     S
O644   Zn647   1.934   .     S
C649   O722    1.270   .     A
C649   C659    1.439   .     S
C649   O720    1.269   .     A
C650   H707    1.079   .     S
C650   C679    1.412   .     A
C650   C651    1.385   .     A
C651   H704    1.084   .     S
C651   C1382   1.392   .     S
C652   O723    1.281   .     A
C652   O721    1.283   .     A
C652   C658    1.463   .     S
C653   C654    1.419   .     A
C653   C655    1.399   .     A
C653   C1380   1.392   1_554 S
C654   C680    1.426   .     A
C654   C657    1.420   .     A
C655   C656    1.397   .     A
C655   H694    1.084   .     S
C656   C668    1.402   .     A
C656   O716    1.385   .     S
C657   O715    1.384   .     S
C657   C668    1.402   .     A
C658   C497    1.340   1_655 S
C658   O552    1.387   1_655 S
C660   C669    1.399   .     A
C660   H705    1.084   .     S
C660   C667    1.399   .     A
C661   C664    1.461   .     S
C661   C176    1.340   1_565 S
C661   C186    1.517   1_565 S
C662   C663    1.439   .     S
C663   O718    1.279   .     A
C663   O724    1.276   .     A
C664   O725    1.268   .     A
C664   O719    1.276   .     A
C665   O712    1.272   .     A
C665   C668    1.455   .     S
C665   O710    1.269   .     A
C666   O713    1.288   .     A
C666   C667    1.474   .     S
C666   O711    1.285   .     A
C667   C671    1.403   .     A
C669   C675    1.510   .     S
C669   C678    1.418   .     A
C670   H708    1.114   .     S
C670   O714    1.410   .     S
C670   H685    1.109   .     S
C671   O717    1.385   .     S
C671   C677    1.416   .     A
C672   H688    1.110   .     S
C672   H687    1.110   .     S
C673   O715    1.411   .     S
C673   H691    1.109   .     S
C673   H689    1.113   .     S
C673   H690    1.113   .     S
C674   H692    1.112   .     S
C674   H693    1.114   .     S
C674   H695    1.108   .     S
C674   O716    1.411   .     S
C675   H696    1.111   .     S
C675   H1426   1.110   .     S
C675   H1427   1.110   .     S
C676   O717    1.410   .     S
C676   H699    1.113   .     S
C676   H701    1.109   .     S
C676   H700    1.114   .     S
C677   C678    1.422   .     A
C677   C679    1.424   .     A
C678   C1411   1.402   .     S
C679   C1409   1.419   .     S
C680   C681    1.410   .     A
C680   C1408   1.419   1_554 S
C681   H706    1.078   .     S
C681   C682    1.388   .     A
C682   H683    1.082   .     S
C682   C1407   1.402   1_554 S
H684   C508    1.112   1_655 S
H686   C186    1.109   1_565 S
H697   C1404   1.110   1_554 S
H698   C1404   1.110   1_554 S
H702   C497    1.086   1_655 S
H703   C176    1.086   1_565 S
O709   Zn728   1.930   .     S
O709   Zn726   1.967   .     S
O709   Zn729   1.937   .     S
O709   Zn727   1.937   .     S
O710   Zn727   1.932   .     S
O711   Zn729   1.944   .     S
O712   Zn728   1.936   .     S
O713   Zn726   1.928   .     S
O718   Zn726   1.926   .     S
O719   Zn729   1.930   .     S
O720   Zn727   1.928   .     S
O721   Zn728   1.939   .     S
O722   Zn729   1.929   .     S
O723   Zn726   1.920   .     S
O724   Zn727   1.941   .     S
O725   Zn728   1.934   .     S
C730   O803    1.270   .     A
C730   C740    1.439   .     S
C730   O801    1.269   .     A
C731   H788    1.079   .     S
C731   C760    1.412   .     A
C731   C732    1.385   .     A
C732   H785    1.084   .     S
C732   C5      1.392   1_556 S
C733   O804    1.281   .     A
C733   O802    1.283   .     A
C733   C739    1.463   .     S
C734   C735    1.419   .     A
C734   C736    1.399   .     A
C735   C761    1.426   .     A
C735   C738    1.420   .     A
C736   C737    1.397   .     A
C736   H775    1.084   .     S
C737   C749    1.402   .     A
C737   O797    1.385   .     S
C738   O796    1.384   .     S
C738   C749    1.402   .     A
C739   C821    1.340   .     S
C739   O876    1.387   .     S
C740   C901    1.340   1_455 S
C740   H945    1.086   1_455 S
C741   C750    1.399   .     A
C741   H786    1.084   .     S
C741   C748    1.399   .     A
C742   C745    1.461   .     S
C742   C986    1.340   .     S
C742   C996    1.517   .     S
C743   C744    1.439   .     S
C743   C1228   1.340   1_545 S
C743   H1270   1.086   1_545 S
C744   O799    1.279   .     A
C744   O805    1.276   .     A
C745   O806    1.268   .     A
C745   O800    1.276   .     A
C746   O793    1.272   .     A
C746   C749    1.455   .     S
C746   O791    1.269   .     A
C747   O794    1.288   .     A
C747   C748    1.474   .     S
C747   O792    1.285   .     A
C748   C752    1.403   .     A
C750   C756    1.510   .     S
C750   C759    1.418   .     A
C751   H789    1.114   .     S
C751   O795    1.410   .     S
C751   H766    1.109   .     S
C751   H927    1.112   1_455 S
C752   O798    1.385   .     S
C752   C758    1.416   .     A
C753   H769    1.110   .     S
C753   H768    1.110   .     S
C753   C1228   1.517   1_545 S
C753   H1253   1.109   1_545 S
C754   O796    1.411   .     S
C754   H772    1.109   .     S
C754   H770    1.113   .     S
C754   H771    1.113   .     S
C755   H773    1.112   .     S
C755   H774    1.114   .     S
C755   H776    1.108   .     S
C755   O797    1.411   .     S
C756   H777    1.111   .     S
C756   H49     1.110   1_556 S
C756   H50     1.110   1_556 S
C757   O798    1.410   .     S
C757   H780    1.113   .     S
C757   H782    1.109   .     S
C757   H781    1.114   .     S
C758   C759    1.422   .     A
C758   C760    1.424   .     A
C759   C34     1.402   1_556 S
C760   C32     1.419   1_556 S
C761   C762    1.410   .     A
C762   H787    1.078   .     S
C762   C763    1.388   .     A
C763   H764    1.082   .     S
H765   C832    1.112   .     S
H767   C996    1.109   .     S
H783   C821    1.086   .     S
H784   C986    1.086   .     S
O790   Zn809   1.930   .     S
O790   Zn807   1.967   .     S
O790   Zn810   1.937   .     S
O790   Zn808   1.937   .     S
O791   Zn808   1.932   .     S
O792   Zn810   1.944   .     S
O793   Zn809   1.936   .     S
O794   Zn807   1.928   .     S
O795   C901    1.387   1_455 S
O799   Zn807   1.926   .     S
O800   Zn810   1.930   .     S
O801   Zn808   1.928   .     S
O802   Zn809   1.939   .     S
O803   Zn810   1.929   .     S
O804   Zn807   1.920   .     S
O805   Zn808   1.941   .     S
O806   Zn809   1.934   .     S
C811   O884    1.270   .     A
C811   C821    1.439   .     S
C811   O882    1.269   .     A
C812   H869    1.079   .     S
C812   C841    1.412   .     A
C812   C813    1.385   .     A
C813   H866    1.084   .     S
C813   C86     1.392   1_556 S
C814   O885    1.281   .     A
C814   O883    1.283   .     A
C814   C820    1.463   .     S
C815   C816    1.419   .     A
C815   C817    1.399   .     A
C816   C842    1.426   .     A
C816   C819    1.420   .     A
C817   C818    1.397   .     A
C817   H856    1.084   .     S
C818   C830    1.402   .     A
C818   O878    1.385   .     S
C819   O877    1.384   .     S
C819   C830    1.402   .     A
C820   C902    1.340   .     S
C820   O957    1.387   .     S
C822   C831    1.399   .     A
C822   H867    1.084   .     S
C822   C829    1.399   .     A
C823   C826    1.461   .     S
C823   C1067   1.340   .     S
C823   C1077   1.517   .     S
C824   C825    1.439   .     S
C824   C1309   1.340   1_545 S
C824   H1351   1.086   1_545 S
C825   O880    1.279   .     A
C825   O886    1.276   .     A
C826   O887    1.268   .     A
C826   O881    1.276   .     A
C827   O874    1.272   .     A
C827   C830    1.455   .     S
C827   O872    1.269   .     A
C828   O875    1.288   .     A
C828   C829    1.474   .     S
C828   O873    1.285   .     A
C829   C833    1.403   .     A
C831   C837    1.510   .     S
C831   C840    1.418   .     A
C832   H870    1.114   .     S
C832   O876    1.410   .     S
C832   H847    1.109   .     S
C833   O879    1.385   .     S
C833   C839    1.416   .     A
C834   H850    1.110   .     S
C834   H849    1.110   .     S
C834   C1309   1.517   1_545 S
C834   H1334   1.109   1_545 S
C835   O877    1.411   .     S
C835   H853    1.109   .     S
C835   H851    1.113   .     S
C835   H852    1.113   .     S
C836   H854    1.112   .     S
C836   H855    1.114   .     S
C836   H857    1.108   .     S
C836   O878    1.411   .     S
C837   H858    1.111   .     S
C837   H130    1.110   1_556 S
C837   H131    1.110   1_556 S
C838   O879    1.410   .     S
C838   H861    1.113   .     S
C838   H863    1.109   .     S
C838   H862    1.114   .     S
C839   C840    1.422   .     A
C839   C841    1.424   .     A
C840   C115    1.402   1_556 S
C841   C113    1.419   1_556 S
C842   C843    1.410   .     A
C843   H868    1.078   .     S
C843   C844    1.388   .     A
C844   H845    1.082   .     S
H846   C913    1.112   .     S
H848   C1077   1.109   .     S
H864   C902    1.086   .     S
H865   C1067   1.086   .     S
O871   Zn890   1.930   .     S
O871   Zn888   1.967   .     S
O871   Zn891   1.937   .     S
O871   Zn889   1.937   .     S
O872   Zn889   1.932   .     S
O873   Zn891   1.944   .     S
O874   Zn890   1.936   .     S
O875   Zn888   1.928   .     S
O880   Zn888   1.926   .     S
O881   Zn891   1.930   .     S
O882   Zn889   1.928   .     S
O883   Zn890   1.939   .     S
O884   Zn891   1.929   .     S
O885   Zn888   1.920   .     S
O886   Zn889   1.941   .     S
O887   Zn890   1.934   .     S
C892   O965    1.270   .     A
C892   C902    1.439   .     S
C892   O963    1.269   .     A
C893   H950    1.079   .     S
C893   C922    1.412   .     A
C893   C894    1.385   .     A
C894   H947    1.084   .     S
C894   C167    1.392   1_556 S
C895   O966    1.281   .     A
C895   O964    1.283   .     A
C895   C901    1.463   .     S
C896   C897    1.419   .     A
C896   C898    1.399   .     A
C897   C923    1.426   .     A
C897   C900    1.420   .     A
C898   C899    1.397   .     A
C898   H937    1.084   .     S
C899   C911    1.402   .     A
C899   O959    1.385   .     S
C900   O958    1.384   .     S
C900   C911    1.402   .     A
C901   C740    1.340   1_655 S
C901   O795    1.387   1_655 S
C903   C912    1.399   .     A
C903   H948    1.084   .     S
C903   C910    1.399   .     A
C904   C907    1.461   .     S
C904   C1148   1.340   .     S
C904   C1158   1.517   .     S
C905   C906    1.439   .     S
C905   C1390   1.340   1_545 S
C905   H1432   1.086   1_545 S
C906   O961    1.279   .     A
C906   O967    1.276   .     A
C907   O968    1.268   .     A
C907   O962    1.276   .     A
C908   O955    1.272   .     A
C908   C911    1.455   .     S
C908   O953    1.269   .     A
C909   O956    1.288   .     A
C909   C910    1.474   .     S
C909   O954    1.285   .     A
C910   C914    1.403   .     A
C912   C918    1.510   .     S
C912   C921    1.418   .     A
C913   H951    1.114   .     S
C913   O957    1.410   .     S
C913   H928    1.109   .     S
C914   O960    1.385   .     S
C914   C920    1.416   .     A
C915   H931    1.110   .     S
C915   H930    1.110   .     S
C915   C1390   1.517   1_545 S
C915   H1415   1.109   1_545 S
C916   O958    1.411   .     S
C916   H934    1.109   .     S
C916   H932    1.113   .     S
C916   H933    1.113   .     S
C917   H935    1.112   .     S
C917   H936    1.114   .     S
C917   H938    1.108   .     S
C917   O959    1.411   .     S
C918   H939    1.111   .     S
C918   H211    1.110   1_556 S
C918   H212    1.110   1_556 S
C919   O960    1.410   .     S
C919   H942    1.113   .     S
C919   H944    1.109   .     S
C919   H943    1.114   .     S
C920   C921    1.422   .     A
C920   C922    1.424   .     A
C921   C196    1.402   1_556 S
C922   C194    1.419   1_556 S
C923   C924    1.410   .     A
C924   H949    1.078   .     S
C924   C925    1.388   .     A
C925   H926    1.082   .     S
H927   C751    1.112   1_655 S
H929   C1158   1.109   .     S
H945   C740    1.086   1_655 S
H946   C1148   1.086   .     S
O952   Zn971   1.930   .     S
O952   Zn969   1.967   .     S
O952   Zn972   1.937   .     S
O952   Zn970   1.937   .     S
O953   Zn970   1.932   .     S
O954   Zn972   1.944   .     S
O955   Zn971   1.936   .     S
O956   Zn969   1.928   .     S
O961   Zn969   1.926   .     S
O962   Zn972   1.930   .     S
O963   Zn970   1.928   .     S
O964   Zn971   1.939   .     S
O965   Zn972   1.929   .     S
O966   Zn969   1.920   .     S
O967   Zn970   1.941   .     S
O968   Zn971   1.934   .     S
C973   O1046   1.270   .     A
C973   C983    1.439   .     S
C973   O1044   1.269   .     A
C974   H1031   1.079   .     S
C974   C1003   1.412   .     A
C974   C975    1.385   .     A
C975   H1028   1.084   .     S
C975   C248    1.392   1_556 S
C976   O1047   1.281   .     A
C976   O1045   1.283   .     A
C976   C982    1.463   .     S
C977   C978    1.419   .     A
C977   C979    1.399   .     A
C978   C1004   1.426   .     A
C978   C981    1.420   .     A
C979   C980    1.397   .     A
C979   H1018   1.084   .     S
C980   C992    1.402   .     A
C980   O1040   1.385   .     S
C981   O1039   1.384   .     S
C981   C992    1.402   .     A
C982   C1064   1.340   .     S
C982   O1119   1.387   .     S
C983   C1144   1.340   1_455 S
C983   H1188   1.086   1_455 S
C984   C993    1.399   .     A
C984   H1029   1.084   .     S
C984   C991    1.399   .     A
C985   C988    1.461   .     S
C985   C1229   1.340   .     S
C985   C1239   1.517   .     S
C986   C987    1.439   .     S
C987   O1042   1.279   .     A
C987   O1048   1.276   .     A
C988   O1049   1.268   .     A
C988   O1043   1.276   .     A
C989   O1036   1.272   .     A
C989   C992    1.455   .     S
C989   O1034   1.269   .     A
C990   O1037   1.288   .     A
C990   C991    1.474   .     S
C990   O1035   1.285   .     A
C991   C995    1.403   .     A
C993   C999    1.510   .     S
C993   C1002   1.418   .     A
C994   H1032   1.114   .     S
C994   O1038   1.410   .     S
C994   H1009   1.109   .     S
C994   H1170   1.112   1_455 S
C995   O1041   1.385   .     S
C995   C1001   1.416   .     A
C996   H1012   1.110   .     S
C996   H1011   1.110   .     S
C997   O1039   1.411   .     S
C997   H1015   1.109   .     S
C997   H1013   1.113   .     S
C997   H1014   1.113   .     S
C998   H1016   1.112   .     S
C998   H1017   1.114   .     S
C998   H1019   1.108   .     S
C998   O1040   1.411   .     S
C999   H1020   1.111   .     S
C999   H292    1.110   1_556 S
C999   H293    1.110   1_556 S
C1000  O1041   1.410   .     S
C1000  H1023   1.113   .     S
C1000  H1025   1.109   .     S
C1000  H1024   1.114   .     S
C1001  C1002   1.422   .     A
C1001  C1003   1.424   .     A
C1002  C277    1.402   1_556 S
C1003  C275    1.419   1_556 S
C1004  C1005   1.410   .     A
C1005  H1030   1.078   .     S
C1005  C1006   1.388   .     A
C1006  H1007   1.082   .     S
H1008  C1075   1.112   .     S
H1010  C1239   1.109   .     S
H1026  C1064   1.086   .     S
H1027  C1229   1.086   .     S
O1033  Zn1052  1.930   .     S
O1033  Zn1050  1.967   .     S
O1033  Zn1053  1.937   .     S
O1033  Zn1051  1.937   .     S
O1034  Zn1051  1.932   .     S
O1035  Zn1053  1.944   .     S
O1036  Zn1052  1.936   .     S
O1037  Zn1050  1.928   .     S
O1038  C1144   1.387   1_455 S
O1042  Zn1050  1.926   .     S
O1043  Zn1053  1.930   .     S
O1044  Zn1051  1.928   .     S
O1045  Zn1052  1.939   .     S
O1046  Zn1053  1.929   .     S
O1047  Zn1050  1.920   .     S
O1048  Zn1051  1.941   .     S
O1049  Zn1052  1.934   .     S
C1054  O1127   1.270   .     A
C1054  C1064   1.439   .     S
C1054  O1125   1.269   .     A
C1055  H1112   1.079   .     S
C1055  C1084   1.412   .     A
C1055  C1056   1.385   .     A
C1056  H1109   1.084   .     S
C1056  C329    1.392   1_556 S
C1057  O1128   1.281   .     A
C1057  O1126   1.283   .     A
C1057  C1063   1.463   .     S
C1058  C1059   1.419   .     A
C1058  C1060   1.399   .     A
C1059  C1085   1.426   .     A
C1059  C1062   1.420   .     A
C1060  C1061   1.397   .     A
C1060  H1099   1.084   .     S
C1061  C1073   1.402   .     A
C1061  O1121   1.385   .     S
C1062  O1120   1.384   .     S
C1062  C1073   1.402   .     A
C1063  C1145   1.340   .     S
C1063  O1200   1.387   .     S
C1065  C1074   1.399   .     A
C1065  H1110   1.084   .     S
C1065  C1072   1.399   .     A
C1066  C1069   1.461   .     S
C1066  C1310   1.340   .     S
C1066  C1320   1.517   .     S
C1067  C1068   1.439   .     S
C1068  O1123   1.279   .     A
C1068  O1129   1.276   .     A
C1069  O1130   1.268   .     A
C1069  O1124   1.276   .     A
C1070  O1117   1.272   .     A
C1070  C1073   1.455   .     S
C1070  O1115   1.269   .     A
C1071  O1118   1.288   .     A
C1071  C1072   1.474   .     S
C1071  O1116   1.285   .     A
C1072  C1076   1.403   .     A
C1074  C1080   1.510   .     S
C1074  C1083   1.418   .     A
C1075  H1113   1.114   .     S
C1075  O1119   1.410   .     S
C1075  H1090   1.109   .     S
C1076  O1122   1.385   .     S
C1076  C1082   1.416   .     A
C1077  H1093   1.110   .     S
C1077  H1092   1.110   .     S
C1078  O1120   1.411   .     S
C1078  H1096   1.109   .     S
C1078  H1094   1.113   .     S
C1078  H1095   1.113   .     S
C1079  H1097   1.112   .     S
C1079  H1098   1.114   .     S
C1079  H1100   1.108   .     S
C1079  O1121   1.411   .     S
C1080  H1101   1.111   .     S
C1080  H373    1.110   1_556 S
C1080  H374    1.110   1_556 S
C1081  O1122   1.410   .     S
C1081  H1104   1.113   .     S
C1081  H1106   1.109   .     S
C1081  H1105   1.114   .     S
C1082  C1083   1.422   .     A
C1082  C1084   1.424   .     A
C1083  C358    1.402   1_556 S
C1084  C356    1.419   1_556 S
C1085  C1086   1.410   .     A
C1086  H1111   1.078   .     S
C1086  C1087   1.388   .     A
C1087  H1088   1.082   .     S
H1089  C1156   1.112   .     S
H1091  C1320   1.109   .     S
H1107  C1145   1.086   .     S
H1108  C1310   1.086   .     S
O1114  Zn1133  1.930   .     S
O1114  Zn1131  1.967   .     S
O1114  Zn1134  1.937   .     S
O1114  Zn1132  1.937   .     S
O1115  Zn1132  1.932   .     S
O1116  Zn1134  1.944   .     S
O1117  Zn1133  1.936   .     S
O1118  Zn1131  1.928   .     S
O1123  Zn1131  1.926   .     S
O1124  Zn1134  1.930   .     S
O1125  Zn1132  1.928   .     S
O1126  Zn1133  1.939   .     S
O1127  Zn1134  1.929   .     S
O1128  Zn1131  1.920   .     S
O1129  Zn1132  1.941   .     S
O1130  Zn1133  1.934   .     S
C1135  O1208   1.270   .     A
C1135  C1145   1.439   .     S
C1135  O1206   1.269   .     A
C1136  H1193   1.079   .     S
C1136  C1165   1.412   .     A
C1136  C1137   1.385   .     A
C1137  H1190   1.084   .     S
C1137  C410    1.392   1_556 S
C1138  O1209   1.281   .     A
C1138  O1207   1.283   .     A
C1138  C1144   1.463   .     S
C1139  C1140   1.419   .     A
C1139  C1141   1.399   .     A
C1140  C1166   1.426   .     A
C1140  C1143   1.420   .     A
C1141  C1142   1.397   .     A
C1141  H1180   1.084   .     S
C1142  C1154   1.402   .     A
C1142  O1202   1.385   .     S
C1143  O1201   1.384   .     S
C1143  C1154   1.402   .     A
C1144  C983    1.340   1_655 S
C1144  O1038   1.387   1_655 S
C1146  C1155   1.399   .     A
C1146  H1191   1.084   .     S
C1146  C1153   1.399   .     A
C1147  C1150   1.461   .     S
C1147  C1391   1.340   .     S
C1147  C1401   1.517   .     S
C1148  C1149   1.439   .     S
C1149  O1204   1.279   .     A
C1149  O1210   1.276   .     A
C1150  O1211   1.268   .     A
C1150  O1205   1.276   .     A
C1151  O1198   1.272   .     A
C1151  C1154   1.455   .     S
C1151  O1196   1.269   .     A
C1152  O1199   1.288   .     A
C1152  C1153   1.474   .     S
C1152  O1197   1.285   .     A
C1153  C1157   1.403   .     A
C1155  C1161   1.510   .     S
C1155  C1164   1.418   .     A
C1156  H1194   1.114   .     S
C1156  O1200   1.410   .     S
C1156  H1171   1.109   .     S
C1157  O1203   1.385   .     S
C1157  C1163   1.416   .     A
C1158  H1174   1.110   .     S
C1158  H1173   1.110   .     S
C1159  O1201   1.411   .     S
C1159  H1177   1.109   .     S
C1159  H1175   1.113   .     S
C1159  H1176   1.113   .     S
C1160  H1178   1.112   .     S
C1160  H1179   1.114   .     S
C1160  H1181   1.108   .     S
C1160  O1202   1.411   .     S
C1161  H1182   1.111   .     S
C1161  H454    1.110   1_556 S
C1161  H455    1.110   1_556 S
C1162  O1203   1.410   .     S
C1162  H1185   1.113   .     S
C1162  H1187   1.109   .     S
C1162  H1186   1.114   .     S
C1163  C1164   1.422   .     A
C1163  C1165   1.424   .     A
C1164  C439    1.402   1_556 S
C1165  C437    1.419   1_556 S
C1166  C1167   1.410   .     A
C1167  H1192   1.078   .     S
C1167  C1168   1.388   .     A
C1168  H1169   1.082   .     S
H1170  C994    1.112   1_655 S
H1172  C1401   1.109   .     S
H1188  C983    1.086   1_655 S
H1189  C1391   1.086   .     S
O1195  Zn1214  1.930   .     S
O1195  Zn1212  1.967   .     S
O1195  Zn1215  1.937   .     S
O1195  Zn1213  1.937   .     S
O1196  Zn1213  1.932   .     S
O1197  Zn1215  1.944   .     S
O1198  Zn1214  1.936   .     S
O1199  Zn1212  1.928   .     S
O1204  Zn1212  1.926   .     S
O1205  Zn1215  1.930   .     S
O1206  Zn1213  1.928   .     S
O1207  Zn1214  1.939   .     S
O1208  Zn1215  1.929   .     S
O1209  Zn1212  1.920   .     S
O1210  Zn1213  1.941   .     S
O1211  Zn1214  1.934   .     S
C1216  O1289   1.270   .     A
C1216  C1226   1.439   .     S
C1216  O1287   1.269   .     A
C1217  H1274   1.079   .     S
C1217  C1246   1.412   .     A
C1217  C1218   1.385   .     A
C1218  H1271   1.084   .     S
C1218  C491    1.392   1_556 S
C1219  O1290   1.281   .     A
C1219  O1288   1.283   .     A
C1219  C1225   1.463   .     S
C1220  C1221   1.419   .     A
C1220  C1222   1.399   .     A
C1221  C1247   1.426   .     A
C1221  C1224   1.420   .     A
C1222  C1223   1.397   .     A
C1222  H1261   1.084   .     S
C1223  C1235   1.402   .     A
C1223  O1283   1.385   .     S
C1224  O1282   1.384   .     S
C1224  C1235   1.402   .     A
C1225  C1307   1.340   .     S
C1225  O1362   1.387   .     S
C1226  C1387   1.340   1_455 S
C1226  H1431   1.086   1_455 S
C1227  C1236   1.399   .     A
C1227  H1272   1.084   .     S
C1227  C1234   1.399   .     A
C1228  C1231   1.461   .     S
C1228  C743    1.340   1_565 S
C1228  C753    1.517   1_565 S
C1229  C1230   1.439   .     S
C1230  O1285   1.279   .     A
C1230  O1291   1.276   .     A
C1231  O1292   1.268   .     A
C1231  O1286   1.276   .     A
C1232  O1279   1.272   .     A
C1232  C1235   1.455   .     S
C1232  O1277   1.269   .     A
C1233  O1280   1.288   .     A
C1233  C1234   1.474   .     S
C1233  O1278   1.285   .     A
C1234  C1238   1.403   .     A
C1236  C1242   1.510   .     S
C1236  C1245   1.418   .     A
C1237  H1275   1.114   .     S
C1237  O1281   1.410   .     S
C1237  H1252   1.109   .     S
C1237  H1413   1.112   1_455 S
C1238  O1284   1.385   .     S
C1238  C1244   1.416   .     A
C1239  H1255   1.110   .     S
C1239  H1254   1.110   .     S
C1240  O1282   1.411   .     S
C1240  H1258   1.109   .     S
C1240  H1256   1.113   .     S
C1240  H1257   1.113   .     S
C1241  H1259   1.112   .     S
C1241  H1260   1.114   .     S
C1241  H1262   1.108   .     S
C1241  O1283   1.411   .     S
C1242  H1263   1.111   .     S
C1242  H535    1.110   1_556 S
C1242  H536    1.110   1_556 S
C1243  O1284   1.410   .     S
C1243  H1266   1.113   .     S
C1243  H1268   1.109   .     S
C1243  H1267   1.114   .     S
C1244  C1245   1.422   .     A
C1244  C1246   1.424   .     A
C1245  C520    1.402   1_556 S
C1246  C518    1.419   1_556 S
C1247  C1248   1.410   .     A
C1248  H1273   1.078   .     S
C1248  C1249   1.388   .     A
C1249  H1250   1.082   .     S
H1251  C1318   1.112   .     S
H1253  C753    1.109   1_565 S
H1269  C1307   1.086   .     S
H1270  C743    1.086   1_565 S
O1276  Zn1295  1.930   .     S
O1276  Zn1293  1.967   .     S
O1276  Zn1296  1.937   .     S
O1276  Zn1294  1.937   .     S
O1277  Zn1294  1.932   .     S
O1278  Zn1296  1.944   .     S
O1279  Zn1295  1.936   .     S
O1280  Zn1293  1.928   .     S
O1281  C1387   1.387   1_455 S
O1285  Zn1293  1.926   .     S
O1286  Zn1296  1.930   .     S
O1287  Zn1294  1.928   .     S
O1288  Zn1295  1.939   .     S
O1289  Zn1296  1.929   .     S
O1290  Zn1293  1.920   .     S
O1291  Zn1294  1.941   .     S
O1292  Zn1295  1.934   .     S
C1297  O1370   1.270   .     A
C1297  C1307   1.439   .     S
C1297  O1368   1.269   .     A
C1298  H1355   1.079   .     S
C1298  C1327   1.412   .     A
C1298  C1299   1.385   .     A
C1299  H1352   1.084   .     S
C1299  C572    1.392   1_556 S
C1300  O1371   1.281   .     A
C1300  O1369   1.283   .     A
C1300  C1306   1.463   .     S
C1301  C1302   1.419   .     A
C1301  C1303   1.399   .     A
C1302  C1328   1.426   .     A
C1302  C1305   1.420   .     A
C1303  C1304   1.397   .     A
C1303  H1342   1.084   .     S
C1304  C1316   1.402   .     A
C1304  O1364   1.385   .     S
C1305  O1363   1.384   .     S
C1305  C1316   1.402   .     A
C1306  C1388   1.340   .     S
C1306  O1443   1.387   .     S
C1308  C1317   1.399   .     A
C1308  H1353   1.084   .     S
C1308  C1315   1.399   .     A
C1309  C1312   1.461   .     S
C1309  C824    1.340   1_565 S
C1309  C834    1.517   1_565 S
C1310  C1311   1.439   .     S
C1311  O1366   1.279   .     A
C1311  O1372   1.276   .     A
C1312  O1373   1.268   .     A
C1312  O1367   1.276   .     A
C1313  O1360   1.272   .     A
C1313  C1316   1.455   .     S
C1313  O1358   1.269   .     A
C1314  O1361   1.288   .     A
C1314  C1315   1.474   .     S
C1314  O1359   1.285   .     A
C1315  C1319   1.403   .     A
C1317  C1323   1.510   .     S
C1317  C1326   1.418   .     A
C1318  H1356   1.114   .     S
C1318  O1362   1.410   .     S
C1318  H1333   1.109   .     S
C1319  O1365   1.385   .     S
C1319  C1325   1.416   .     A
C1320  H1336   1.110   .     S
C1320  H1335   1.110   .     S
C1321  O1363   1.411   .     S
C1321  H1339   1.109   .     S
C1321  H1337   1.113   .     S
C1321  H1338   1.113   .     S
C1322  H1340   1.112   .     S
C1322  H1341   1.114   .     S
C1322  H1343   1.108   .     S
C1322  O1364   1.411   .     S
C1323  H1344   1.111   .     S
C1323  H616    1.110   1_556 S
C1323  H617    1.110   1_556 S
C1324  O1365   1.410   .     S
C1324  H1347   1.113   .     S
C1324  H1349   1.109   .     S
C1324  H1348   1.114   .     S
C1325  C1326   1.422   .     A
C1325  C1327   1.424   .     A
C1326  C601    1.402   1_556 S
C1327  C599    1.419   1_556 S
C1328  C1329   1.410   .     A
C1329  H1354   1.078   .     S
C1329  C1330   1.388   .     A
C1330  H1331   1.082   .     S
H1332  C1399   1.112   .     S
H1334  C834    1.109   1_565 S
H1350  C1388   1.086   .     S
H1351  C824    1.086   1_565 S
O1357  Zn1376  1.930   .     S
O1357  Zn1374  1.967   .     S
O1357  Zn1377  1.937   .     S
O1357  Zn1375  1.937   .     S
O1358  Zn1375  1.932   .     S
O1359  Zn1377  1.944   .     S
O1360  Zn1376  1.936   .     S
O1361  Zn1374  1.928   .     S
O1366  Zn1374  1.926   .     S
O1367  Zn1377  1.930   .     S
O1368  Zn1375  1.928   .     S
O1369  Zn1376  1.939   .     S
O1370  Zn1377  1.929   .     S
O1371  Zn1374  1.920   .     S
O1372  Zn1375  1.941   .     S
O1373  Zn1376  1.934   .     S
C1378  O1451   1.270   .     A
C1378  C1388   1.439   .     S
C1378  O1449   1.269   .     A
C1379  H1436   1.079   .     S
C1379  C1408   1.412   .     A
C1379  C1380   1.385   .     A
C1380  H1433   1.084   .     S
C1380  C653    1.392   1_556 S
C1381  O1452   1.281   .     A
C1381  O1450   1.283   .     A
C1381  C1387   1.463   .     S
C1382  C1383   1.419   .     A
C1382  C1384   1.399   .     A
C1383  C1409   1.426   .     A
C1383  C1386   1.420   .     A
C1384  C1385   1.397   .     A
C1384  H1423   1.084   .     S
C1385  C1397   1.402   .     A
C1385  O1445   1.385   .     S
C1386  O1444   1.384   .     S
C1386  C1397   1.402   .     A
C1387  C1226   1.340   1_655 S
C1387  O1281   1.387   1_655 S
C1389  C1398   1.399   .     A
C1389  H1434   1.084   .     S
C1389  C1396   1.399   .     A
C1390  C1393   1.461   .     S
C1390  C905    1.340   1_565 S
C1390  C915    1.517   1_565 S
C1391  C1392   1.439   .     S
C1392  O1447   1.279   .     A
C1392  O1453   1.276   .     A
C1393  O1454   1.268   .     A
C1393  O1448   1.276   .     A
C1394  O1441   1.272   .     A
C1394  C1397   1.455   .     S
C1394  O1439   1.269   .     A
C1395  O1442   1.288   .     A
C1395  C1396   1.474   .     S
C1395  O1440   1.285   .     A
C1396  C1400   1.403   .     A
C1398  C1404   1.510   .     S
C1398  C1407   1.418   .     A
C1399  H1437   1.114   .     S
C1399  O1443   1.410   .     S
C1399  H1414   1.109   .     S
C1400  O1446   1.385   .     S
C1400  C1406   1.416   .     A
C1401  H1417   1.110   .     S
C1401  H1416   1.110   .     S
C1402  O1444   1.411   .     S
C1402  H1420   1.109   .     S
C1402  H1418   1.113   .     S
C1402  H1419   1.113   .     S
C1403  H1421   1.112   .     S
C1403  H1422   1.114   .     S
C1403  H1424   1.108   .     S
C1403  O1445   1.411   .     S
C1404  H1425   1.111   .     S
C1404  H697    1.110   1_556 S
C1404  H698    1.110   1_556 S
C1405  O1446   1.410   .     S
C1405  H1428   1.113   .     S
C1405  H1430   1.109   .     S
C1405  H1429   1.114   .     S
C1406  C1407   1.422   .     A
C1406  C1408   1.424   .     A
C1407  C682    1.402   1_556 S
C1408  C680    1.419   1_556 S
C1409  C1410   1.410   .     A
C1410  H1435   1.078   .     S
C1410  C1411   1.388   .     A
C1411  H1412   1.082   .     S
H1413  C1237   1.112   1_655 S
H1415  C915    1.109   1_565 S
H1431  C1226   1.086   1_655 S
H1432  C905    1.086   1_565 S
O1438  Zn1457  1.930   .     S
O1438  Zn1455  1.967   .     S
O1438  Zn1458  1.937   .     S
O1438  Zn1456  1.937   .     S
O1439  Zn1456  1.932   .     S
O1440  Zn1458  1.944   .     S
O1441  Zn1457  1.936   .     S
O1442  Zn1455  1.928   .     S
O1447  Zn1455  1.926   .     S
O1448  Zn1458  1.930   .     S
O1449  Zn1456  1.928   .     S
O1450  Zn1457  1.939   .     S
O1451  Zn1458  1.929   .     S
O1452  Zn1455  1.920   .     S
O1453  Zn1456  1.941   .     S
O1454  Zn1457  1.934   .     S
