data_str_m1_o10_o18_pcu_sym.122
_audit_creation_date              2020-01-03
_audit_creation_method            'Materials Studio'
_symmetry_space_group_name_H-M    'P1'
_symmetry_Int_Tables_number       1
_symmetry_cell_setting            triclinic
loop_
_symmetry_equiv_pos_as_xyz
  x,y,z
_cell_length_a                    32.5503
_cell_length_b                    32.5203
_cell_length_c                    35.8415
_cell_angle_alpha                 98.0744
_cell_angle_beta                  72.8270
_cell_angle_gamma                 98.5687
loop_
_atom_site_label
_atom_site_type_symbol
_atom_site_fract_x
_atom_site_fract_y
_atom_site_fract_z
_atom_site_U_iso_or_equiv
_atom_site_adp_type
_atom_site_occupancy
C1     C     0.05251   0.16004   0.25871   0.00000  Uiso   1.00
C2     C     0.21251   0.14834   0.45937   0.00000  Uiso   1.00
C3     C     0.23702   0.13272   0.47883   0.00000  Uiso   1.00
C4     C     0.28108   0.17359   0.24116   0.00000  Uiso   1.00
C5     C     0.22333   0.13391   0.01983   0.00000  Uiso   1.00
C6     C     0.18595   0.15352   0.04162   0.00000  Uiso   1.00
C7     C     0.24708   0.11641   0.03944   0.00000  Uiso   1.00
C8     C     0.23501   0.11907   0.08017   0.00000  Uiso   1.00
C9     C     0.17326   0.15369   0.08286   0.00000  Uiso   1.00
C10    C     0.32713   0.17614   0.23742   0.00000  Uiso   1.00
C11    C     0.00709   0.15785   0.26223   0.00000  Uiso   1.00
C12    C     0.10419   0.22170   0.42045   0.00000  Uiso   1.00
C13    C     0.18091   0.32218   0.23803   0.00000  Uiso   1.00
C14    C     0.15160   0.01211   0.26213   0.00000  Uiso   1.00
C15    C     0.15596   0.05615   0.25888   0.00000  Uiso   1.00
C16    C     0.17687   0.27769   0.24133   0.00000  Uiso   1.00
C17    C     0.18846   0.14525   0.14412   0.00000  Uiso   1.00
C18    C     0.14533   0.18768   0.35612   0.00000  Uiso   1.00
C19    C     0.13575   0.19600   0.39905   0.00000  Uiso   1.00
C20    C     0.19813   0.13763   0.10172   0.00000  Uiso   1.00
C21    C     0.09441   0.22789   0.46117   0.00000  Uiso   1.00
C22    C     0.31067   0.14322   0.45274   0.00000  Uiso   1.00
C23    C     0.15820   0.17748   0.41874   0.00000  Uiso   1.00
C24    C     0.32238   0.16143   0.41347   0.00000  Uiso   1.00
C25    C     0.15061   0.18490   0.45977   0.00000  Uiso   1.00
C26    C     0.11697   0.20948   0.48130   0.00000  Uiso   1.00
C27    C     0.17519   0.16811   0.47983   0.00000  Uiso   1.00
C28    C     0.16296   0.17250   0.02158   0.00000  Uiso   1.00
C29    C     0.12888   0.19663   0.04195   0.00000  Uiso   1.00
C30    C     0.10662   0.21520   0.02239   0.00000  Uiso   1.00
Cl31   Cl    0.06526   0.24519   0.05124   0.00000  Uiso   1.00
H32    H     0.27567   0.10146   0.02345   0.00000  Uiso   1.00
H33    H     0.18074   0.15648   0.40127   0.00000  Uiso   1.00
H34    H     0.11941   0.20306   0.07339   0.00000  Uiso   1.00
H35    H     0.22503   0.14582   0.42791   0.00000  Uiso   1.00
H36    H     0.00456   0.12646   0.45304   0.00000  Uiso   1.00
H37    H     0.30805   0.16904   0.47714   0.00000  Uiso   1.00
H38    H     0.29811   0.18203   0.41345   0.00000  Uiso   1.00
H39    H     0.02118   0.18027   0.40844   0.00000  Uiso   1.00
H40    H     0.32377   0.13588   0.38921   0.00000  Uiso   1.00
H41    H     0.01697   0.19290   0.21441   0.00000  Uiso   1.00
H42    H     0.31788   0.14125   0.28565   0.00000  Uiso   1.00
H43    H     0.20798   0.00279   0.21584   0.00000  Uiso   1.00
H44    H     0.12418   0.33227   0.28443   0.00000  Uiso   1.00
H45    H     0.14472   0.16674   0.10147   0.00000  Uiso   1.00
H46    H     0.25466   0.10703   0.09492   0.00000  Uiso   1.00
H47    H     0.06905   0.24723   0.47658   0.00000  Uiso   1.00
H48    H     0.08641   0.23644   0.40580   0.00000  Uiso   1.00
O49    O     0.16667   0.16667   0.25000   0.00000  Uiso   1.00
O50    O     0.15693   0.12393   0.16625   0.00000  Uiso   1.00
O51    O     0.12687   0.20646   0.33749   0.00000  Uiso   1.00
O52    O     0.21088   0.17493   0.15877   0.00000  Uiso   1.00
O53    O     0.17198   0.16135   0.33749   0.00000  Uiso   1.00
O54    O     0.27323   0.11378   0.45693   0.00000  Uiso   1.00
O55    O     0.17849   0.08101   0.27820   0.00000  Uiso   1.00
O56    O     0.14581   0.26136   0.26767   0.00000  Uiso   1.00
O57    O     0.07452   0.13251   0.23607   0.00000  Uiso   1.00
O58    O     0.26785   0.19179   0.21806   0.00000  Uiso   1.00
O59    O     0.06990   0.18960   0.27820   0.00000  Uiso   1.00
O60    O     0.25440   0.15277   0.26767   0.00000  Uiso   1.00
O61    O     0.13800   0.06903   0.23607   0.00000  Uiso   1.00
O62    O     0.20437   0.25527   0.21806   0.00000  Uiso   1.00
Zn63   Zn    0.19244   0.14090   0.28277   0.00000  Uiso   1.00
Zn64   Zn    0.13459   0.12378   0.22257   0.00000  Uiso   1.00
Zn65   Zn    0.21166   0.19664   0.21188   0.00000  Uiso   1.00
Zn66   Zn    0.12798   0.20535   0.28277   0.00000  Uiso   1.00
C67    C     0.38584   0.16004   0.25871   0.00000  Uiso   1.00
C68    C     0.54585   0.14834   0.45937   0.00000  Uiso   1.00
C69    C     0.57035   0.13272   0.47883   0.00000  Uiso   1.00
C70    C     0.61441   0.17359   0.24116   0.00000  Uiso   1.00
C71    C     0.55666   0.13391   0.01983   0.00000  Uiso   1.00
C72    C     0.51929   0.15352   0.04162   0.00000  Uiso   1.00
C73    C     0.58041   0.11641   0.03944   0.00000  Uiso   1.00
C74    C     0.56835   0.11907   0.08017   0.00000  Uiso   1.00
C75    C     0.50659   0.15369   0.08286   0.00000  Uiso   1.00
C76    C     0.66046   0.17614   0.23742   0.00000  Uiso   1.00
C77    C     0.34042   0.15785   0.26223   0.00000  Uiso   1.00
C78    C     0.43752   0.22170   0.42045   0.00000  Uiso   1.00
C79    C     0.51424   0.32218   0.23803   0.00000  Uiso   1.00
C80    C     0.48493   0.01211   0.26213   0.00000  Uiso   1.00
C81    C     0.48929   0.05615   0.25888   0.00000  Uiso   1.00
C82    C     0.51021   0.27769   0.24133   0.00000  Uiso   1.00
C83    C     0.52180   0.14525   0.14412   0.00000  Uiso   1.00
C84    C     0.47866   0.18768   0.35612   0.00000  Uiso   1.00
C85    C     0.46908   0.19600   0.39905   0.00000  Uiso   1.00
C86    C     0.53147   0.13763   0.10172   0.00000  Uiso   1.00
C87    C     0.42774   0.22789   0.46117   0.00000  Uiso   1.00
C88    C     0.64400   0.14322   0.45274   0.00000  Uiso   1.00
C89    C     0.49153   0.17748   0.41874   0.00000  Uiso   1.00
C90    C     0.65572   0.16143   0.41347   0.00000  Uiso   1.00
C91    C     0.48395   0.18490   0.45977   0.00000  Uiso   1.00
C92    C     0.45031   0.20948   0.48130   0.00000  Uiso   1.00
C93    C     0.50853   0.16811   0.47983   0.00000  Uiso   1.00
C94    C     0.49629   0.17250   0.02158   0.00000  Uiso   1.00
C95    C     0.46222   0.19663   0.04195   0.00000  Uiso   1.00
C96    C     0.43995   0.21520   0.02239   0.00000  Uiso   1.00
Cl97   Cl    0.39859   0.24519   0.05124   0.00000  Uiso   1.00
H98    H     0.60901   0.10146   0.02345   0.00000  Uiso   1.00
H99    H     0.51407   0.15648   0.40127   0.00000  Uiso   1.00
H100   H     0.45274   0.20306   0.07339   0.00000  Uiso   1.00
H101   H     0.55836   0.14582   0.42791   0.00000  Uiso   1.00
H102   H     0.33790   0.12646   0.45304   0.00000  Uiso   1.00
H103   H     0.64138   0.16904   0.47714   0.00000  Uiso   1.00
H104   H     0.63144   0.18203   0.41345   0.00000  Uiso   1.00
H105   H     0.35452   0.18027   0.40844   0.00000  Uiso   1.00
H106   H     0.65710   0.13588   0.38921   0.00000  Uiso   1.00
H107   H     0.35031   0.19290   0.21441   0.00000  Uiso   1.00
H108   H     0.65121   0.14125   0.28565   0.00000  Uiso   1.00
H109   H     0.54132   0.00279   0.21584   0.00000  Uiso   1.00
H110   H     0.45751   0.33227   0.28443   0.00000  Uiso   1.00
H111   H     0.47806   0.16674   0.10147   0.00000  Uiso   1.00
H112   H     0.58799   0.10703   0.09492   0.00000  Uiso   1.00
H113   H     0.40239   0.24723   0.47658   0.00000  Uiso   1.00
H114   H     0.41974   0.23644   0.40580   0.00000  Uiso   1.00
O115   O     0.50000   0.16667   0.25000   0.00000  Uiso   1.00
O116   O     0.49027   0.12393   0.16625   0.00000  Uiso   1.00
O117   O     0.46020   0.20646   0.33749   0.00000  Uiso   1.00
O118   O     0.54421   0.17493   0.15877   0.00000  Uiso   1.00
O119   O     0.50532   0.16135   0.33749   0.00000  Uiso   1.00
O120   O     0.60657   0.11378   0.45693   0.00000  Uiso   1.00
O121   O     0.51182   0.08101   0.27820   0.00000  Uiso   1.00
O122   O     0.47914   0.26136   0.26767   0.00000  Uiso   1.00
O123   O     0.40785   0.13251   0.23607   0.00000  Uiso   1.00
O124   O     0.60119   0.19179   0.21806   0.00000  Uiso   1.00
O125   O     0.40323   0.18960   0.27820   0.00000  Uiso   1.00
O126   O     0.58773   0.15277   0.26767   0.00000  Uiso   1.00
O127   O     0.47133   0.06903   0.23607   0.00000  Uiso   1.00
O128   O     0.53771   0.25527   0.21806   0.00000  Uiso   1.00
Zn129  Zn    0.52577   0.14090   0.28277   0.00000  Uiso   1.00
Zn130  Zn    0.46792   0.12378   0.22257   0.00000  Uiso   1.00
Zn131  Zn    0.54500   0.19664   0.21188   0.00000  Uiso   1.00
Zn132  Zn    0.46131   0.20535   0.28277   0.00000  Uiso   1.00
C133   C     0.71918   0.16004   0.25871   0.00000  Uiso   1.00
C134   C     0.87918   0.14834   0.45937   0.00000  Uiso   1.00
C135   C     0.90368   0.13272   0.47883   0.00000  Uiso   1.00
C136   C     0.94775   0.17359   0.24116   0.00000  Uiso   1.00
C137   C     0.89000   0.13391   0.01983   0.00000  Uiso   1.00
C138   C     0.85262   0.15352   0.04162   0.00000  Uiso   1.00
C139   C     0.91375   0.11641   0.03944   0.00000  Uiso   1.00
C140   C     0.90168   0.11907   0.08017   0.00000  Uiso   1.00
C141   C     0.83992   0.15369   0.08286   0.00000  Uiso   1.00
C142   C     0.99380   0.17614   0.23742   0.00000  Uiso   1.00
C143   C     0.67375   0.15785   0.26223   0.00000  Uiso   1.00
C144   C     0.77085   0.22170   0.42045   0.00000  Uiso   1.00
C145   C     0.84757   0.32218   0.23803   0.00000  Uiso   1.00
C146   C     0.81826   0.01211   0.26213   0.00000  Uiso   1.00
C147   C     0.82263   0.05615   0.25888   0.00000  Uiso   1.00
C148   C     0.84354   0.27769   0.24133   0.00000  Uiso   1.00
C149   C     0.85513   0.14525   0.14412   0.00000  Uiso   1.00
C150   C     0.81199   0.18768   0.35612   0.00000  Uiso   1.00
C151   C     0.80242   0.19600   0.39905   0.00000  Uiso   1.00
C152   C     0.86480   0.13763   0.10172   0.00000  Uiso   1.00
C153   C     0.76107   0.22789   0.46117   0.00000  Uiso   1.00
C154   C     0.97733   0.14322   0.45274   0.00000  Uiso   1.00
C155   C     0.82486   0.17748   0.41874   0.00000  Uiso   1.00
C156   C     0.98905   0.16143   0.41347   0.00000  Uiso   1.00
C157   C     0.81728   0.18490   0.45977   0.00000  Uiso   1.00
C158   C     0.78364   0.20948   0.48130   0.00000  Uiso   1.00
C159   C     0.84186   0.16811   0.47983   0.00000  Uiso   1.00
C160   C     0.82962   0.17250   0.02158   0.00000  Uiso   1.00
C161   C     0.79555   0.19663   0.04195   0.00000  Uiso   1.00
C162   C     0.77328   0.21520   0.02239   0.00000  Uiso   1.00
Cl163  Cl    0.73192   0.24519   0.05124   0.00000  Uiso   1.00
H164   H     0.94234   0.10146   0.02345   0.00000  Uiso   1.00
H165   H     0.84741   0.15648   0.40127   0.00000  Uiso   1.00
H166   H     0.78608   0.20306   0.07339   0.00000  Uiso   1.00
H167   H     0.89169   0.14582   0.42791   0.00000  Uiso   1.00
H168   H     0.67123   0.12646   0.45304   0.00000  Uiso   1.00
H169   H     0.97471   0.16904   0.47714   0.00000  Uiso   1.00
H170   H     0.96478   0.18203   0.41345   0.00000  Uiso   1.00
H171   H     0.68785   0.18027   0.40844   0.00000  Uiso   1.00
H172   H     0.99043   0.13588   0.38921   0.00000  Uiso   1.00
H173   H     0.68364   0.19290   0.21441   0.00000  Uiso   1.00
H174   H     0.98454   0.14125   0.28565   0.00000  Uiso   1.00
H175   H     0.87465   0.00279   0.21584   0.00000  Uiso   1.00
H176   H     0.79084   0.33227   0.28443   0.00000  Uiso   1.00
H177   H     0.81139   0.16674   0.10147   0.00000  Uiso   1.00
H178   H     0.92132   0.10703   0.09492   0.00000  Uiso   1.00
H179   H     0.73572   0.24723   0.47658   0.00000  Uiso   1.00
H180   H     0.75307   0.23644   0.40580   0.00000  Uiso   1.00
O181   O     0.83333   0.16667   0.25000   0.00000  Uiso   1.00
O182   O     0.82360   0.12393   0.16625   0.00000  Uiso   1.00
O183   O     0.79354   0.20646   0.33749   0.00000  Uiso   1.00
O184   O     0.87755   0.17493   0.15877   0.00000  Uiso   1.00
O185   O     0.83865   0.16135   0.33749   0.00000  Uiso   1.00
O186   O     0.93990   0.11378   0.45693   0.00000  Uiso   1.00
O187   O     0.84515   0.08101   0.27820   0.00000  Uiso   1.00
O188   O     0.81247   0.26136   0.26767   0.00000  Uiso   1.00
O189   O     0.74119   0.13251   0.23607   0.00000  Uiso   1.00
O190   O     0.93452   0.19179   0.21806   0.00000  Uiso   1.00
O191   O     0.73656   0.18960   0.27820   0.00000  Uiso   1.00
O192   O     0.92106   0.15277   0.26767   0.00000  Uiso   1.00
O193   O     0.80467   0.06903   0.23607   0.00000  Uiso   1.00
O194   O     0.87104   0.25527   0.21806   0.00000  Uiso   1.00
Zn195  Zn    0.85910   0.14090   0.28277   0.00000  Uiso   1.00
Zn196  Zn    0.80125   0.12378   0.22257   0.00000  Uiso   1.00
Zn197  Zn    0.87833   0.19664   0.21188   0.00000  Uiso   1.00
Zn198  Zn    0.79465   0.20535   0.28277   0.00000  Uiso   1.00
C199   C     0.05251   0.49337   0.25871   0.00000  Uiso   1.00
C200   C     0.21251   0.48167   0.45937   0.00000  Uiso   1.00
C201   C     0.23702   0.46605   0.47883   0.00000  Uiso   1.00
C202   C     0.28108   0.50692   0.24116   0.00000  Uiso   1.00
C203   C     0.22333   0.46724   0.01983   0.00000  Uiso   1.00
C204   C     0.18595   0.48685   0.04162   0.00000  Uiso   1.00
C205   C     0.24708   0.44974   0.03944   0.00000  Uiso   1.00
C206   C     0.23501   0.45241   0.08017   0.00000  Uiso   1.00
C207   C     0.17326   0.48702   0.08286   0.00000  Uiso   1.00
C208   C     0.32713   0.50948   0.23742   0.00000  Uiso   1.00
C209   C     0.00709   0.49118   0.26223   0.00000  Uiso   1.00
C210   C     0.10419   0.55504   0.42045   0.00000  Uiso   1.00
C211   C     0.18091   0.65551   0.23803   0.00000  Uiso   1.00
C212   C     0.15160   0.34544   0.26213   0.00000  Uiso   1.00
C213   C     0.15596   0.38948   0.25888   0.00000  Uiso   1.00
C214   C     0.17687   0.61103   0.24133   0.00000  Uiso   1.00
C215   C     0.18846   0.47859   0.14412   0.00000  Uiso   1.00
C216   C     0.14533   0.52101   0.35612   0.00000  Uiso   1.00
C217   C     0.13575   0.52934   0.39905   0.00000  Uiso   1.00
C218   C     0.19813   0.47096   0.10172   0.00000  Uiso   1.00
C219   C     0.09441   0.56123   0.46117   0.00000  Uiso   1.00
C220   C     0.31067   0.47655   0.45274   0.00000  Uiso   1.00
C221   C     0.15820   0.51082   0.41874   0.00000  Uiso   1.00
C222   C     0.32238   0.49476   0.41347   0.00000  Uiso   1.00
C223   C     0.15061   0.51824   0.45977   0.00000  Uiso   1.00
C224   C     0.11697   0.54282   0.48130   0.00000  Uiso   1.00
C225   C     0.17519   0.50145   0.47983   0.00000  Uiso   1.00
C226   C     0.16296   0.50583   0.02158   0.00000  Uiso   1.00
C227   C     0.12888   0.52997   0.04195   0.00000  Uiso   1.00
C228   C     0.10662   0.54853   0.02239   0.00000  Uiso   1.00
Cl229  Cl    0.06526   0.57853   0.05124   0.00000  Uiso   1.00
H230   H     0.27567   0.43480   0.02345   0.00000  Uiso   1.00
H231   H     0.18074   0.48981   0.40127   0.00000  Uiso   1.00
H232   H     0.11941   0.53640   0.07339   0.00000  Uiso   1.00
H233   H     0.22503   0.47916   0.42791   0.00000  Uiso   1.00
H234   H     0.00456   0.45980   0.45304   0.00000  Uiso   1.00
H235   H     0.30805   0.50237   0.47714   0.00000  Uiso   1.00
H236   H     0.29811   0.51536   0.41345   0.00000  Uiso   1.00
H237   H     0.02118   0.51361   0.40844   0.00000  Uiso   1.00
H238   H     0.32377   0.46922   0.38921   0.00000  Uiso   1.00
H239   H     0.01697   0.52624   0.21441   0.00000  Uiso   1.00
H240   H     0.31788   0.47458   0.28565   0.00000  Uiso   1.00
H241   H     0.20798   0.33612   0.21584   0.00000  Uiso   1.00
H242   H     0.12418   0.66560   0.28443   0.00000  Uiso   1.00
H243   H     0.14472   0.50007   0.10147   0.00000  Uiso   1.00
H244   H     0.25466   0.44037   0.09492   0.00000  Uiso   1.00
H245   H     0.06905   0.58057   0.47658   0.00000  Uiso   1.00
H246   H     0.08641   0.56977   0.40580   0.00000  Uiso   1.00
O247   O     0.16667   0.50000   0.25000   0.00000  Uiso   1.00
O248   O     0.15693   0.45726   0.16625   0.00000  Uiso   1.00
O249   O     0.12687   0.53979   0.33749   0.00000  Uiso   1.00
O250   O     0.21088   0.50826   0.15877   0.00000  Uiso   1.00
O251   O     0.17198   0.49468   0.33749   0.00000  Uiso   1.00
O252   O     0.27323   0.44711   0.45693   0.00000  Uiso   1.00
O253   O     0.17849   0.41434   0.27820   0.00000  Uiso   1.00
O254   O     0.14581   0.59469   0.26767   0.00000  Uiso   1.00
O255   O     0.07452   0.46584   0.23607   0.00000  Uiso   1.00
O256   O     0.26785   0.52512   0.21806   0.00000  Uiso   1.00
O257   O     0.06990   0.52293   0.27820   0.00000  Uiso   1.00
O258   O     0.25440   0.48610   0.26767   0.00000  Uiso   1.00
O259   O     0.13800   0.40236   0.23607   0.00000  Uiso   1.00
O260   O     0.20437   0.58860   0.21806   0.00000  Uiso   1.00
Zn261  Zn    0.19244   0.47423   0.28277   0.00000  Uiso   1.00
Zn262  Zn    0.13459   0.45711   0.22257   0.00000  Uiso   1.00
Zn263  Zn    0.21166   0.52997   0.21188   0.00000  Uiso   1.00
Zn264  Zn    0.12798   0.53868   0.28277   0.00000  Uiso   1.00
C265   C     0.38584   0.49337   0.25871   0.00000  Uiso   1.00
C266   C     0.54585   0.48167   0.45937   0.00000  Uiso   1.00
C267   C     0.57035   0.46605   0.47883   0.00000  Uiso   1.00
C268   C     0.61441   0.50692   0.24116   0.00000  Uiso   1.00
C269   C     0.55666   0.46724   0.01983   0.00000  Uiso   1.00
C270   C     0.51929   0.48685   0.04162   0.00000  Uiso   1.00
C271   C     0.58041   0.44974   0.03944   0.00000  Uiso   1.00
C272   C     0.56835   0.45241   0.08017   0.00000  Uiso   1.00
C273   C     0.50659   0.48702   0.08286   0.00000  Uiso   1.00
C274   C     0.66046   0.50948   0.23742   0.00000  Uiso   1.00
C275   C     0.34042   0.49118   0.26223   0.00000  Uiso   1.00
C276   C     0.43752   0.55504   0.42045   0.00000  Uiso   1.00
C277   C     0.51424   0.65551   0.23803   0.00000  Uiso   1.00
C278   C     0.48493   0.34544   0.26213   0.00000  Uiso   1.00
C279   C     0.48929   0.38948   0.25888   0.00000  Uiso   1.00
C280   C     0.51021   0.61103   0.24133   0.00000  Uiso   1.00
C281   C     0.52180   0.47859   0.14412   0.00000  Uiso   1.00
C282   C     0.47866   0.52101   0.35612   0.00000  Uiso   1.00
C283   C     0.46908   0.52934   0.39905   0.00000  Uiso   1.00
C284   C     0.53147   0.47096   0.10172   0.00000  Uiso   1.00
C285   C     0.42774   0.56123   0.46117   0.00000  Uiso   1.00
C286   C     0.64400   0.47655   0.45274   0.00000  Uiso   1.00
C287   C     0.49153   0.51082   0.41874   0.00000  Uiso   1.00
C288   C     0.65572   0.49476   0.41347   0.00000  Uiso   1.00
C289   C     0.48395   0.51824   0.45977   0.00000  Uiso   1.00
C290   C     0.45031   0.54282   0.48130   0.00000  Uiso   1.00
C291   C     0.50853   0.50145   0.47983   0.00000  Uiso   1.00
C292   C     0.49629   0.50583   0.02158   0.00000  Uiso   1.00
C293   C     0.46222   0.52997   0.04195   0.00000  Uiso   1.00
C294   C     0.43995   0.54853   0.02239   0.00000  Uiso   1.00
Cl295  Cl    0.39859   0.57853   0.05124   0.00000  Uiso   1.00
H296   H     0.60901   0.43480   0.02345   0.00000  Uiso   1.00
H297   H     0.51407   0.48981   0.40127   0.00000  Uiso   1.00
H298   H     0.45274   0.53640   0.07339   0.00000  Uiso   1.00
H299   H     0.55836   0.47916   0.42791   0.00000  Uiso   1.00
H300   H     0.33790   0.45980   0.45304   0.00000  Uiso   1.00
H301   H     0.64138   0.50237   0.47714   0.00000  Uiso   1.00
H302   H     0.63144   0.51536   0.41345   0.00000  Uiso   1.00
H303   H     0.35452   0.51361   0.40844   0.00000  Uiso   1.00
H304   H     0.65710   0.46922   0.38921   0.00000  Uiso   1.00
H305   H     0.35031   0.52624   0.21441   0.00000  Uiso   1.00
H306   H     0.65121   0.47458   0.28565   0.00000  Uiso   1.00
H307   H     0.54132   0.33612   0.21584   0.00000  Uiso   1.00
H308   H     0.45751   0.66560   0.28443   0.00000  Uiso   1.00
H309   H     0.47806   0.50007   0.10147   0.00000  Uiso   1.00
H310   H     0.58799   0.44037   0.09492   0.00000  Uiso   1.00
H311   H     0.40239   0.58057   0.47658   0.00000  Uiso   1.00
H312   H     0.41974   0.56977   0.40580   0.00000  Uiso   1.00
O313   O     0.50000   0.50000   0.25000   0.00000  Uiso   1.00
O314   O     0.49027   0.45726   0.16625   0.00000  Uiso   1.00
O315   O     0.46020   0.53979   0.33749   0.00000  Uiso   1.00
O316   O     0.54421   0.50826   0.15877   0.00000  Uiso   1.00
O317   O     0.50532   0.49468   0.33749   0.00000  Uiso   1.00
O318   O     0.60657   0.44711   0.45693   0.00000  Uiso   1.00
O319   O     0.51182   0.41434   0.27820   0.00000  Uiso   1.00
O320   O     0.47914   0.59469   0.26767   0.00000  Uiso   1.00
O321   O     0.40785   0.46584   0.23607   0.00000  Uiso   1.00
O322   O     0.60119   0.52512   0.21806   0.00000  Uiso   1.00
O323   O     0.40323   0.52293   0.27820   0.00000  Uiso   1.00
O324   O     0.58773   0.48610   0.26767   0.00000  Uiso   1.00
O325   O     0.47133   0.40236   0.23607   0.00000  Uiso   1.00
O326   O     0.53771   0.58860   0.21806   0.00000  Uiso   1.00
Zn327  Zn    0.52577   0.47423   0.28277   0.00000  Uiso   1.00
Zn328  Zn    0.46792   0.45711   0.22257   0.00000  Uiso   1.00
Zn329  Zn    0.54500   0.52997   0.21188   0.00000  Uiso   1.00
Zn330  Zn    0.46131   0.53868   0.28277   0.00000  Uiso   1.00
C331   C     0.71918   0.49337   0.25871   0.00000  Uiso   1.00
C332   C     0.87918   0.48167   0.45937   0.00000  Uiso   1.00
C333   C     0.90368   0.46605   0.47883   0.00000  Uiso   1.00
C334   C     0.94775   0.50692   0.24116   0.00000  Uiso   1.00
C335   C     0.89000   0.46724   0.01983   0.00000  Uiso   1.00
C336   C     0.85262   0.48685   0.04162   0.00000  Uiso   1.00
C337   C     0.91375   0.44974   0.03944   0.00000  Uiso   1.00
C338   C     0.90168   0.45241   0.08017   0.00000  Uiso   1.00
C339   C     0.83992   0.48702   0.08286   0.00000  Uiso   1.00
C340   C     0.99380   0.50948   0.23742   0.00000  Uiso   1.00
C341   C     0.67375   0.49118   0.26223   0.00000  Uiso   1.00
C342   C     0.77085   0.55504   0.42045   0.00000  Uiso   1.00
C343   C     0.84757   0.65551   0.23803   0.00000  Uiso   1.00
C344   C     0.81826   0.34544   0.26213   0.00000  Uiso   1.00
C345   C     0.82263   0.38948   0.25888   0.00000  Uiso   1.00
C346   C     0.84354   0.61103   0.24133   0.00000  Uiso   1.00
C347   C     0.85513   0.47859   0.14412   0.00000  Uiso   1.00
C348   C     0.81199   0.52101   0.35612   0.00000  Uiso   1.00
C349   C     0.80242   0.52934   0.39905   0.00000  Uiso   1.00
C350   C     0.86480   0.47096   0.10172   0.00000  Uiso   1.00
C351   C     0.76107   0.56123   0.46117   0.00000  Uiso   1.00
C352   C     0.97733   0.47655   0.45274   0.00000  Uiso   1.00
C353   C     0.82486   0.51082   0.41874   0.00000  Uiso   1.00
C354   C     0.98905   0.49476   0.41347   0.00000  Uiso   1.00
C355   C     0.81728   0.51824   0.45977   0.00000  Uiso   1.00
C356   C     0.78364   0.54282   0.48130   0.00000  Uiso   1.00
C357   C     0.84186   0.50145   0.47983   0.00000  Uiso   1.00
C358   C     0.82962   0.50583   0.02158   0.00000  Uiso   1.00
C359   C     0.79555   0.52997   0.04195   0.00000  Uiso   1.00
C360   C     0.77328   0.54853   0.02239   0.00000  Uiso   1.00
Cl361  Cl    0.73192   0.57853   0.05124   0.00000  Uiso   1.00
H362   H     0.94234   0.43480   0.02345   0.00000  Uiso   1.00
H363   H     0.84741   0.48981   0.40127   0.00000  Uiso   1.00
H364   H     0.78608   0.53640   0.07339   0.00000  Uiso   1.00
H365   H     0.89169   0.47916   0.42791   0.00000  Uiso   1.00
H366   H     0.67123   0.45980   0.45304   0.00000  Uiso   1.00
H367   H     0.97471   0.50237   0.47714   0.00000  Uiso   1.00
H368   H     0.96478   0.51536   0.41345   0.00000  Uiso   1.00
H369   H     0.68785   0.51361   0.40844   0.00000  Uiso   1.00
H370   H     0.99043   0.46922   0.38921   0.00000  Uiso   1.00
H371   H     0.68364   0.52624   0.21441   0.00000  Uiso   1.00
H372   H     0.98454   0.47458   0.28565   0.00000  Uiso   1.00
H373   H     0.87465   0.33612   0.21584   0.00000  Uiso   1.00
H374   H     0.79084   0.66560   0.28443   0.00000  Uiso   1.00
H375   H     0.81139   0.50007   0.10147   0.00000  Uiso   1.00
H376   H     0.92132   0.44037   0.09492   0.00000  Uiso   1.00
H377   H     0.73572   0.58057   0.47658   0.00000  Uiso   1.00
H378   H     0.75307   0.56977   0.40580   0.00000  Uiso   1.00
O379   O     0.83333   0.50000   0.25000   0.00000  Uiso   1.00
O380   O     0.82360   0.45726   0.16625   0.00000  Uiso   1.00
O381   O     0.79354   0.53979   0.33749   0.00000  Uiso   1.00
O382   O     0.87755   0.50826   0.15877   0.00000  Uiso   1.00
O383   O     0.83865   0.49468   0.33749   0.00000  Uiso   1.00
O384   O     0.93990   0.44711   0.45693   0.00000  Uiso   1.00
O385   O     0.84515   0.41434   0.27820   0.00000  Uiso   1.00
O386   O     0.81247   0.59469   0.26767   0.00000  Uiso   1.00
O387   O     0.74119   0.46584   0.23607   0.00000  Uiso   1.00
O388   O     0.93452   0.52512   0.21806   0.00000  Uiso   1.00
O389   O     0.73656   0.52293   0.27820   0.00000  Uiso   1.00
O390   O     0.92106   0.48610   0.26767   0.00000  Uiso   1.00
O391   O     0.80467   0.40236   0.23607   0.00000  Uiso   1.00
O392   O     0.87104   0.58860   0.21806   0.00000  Uiso   1.00
Zn393  Zn    0.85910   0.47423   0.28277   0.00000  Uiso   1.00
Zn394  Zn    0.80125   0.45711   0.22257   0.00000  Uiso   1.00
Zn395  Zn    0.87833   0.52997   0.21188   0.00000  Uiso   1.00
Zn396  Zn    0.79465   0.53868   0.28277   0.00000  Uiso   1.00
C397   C     0.05251   0.82670   0.25871   0.00000  Uiso   1.00
C398   C     0.21251   0.81501   0.45937   0.00000  Uiso   1.00
C399   C     0.23702   0.79938   0.47883   0.00000  Uiso   1.00
C400   C     0.28108   0.84026   0.24116   0.00000  Uiso   1.00
C401   C     0.22333   0.80058   0.01983   0.00000  Uiso   1.00
C402   C     0.18595   0.82019   0.04162   0.00000  Uiso   1.00
C403   C     0.24708   0.78307   0.03944   0.00000  Uiso   1.00
C404   C     0.23501   0.78574   0.08017   0.00000  Uiso   1.00
C405   C     0.17326   0.82036   0.08286   0.00000  Uiso   1.00
C406   C     0.32713   0.84281   0.23742   0.00000  Uiso   1.00
C407   C     0.00709   0.82452   0.26223   0.00000  Uiso   1.00
C408   C     0.10419   0.88837   0.42045   0.00000  Uiso   1.00
C409   C     0.18091   0.98885   0.23803   0.00000  Uiso   1.00
C410   C     0.15160   0.67878   0.26213   0.00000  Uiso   1.00
C411   C     0.15596   0.72282   0.25888   0.00000  Uiso   1.00
C412   C     0.17687   0.94436   0.24133   0.00000  Uiso   1.00
C413   C     0.18846   0.81192   0.14412   0.00000  Uiso   1.00
C414   C     0.14533   0.85434   0.35612   0.00000  Uiso   1.00
C415   C     0.13575   0.86267   0.39905   0.00000  Uiso   1.00
C416   C     0.19813   0.80429   0.10172   0.00000  Uiso   1.00
C417   C     0.09441   0.89456   0.46117   0.00000  Uiso   1.00
C418   C     0.31067   0.80989   0.45274   0.00000  Uiso   1.00
C419   C     0.15820   0.84415   0.41874   0.00000  Uiso   1.00
C420   C     0.32238   0.82809   0.41347   0.00000  Uiso   1.00
C421   C     0.15061   0.85157   0.45977   0.00000  Uiso   1.00
C422   C     0.11697   0.87615   0.48130   0.00000  Uiso   1.00
C423   C     0.17519   0.83478   0.47983   0.00000  Uiso   1.00
C424   C     0.16296   0.83917   0.02158   0.00000  Uiso   1.00
C425   C     0.12888   0.86330   0.04195   0.00000  Uiso   1.00
C426   C     0.10662   0.88186   0.02239   0.00000  Uiso   1.00
Cl427  Cl    0.06526   0.91186   0.05124   0.00000  Uiso   1.00
H428   H     0.27567   0.76813   0.02345   0.00000  Uiso   1.00
H429   H     0.18074   0.82315   0.40127   0.00000  Uiso   1.00
H430   H     0.11941   0.86973   0.07339   0.00000  Uiso   1.00
H431   H     0.22503   0.81249   0.42791   0.00000  Uiso   1.00
H432   H     0.00456   0.79313   0.45304   0.00000  Uiso   1.00
H433   H     0.30805   0.83570   0.47714   0.00000  Uiso   1.00
H434   H     0.29811   0.84869   0.41345   0.00000  Uiso   1.00
H435   H     0.02118   0.84694   0.40844   0.00000  Uiso   1.00
H436   H     0.32377   0.80255   0.38921   0.00000  Uiso   1.00
H437   H     0.01697   0.85957   0.21441   0.00000  Uiso   1.00
H438   H     0.31788   0.80792   0.28565   0.00000  Uiso   1.00
H439   H     0.20798   0.66946   0.21584   0.00000  Uiso   1.00
H440   H     0.12418   0.99894   0.28443   0.00000  Uiso   1.00
H441   H     0.14472   0.83341   0.10147   0.00000  Uiso   1.00
H442   H     0.25466   0.77370   0.09492   0.00000  Uiso   1.00
H443   H     0.06905   0.91390   0.47658   0.00000  Uiso   1.00
H444   H     0.08641   0.90310   0.40580   0.00000  Uiso   1.00
O445   O     0.16667   0.83333   0.25000   0.00000  Uiso   1.00
O446   O     0.15693   0.79060   0.16625   0.00000  Uiso   1.00
O447   O     0.12687   0.87313   0.33749   0.00000  Uiso   1.00
O448   O     0.21088   0.84159   0.15877   0.00000  Uiso   1.00
O449   O     0.17198   0.82802   0.33749   0.00000  Uiso   1.00
O450   O     0.27323   0.78044   0.45693   0.00000  Uiso   1.00
O451   O     0.17849   0.74768   0.27820   0.00000  Uiso   1.00
O452   O     0.14581   0.92803   0.26767   0.00000  Uiso   1.00
O453   O     0.07452   0.79917   0.23607   0.00000  Uiso   1.00
O454   O     0.26785   0.85845   0.21806   0.00000  Uiso   1.00
O455   O     0.06990   0.85627   0.27820   0.00000  Uiso   1.00
O456   O     0.25440   0.81944   0.26767   0.00000  Uiso   1.00
O457   O     0.13800   0.73570   0.23607   0.00000  Uiso   1.00
O458   O     0.20437   0.92193   0.21806   0.00000  Uiso   1.00
Zn459  Zn    0.19244   0.80756   0.28277   0.00000  Uiso   1.00
Zn460  Zn    0.13459   0.79044   0.22257   0.00000  Uiso   1.00
Zn461  Zn    0.21166   0.86331   0.21188   0.00000  Uiso   1.00
Zn462  Zn    0.12798   0.87202   0.28277   0.00000  Uiso   1.00
C463   C     0.38584   0.82670   0.25871   0.00000  Uiso   1.00
C464   C     0.54585   0.81501   0.45937   0.00000  Uiso   1.00
C465   C     0.57035   0.79938   0.47883   0.00000  Uiso   1.00
C466   C     0.61441   0.84026   0.24116   0.00000  Uiso   1.00
C467   C     0.55666   0.80058   0.01983   0.00000  Uiso   1.00
C468   C     0.51929   0.82019   0.04162   0.00000  Uiso   1.00
C469   C     0.58041   0.78307   0.03944   0.00000  Uiso   1.00
C470   C     0.56835   0.78574   0.08017   0.00000  Uiso   1.00
C471   C     0.50659   0.82036   0.08286   0.00000  Uiso   1.00
C472   C     0.66046   0.84281   0.23742   0.00000  Uiso   1.00
C473   C     0.34042   0.82452   0.26223   0.00000  Uiso   1.00
C474   C     0.43752   0.88837   0.42045   0.00000  Uiso   1.00
C475   C     0.51424   0.98885   0.23803   0.00000  Uiso   1.00
C476   C     0.48493   0.67878   0.26213   0.00000  Uiso   1.00
C477   C     0.48929   0.72282   0.25888   0.00000  Uiso   1.00
C478   C     0.51021   0.94436   0.24133   0.00000  Uiso   1.00
C479   C     0.52180   0.81192   0.14412   0.00000  Uiso   1.00
C480   C     0.47866   0.85434   0.35612   0.00000  Uiso   1.00
C481   C     0.46908   0.86267   0.39905   0.00000  Uiso   1.00
C482   C     0.53147   0.80429   0.10172   0.00000  Uiso   1.00
C483   C     0.42774   0.89456   0.46117   0.00000  Uiso   1.00
C484   C     0.64400   0.80989   0.45274   0.00000  Uiso   1.00
C485   C     0.49153   0.84415   0.41874   0.00000  Uiso   1.00
C486   C     0.65572   0.82809   0.41347   0.00000  Uiso   1.00
C487   C     0.48395   0.85157   0.45977   0.00000  Uiso   1.00
C488   C     0.45031   0.87615   0.48130   0.00000  Uiso   1.00
C489   C     0.50853   0.83478   0.47983   0.00000  Uiso   1.00
C490   C     0.49629   0.83917   0.02158   0.00000  Uiso   1.00
C491   C     0.46222   0.86330   0.04195   0.00000  Uiso   1.00
C492   C     0.43995   0.88186   0.02239   0.00000  Uiso   1.00
Cl493  Cl    0.39859   0.91186   0.05124   0.00000  Uiso   1.00
H494   H     0.60901   0.76813   0.02345   0.00000  Uiso   1.00
H495   H     0.51407   0.82315   0.40127   0.00000  Uiso   1.00
H496   H     0.45274   0.86973   0.07339   0.00000  Uiso   1.00
H497   H     0.55836   0.81249   0.42791   0.00000  Uiso   1.00
H498   H     0.33790   0.79313   0.45304   0.00000  Uiso   1.00
H499   H     0.64138   0.83570   0.47714   0.00000  Uiso   1.00
H500   H     0.63144   0.84869   0.41345   0.00000  Uiso   1.00
H501   H     0.35452   0.84694   0.40844   0.00000  Uiso   1.00
H502   H     0.65710   0.80255   0.38921   0.00000  Uiso   1.00
H503   H     0.35031   0.85957   0.21441   0.00000  Uiso   1.00
H504   H     0.65121   0.80792   0.28565   0.00000  Uiso   1.00
H505   H     0.54132   0.66946   0.21584   0.00000  Uiso   1.00
H506   H     0.45751   0.99894   0.28443   0.00000  Uiso   1.00
H507   H     0.47806   0.83341   0.10147   0.00000  Uiso   1.00
H508   H     0.58799   0.77370   0.09492   0.00000  Uiso   1.00
H509   H     0.40239   0.91390   0.47658   0.00000  Uiso   1.00
H510   H     0.41974   0.90310   0.40580   0.00000  Uiso   1.00
O511   O     0.50000   0.83333   0.25000   0.00000  Uiso   1.00
O512   O     0.49027   0.79060   0.16625   0.00000  Uiso   1.00
O513   O     0.46020   0.87313   0.33749   0.00000  Uiso   1.00
O514   O     0.54421   0.84159   0.15877   0.00000  Uiso   1.00
O515   O     0.50532   0.82802   0.33749   0.00000  Uiso   1.00
O516   O     0.60657   0.78044   0.45693   0.00000  Uiso   1.00
O517   O     0.51182   0.74768   0.27820   0.00000  Uiso   1.00
O518   O     0.47914   0.92803   0.26767   0.00000  Uiso   1.00
O519   O     0.40785   0.79917   0.23607   0.00000  Uiso   1.00
O520   O     0.60119   0.85845   0.21806   0.00000  Uiso   1.00
O521   O     0.40323   0.85627   0.27820   0.00000  Uiso   1.00
O522   O     0.58773   0.81944   0.26767   0.00000  Uiso   1.00
O523   O     0.47133   0.73570   0.23607   0.00000  Uiso   1.00
O524   O     0.53771   0.92193   0.21806   0.00000  Uiso   1.00
Zn525  Zn    0.52577   0.80756   0.28277   0.00000  Uiso   1.00
Zn526  Zn    0.46792   0.79044   0.22257   0.00000  Uiso   1.00
Zn527  Zn    0.54500   0.86331   0.21188   0.00000  Uiso   1.00
Zn528  Zn    0.46131   0.87202   0.28277   0.00000  Uiso   1.00
C529   C     0.71918   0.82670   0.25871   0.00000  Uiso   1.00
C530   C     0.87918   0.81501   0.45937   0.00000  Uiso   1.00
C531   C     0.90368   0.79938   0.47883   0.00000  Uiso   1.00
C532   C     0.94775   0.84026   0.24116   0.00000  Uiso   1.00
C533   C     0.89000   0.80058   0.01983   0.00000  Uiso   1.00
C534   C     0.85262   0.82019   0.04162   0.00000  Uiso   1.00
C535   C     0.91375   0.78307   0.03944   0.00000  Uiso   1.00
C536   C     0.90168   0.78574   0.08017   0.00000  Uiso   1.00
C537   C     0.83992   0.82036   0.08286   0.00000  Uiso   1.00
C538   C     0.99380   0.84281   0.23742   0.00000  Uiso   1.00
C539   C     0.67375   0.82452   0.26223   0.00000  Uiso   1.00
C540   C     0.77085   0.88837   0.42045   0.00000  Uiso   1.00
C541   C     0.84757   0.98885   0.23803   0.00000  Uiso   1.00
C542   C     0.81826   0.67878   0.26213   0.00000  Uiso   1.00
C543   C     0.82263   0.72282   0.25888   0.00000  Uiso   1.00
C544   C     0.84354   0.94436   0.24133   0.00000  Uiso   1.00
C545   C     0.85513   0.81192   0.14412   0.00000  Uiso   1.00
C546   C     0.81199   0.85434   0.35612   0.00000  Uiso   1.00
C547   C     0.80242   0.86267   0.39905   0.00000  Uiso   1.00
C548   C     0.86480   0.80429   0.10172   0.00000  Uiso   1.00
C549   C     0.76107   0.89456   0.46117   0.00000  Uiso   1.00
C550   C     0.97733   0.80989   0.45274   0.00000  Uiso   1.00
C551   C     0.82486   0.84415   0.41874   0.00000  Uiso   1.00
C552   C     0.98905   0.82809   0.41347   0.00000  Uiso   1.00
C553   C     0.81728   0.85157   0.45977   0.00000  Uiso   1.00
C554   C     0.78364   0.87615   0.48130   0.00000  Uiso   1.00
C555   C     0.84186   0.83478   0.47983   0.00000  Uiso   1.00
C556   C     0.82962   0.83917   0.02158   0.00000  Uiso   1.00
C557   C     0.79555   0.86330   0.04195   0.00000  Uiso   1.00
C558   C     0.77328   0.88186   0.02239   0.00000  Uiso   1.00
Cl559  Cl    0.73192   0.91186   0.05124   0.00000  Uiso   1.00
H560   H     0.94234   0.76813   0.02345   0.00000  Uiso   1.00
H561   H     0.84741   0.82315   0.40127   0.00000  Uiso   1.00
H562   H     0.78608   0.86973   0.07339   0.00000  Uiso   1.00
H563   H     0.89169   0.81249   0.42791   0.00000  Uiso   1.00
H564   H     0.67123   0.79313   0.45304   0.00000  Uiso   1.00
H565   H     0.97471   0.83570   0.47714   0.00000  Uiso   1.00
H566   H     0.96478   0.84869   0.41345   0.00000  Uiso   1.00
H567   H     0.68785   0.84694   0.40844   0.00000  Uiso   1.00
H568   H     0.99043   0.80255   0.38921   0.00000  Uiso   1.00
H569   H     0.68364   0.85957   0.21441   0.00000  Uiso   1.00
H570   H     0.98454   0.80792   0.28565   0.00000  Uiso   1.00
H571   H     0.87465   0.66946   0.21584   0.00000  Uiso   1.00
H572   H     0.79084   0.99894   0.28443   0.00000  Uiso   1.00
H573   H     0.81139   0.83341   0.10147   0.00000  Uiso   1.00
H574   H     0.92132   0.77370   0.09492   0.00000  Uiso   1.00
H575   H     0.73572   0.91390   0.47658   0.00000  Uiso   1.00
H576   H     0.75307   0.90310   0.40580   0.00000  Uiso   1.00
O577   O     0.83333   0.83333   0.25000   0.00000  Uiso   1.00
O578   O     0.82360   0.79060   0.16625   0.00000  Uiso   1.00
O579   O     0.79354   0.87313   0.33749   0.00000  Uiso   1.00
O580   O     0.87755   0.84159   0.15877   0.00000  Uiso   1.00
O581   O     0.83865   0.82802   0.33749   0.00000  Uiso   1.00
O582   O     0.93990   0.78044   0.45693   0.00000  Uiso   1.00
O583   O     0.84515   0.74768   0.27820   0.00000  Uiso   1.00
O584   O     0.81247   0.92803   0.26767   0.00000  Uiso   1.00
O585   O     0.74119   0.79917   0.23607   0.00000  Uiso   1.00
O586   O     0.93452   0.85845   0.21806   0.00000  Uiso   1.00
O587   O     0.73656   0.85627   0.27820   0.00000  Uiso   1.00
O588   O     0.92106   0.81944   0.26767   0.00000  Uiso   1.00
O589   O     0.80467   0.73570   0.23607   0.00000  Uiso   1.00
O590   O     0.87104   0.92193   0.21806   0.00000  Uiso   1.00
Zn591  Zn    0.85910   0.80756   0.28277   0.00000  Uiso   1.00
Zn592  Zn    0.80125   0.79044   0.22257   0.00000  Uiso   1.00
Zn593  Zn    0.87833   0.86331   0.21188   0.00000  Uiso   1.00
Zn594  Zn    0.79465   0.87202   0.28277   0.00000  Uiso   1.00
C595   C     0.05251   0.16004   0.75871   0.00000  Uiso   1.00
C596   C     0.21251   0.14834   0.95937   0.00000  Uiso   1.00
C597   C     0.23702   0.13272   0.97883   0.00000  Uiso   1.00
C598   C     0.28108   0.17359   0.74116   0.00000  Uiso   1.00
C599   C     0.22333   0.13391   0.51983   0.00000  Uiso   1.00
C600   C     0.18595   0.15352   0.54162   0.00000  Uiso   1.00
C601   C     0.24708   0.11641   0.53944   0.00000  Uiso   1.00
C602   C     0.23501   0.11907   0.58017   0.00000  Uiso   1.00
C603   C     0.17326   0.15369   0.58286   0.00000  Uiso   1.00
C604   C     0.32713   0.17614   0.73742   0.00000  Uiso   1.00
C605   C     0.00709   0.15785   0.76223   0.00000  Uiso   1.00
C606   C     0.10419   0.22170   0.92045   0.00000  Uiso   1.00
C607   C     0.18091   0.32218   0.73803   0.00000  Uiso   1.00
C608   C     0.15160   0.01211   0.76213   0.00000  Uiso   1.00
C609   C     0.15596   0.05615   0.75888   0.00000  Uiso   1.00
C610   C     0.17687   0.27769   0.74133   0.00000  Uiso   1.00
C611   C     0.18846   0.14525   0.64412   0.00000  Uiso   1.00
C612   C     0.14533   0.18768   0.85612   0.00000  Uiso   1.00
C613   C     0.13575   0.19600   0.89905   0.00000  Uiso   1.00
C614   C     0.19813   0.13763   0.60172   0.00000  Uiso   1.00
C615   C     0.09441   0.22789   0.96117   0.00000  Uiso   1.00
C616   C     0.31067   0.14322   0.95274   0.00000  Uiso   1.00
C617   C     0.15820   0.17748   0.91874   0.00000  Uiso   1.00
C618   C     0.32238   0.16143   0.91347   0.00000  Uiso   1.00
C619   C     0.15061   0.18490   0.95977   0.00000  Uiso   1.00
C620   C     0.11697   0.20948   0.98130   0.00000  Uiso   1.00
C621   C     0.17519   0.16811   0.97983   0.00000  Uiso   1.00
C622   C     0.16296   0.17250   0.52158   0.00000  Uiso   1.00
C623   C     0.12888   0.19663   0.54195   0.00000  Uiso   1.00
C624   C     0.10662   0.21520   0.52239   0.00000  Uiso   1.00
Cl625  Cl    0.06526   0.24519   0.55124   0.00000  Uiso   1.00
H626   H     0.27567   0.10146   0.52345   0.00000  Uiso   1.00
H627   H     0.18074   0.15648   0.90127   0.00000  Uiso   1.00
H628   H     0.11941   0.20306   0.57339   0.00000  Uiso   1.00
H629   H     0.22503   0.14582   0.92791   0.00000  Uiso   1.00
H630   H     0.00456   0.12646   0.95304   0.00000  Uiso   1.00
H631   H     0.30805   0.16904   0.97714   0.00000  Uiso   1.00
H632   H     0.29811   0.18203   0.91345   0.00000  Uiso   1.00
H633   H     0.02118   0.18027   0.90844   0.00000  Uiso   1.00
H634   H     0.32377   0.13588   0.88921   0.00000  Uiso   1.00
H635   H     0.01697   0.19290   0.71441   0.00000  Uiso   1.00
H636   H     0.31788   0.14125   0.78565   0.00000  Uiso   1.00
H637   H     0.20798   0.00279   0.71584   0.00000  Uiso   1.00
H638   H     0.12418   0.33227   0.78443   0.00000  Uiso   1.00
H639   H     0.14472   0.16674   0.60147   0.00000  Uiso   1.00
H640   H     0.25466   0.10703   0.59492   0.00000  Uiso   1.00
H641   H     0.06905   0.24723   0.97658   0.00000  Uiso   1.00
H642   H     0.08641   0.23644   0.90580   0.00000  Uiso   1.00
O643   O     0.16667   0.16667   0.75000   0.00000  Uiso   1.00
O644   O     0.15693   0.12393   0.66625   0.00000  Uiso   1.00
O645   O     0.12687   0.20646   0.83749   0.00000  Uiso   1.00
O646   O     0.21088   0.17493   0.65877   0.00000  Uiso   1.00
O647   O     0.17198   0.16135   0.83749   0.00000  Uiso   1.00
O648   O     0.27323   0.11378   0.95693   0.00000  Uiso   1.00
O649   O     0.17849   0.08101   0.77820   0.00000  Uiso   1.00
O650   O     0.14581   0.26136   0.76767   0.00000  Uiso   1.00
O651   O     0.07452   0.13251   0.73607   0.00000  Uiso   1.00
O652   O     0.26785   0.19179   0.71806   0.00000  Uiso   1.00
O653   O     0.06990   0.18960   0.77820   0.00000  Uiso   1.00
O654   O     0.25440   0.15277   0.76767   0.00000  Uiso   1.00
O655   O     0.13800   0.06903   0.73607   0.00000  Uiso   1.00
O656   O     0.20437   0.25527   0.71806   0.00000  Uiso   1.00
Zn657  Zn    0.19244   0.14090   0.78277   0.00000  Uiso   1.00
Zn658  Zn    0.13459   0.12378   0.72257   0.00000  Uiso   1.00
Zn659  Zn    0.21166   0.19664   0.71188   0.00000  Uiso   1.00
Zn660  Zn    0.12798   0.20535   0.78277   0.00000  Uiso   1.00
C661   C     0.38584   0.16004   0.75871   0.00000  Uiso   1.00
C662   C     0.54585   0.14834   0.95937   0.00000  Uiso   1.00
C663   C     0.57035   0.13272   0.97883   0.00000  Uiso   1.00
C664   C     0.61441   0.17359   0.74116   0.00000  Uiso   1.00
C665   C     0.55666   0.13391   0.51983   0.00000  Uiso   1.00
C666   C     0.51929   0.15352   0.54162   0.00000  Uiso   1.00
C667   C     0.58041   0.11641   0.53944   0.00000  Uiso   1.00
C668   C     0.56835   0.11907   0.58017   0.00000  Uiso   1.00
C669   C     0.50659   0.15369   0.58286   0.00000  Uiso   1.00
C670   C     0.66046   0.17614   0.73742   0.00000  Uiso   1.00
C671   C     0.34042   0.15785   0.76223   0.00000  Uiso   1.00
C672   C     0.43752   0.22170   0.92045   0.00000  Uiso   1.00
C673   C     0.51424   0.32218   0.73803   0.00000  Uiso   1.00
C674   C     0.48493   0.01211   0.76213   0.00000  Uiso   1.00
C675   C     0.48929   0.05615   0.75888   0.00000  Uiso   1.00
C676   C     0.51021   0.27769   0.74133   0.00000  Uiso   1.00
C677   C     0.52180   0.14525   0.64412   0.00000  Uiso   1.00
C678   C     0.47866   0.18768   0.85612   0.00000  Uiso   1.00
C679   C     0.46908   0.19600   0.89905   0.00000  Uiso   1.00
C680   C     0.53147   0.13763   0.60172   0.00000  Uiso   1.00
C681   C     0.42774   0.22789   0.96117   0.00000  Uiso   1.00
C682   C     0.64400   0.14322   0.95274   0.00000  Uiso   1.00
C683   C     0.49153   0.17748   0.91874   0.00000  Uiso   1.00
C684   C     0.65572   0.16143   0.91347   0.00000  Uiso   1.00
C685   C     0.48395   0.18490   0.95977   0.00000  Uiso   1.00
C686   C     0.45031   0.20948   0.98130   0.00000  Uiso   1.00
C687   C     0.50853   0.16811   0.97983   0.00000  Uiso   1.00
C688   C     0.49629   0.17250   0.52158   0.00000  Uiso   1.00
C689   C     0.46222   0.19663   0.54195   0.00000  Uiso   1.00
C690   C     0.43995   0.21520   0.52239   0.00000  Uiso   1.00
Cl691  Cl    0.39859   0.24519   0.55124   0.00000  Uiso   1.00
H692   H     0.60901   0.10146   0.52345   0.00000  Uiso   1.00
H693   H     0.51407   0.15648   0.90127   0.00000  Uiso   1.00
H694   H     0.45274   0.20306   0.57339   0.00000  Uiso   1.00
H695   H     0.55836   0.14582   0.92791   0.00000  Uiso   1.00
H696   H     0.33790   0.12646   0.95304   0.00000  Uiso   1.00
H697   H     0.64138   0.16904   0.97714   0.00000  Uiso   1.00
H698   H     0.63144   0.18203   0.91345   0.00000  Uiso   1.00
H699   H     0.35452   0.18027   0.90844   0.00000  Uiso   1.00
H700   H     0.65710   0.13588   0.88921   0.00000  Uiso   1.00
H701   H     0.35031   0.19290   0.71441   0.00000  Uiso   1.00
H702   H     0.65121   0.14125   0.78565   0.00000  Uiso   1.00
H703   H     0.54132   0.00279   0.71584   0.00000  Uiso   1.00
H704   H     0.45751   0.33227   0.78443   0.00000  Uiso   1.00
H705   H     0.47806   0.16674   0.60147   0.00000  Uiso   1.00
H706   H     0.58799   0.10703   0.59492   0.00000  Uiso   1.00
H707   H     0.40239   0.24723   0.97658   0.00000  Uiso   1.00
H708   H     0.41974   0.23644   0.90580   0.00000  Uiso   1.00
O709   O     0.50000   0.16667   0.75000   0.00000  Uiso   1.00
O710   O     0.49027   0.12393   0.66625   0.00000  Uiso   1.00
O711   O     0.46020   0.20646   0.83749   0.00000  Uiso   1.00
O712   O     0.54421   0.17493   0.65877   0.00000  Uiso   1.00
O713   O     0.50532   0.16135   0.83749   0.00000  Uiso   1.00
O714   O     0.60657   0.11378   0.95693   0.00000  Uiso   1.00
O715   O     0.51182   0.08101   0.77820   0.00000  Uiso   1.00
O716   O     0.47914   0.26136   0.76767   0.00000  Uiso   1.00
O717   O     0.40785   0.13251   0.73607   0.00000  Uiso   1.00
O718   O     0.60119   0.19179   0.71806   0.00000  Uiso   1.00
O719   O     0.40323   0.18960   0.77820   0.00000  Uiso   1.00
O720   O     0.58773   0.15277   0.76767   0.00000  Uiso   1.00
O721   O     0.47133   0.06903   0.73607   0.00000  Uiso   1.00
O722   O     0.53771   0.25527   0.71806   0.00000  Uiso   1.00
Zn723  Zn    0.52577   0.14090   0.78277   0.00000  Uiso   1.00
Zn724  Zn    0.46792   0.12378   0.72257   0.00000  Uiso   1.00
Zn725  Zn    0.54500   0.19664   0.71188   0.00000  Uiso   1.00
Zn726  Zn    0.46131   0.20535   0.78277   0.00000  Uiso   1.00
C727   C     0.71918   0.16004   0.75871   0.00000  Uiso   1.00
C728   C     0.87918   0.14834   0.95937   0.00000  Uiso   1.00
C729   C     0.90368   0.13272   0.97883   0.00000  Uiso   1.00
C730   C     0.94775   0.17359   0.74116   0.00000  Uiso   1.00
C731   C     0.89000   0.13391   0.51983   0.00000  Uiso   1.00
C732   C     0.85262   0.15352   0.54162   0.00000  Uiso   1.00
C733   C     0.91375   0.11641   0.53944   0.00000  Uiso   1.00
C734   C     0.90168   0.11907   0.58017   0.00000  Uiso   1.00
C735   C     0.83992   0.15369   0.58286   0.00000  Uiso   1.00
C736   C     0.99380   0.17614   0.73742   0.00000  Uiso   1.00
C737   C     0.67375   0.15785   0.76223   0.00000  Uiso   1.00
C738   C     0.77085   0.22170   0.92045   0.00000  Uiso   1.00
C739   C     0.84757   0.32218   0.73803   0.00000  Uiso   1.00
C740   C     0.81826   0.01211   0.76213   0.00000  Uiso   1.00
C741   C     0.82263   0.05615   0.75888   0.00000  Uiso   1.00
C742   C     0.84354   0.27769   0.74133   0.00000  Uiso   1.00
C743   C     0.85513   0.14525   0.64412   0.00000  Uiso   1.00
C744   C     0.81199   0.18768   0.85612   0.00000  Uiso   1.00
C745   C     0.80242   0.19600   0.89905   0.00000  Uiso   1.00
C746   C     0.86480   0.13763   0.60172   0.00000  Uiso   1.00
C747   C     0.76107   0.22789   0.96117   0.00000  Uiso   1.00
C748   C     0.97733   0.14322   0.95274   0.00000  Uiso   1.00
C749   C     0.82486   0.17748   0.91874   0.00000  Uiso   1.00
C750   C     0.98905   0.16143   0.91347   0.00000  Uiso   1.00
C751   C     0.81728   0.18490   0.95977   0.00000  Uiso   1.00
C752   C     0.78364   0.20948   0.98130   0.00000  Uiso   1.00
C753   C     0.84186   0.16811   0.97983   0.00000  Uiso   1.00
C754   C     0.82962   0.17250   0.52158   0.00000  Uiso   1.00
C755   C     0.79555   0.19663   0.54195   0.00000  Uiso   1.00
C756   C     0.77328   0.21520   0.52239   0.00000  Uiso   1.00
Cl757  Cl    0.73192   0.24519   0.55124   0.00000  Uiso   1.00
H758   H     0.94234   0.10146   0.52345   0.00000  Uiso   1.00
H759   H     0.84741   0.15648   0.90127   0.00000  Uiso   1.00
H760   H     0.78608   0.20306   0.57339   0.00000  Uiso   1.00
H761   H     0.89169   0.14582   0.92791   0.00000  Uiso   1.00
H762   H     0.67123   0.12646   0.95304   0.00000  Uiso   1.00
H763   H     0.97471   0.16904   0.97714   0.00000  Uiso   1.00
H764   H     0.96478   0.18203   0.91345   0.00000  Uiso   1.00
H765   H     0.68785   0.18027   0.90844   0.00000  Uiso   1.00
H766   H     0.99043   0.13588   0.88921   0.00000  Uiso   1.00
H767   H     0.68364   0.19290   0.71441   0.00000  Uiso   1.00
H768   H     0.98454   0.14125   0.78565   0.00000  Uiso   1.00
H769   H     0.87465   0.00279   0.71584   0.00000  Uiso   1.00
H770   H     0.79084   0.33227   0.78443   0.00000  Uiso   1.00
H771   H     0.81139   0.16674   0.60147   0.00000  Uiso   1.00
H772   H     0.92132   0.10703   0.59492   0.00000  Uiso   1.00
H773   H     0.73572   0.24723   0.97658   0.00000  Uiso   1.00
H774   H     0.75307   0.23644   0.90580   0.00000  Uiso   1.00
O775   O     0.83333   0.16667   0.75000   0.00000  Uiso   1.00
O776   O     0.82360   0.12393   0.66625   0.00000  Uiso   1.00
O777   O     0.79354   0.20646   0.83749   0.00000  Uiso   1.00
O778   O     0.87755   0.17493   0.65877   0.00000  Uiso   1.00
O779   O     0.83865   0.16135   0.83749   0.00000  Uiso   1.00
O780   O     0.93990   0.11378   0.95693   0.00000  Uiso   1.00
O781   O     0.84515   0.08101   0.77820   0.00000  Uiso   1.00
O782   O     0.81247   0.26136   0.76767   0.00000  Uiso   1.00
O783   O     0.74119   0.13251   0.73607   0.00000  Uiso   1.00
O784   O     0.93452   0.19179   0.71806   0.00000  Uiso   1.00
O785   O     0.73656   0.18960   0.77820   0.00000  Uiso   1.00
O786   O     0.92106   0.15277   0.76767   0.00000  Uiso   1.00
O787   O     0.80467   0.06903   0.73607   0.00000  Uiso   1.00
O788   O     0.87104   0.25527   0.71806   0.00000  Uiso   1.00
Zn789  Zn    0.85910   0.14090   0.78277   0.00000  Uiso   1.00
Zn790  Zn    0.80125   0.12378   0.72257   0.00000  Uiso   1.00
Zn791  Zn    0.87833   0.19664   0.71188   0.00000  Uiso   1.00
Zn792  Zn    0.79465   0.20535   0.78277   0.00000  Uiso   1.00
C793   C     0.05251   0.49337   0.75871   0.00000  Uiso   1.00
C794   C     0.21251   0.48167   0.95937   0.00000  Uiso   1.00
C795   C     0.23702   0.46605   0.97883   0.00000  Uiso   1.00
C796   C     0.28108   0.50692   0.74116   0.00000  Uiso   1.00
C797   C     0.22333   0.46724   0.51983   0.00000  Uiso   1.00
C798   C     0.18595   0.48685   0.54162   0.00000  Uiso   1.00
C799   C     0.24708   0.44974   0.53944   0.00000  Uiso   1.00
C800   C     0.23501   0.45241   0.58017   0.00000  Uiso   1.00
C801   C     0.17326   0.48702   0.58286   0.00000  Uiso   1.00
C802   C     0.32713   0.50948   0.73742   0.00000  Uiso   1.00
C803   C     0.00709   0.49118   0.76223   0.00000  Uiso   1.00
C804   C     0.10419   0.55504   0.92045   0.00000  Uiso   1.00
C805   C     0.18091   0.65551   0.73803   0.00000  Uiso   1.00
C806   C     0.15160   0.34544   0.76213   0.00000  Uiso   1.00
C807   C     0.15596   0.38948   0.75888   0.00000  Uiso   1.00
C808   C     0.17687   0.61103   0.74133   0.00000  Uiso   1.00
C809   C     0.18846   0.47859   0.64412   0.00000  Uiso   1.00
C810   C     0.14533   0.52101   0.85612   0.00000  Uiso   1.00
C811   C     0.13575   0.52934   0.89905   0.00000  Uiso   1.00
C812   C     0.19813   0.47096   0.60172   0.00000  Uiso   1.00
C813   C     0.09441   0.56123   0.96117   0.00000  Uiso   1.00
C814   C     0.31067   0.47655   0.95274   0.00000  Uiso   1.00
C815   C     0.15820   0.51082   0.91874   0.00000  Uiso   1.00
C816   C     0.32238   0.49476   0.91347   0.00000  Uiso   1.00
C817   C     0.15061   0.51824   0.95977   0.00000  Uiso   1.00
C818   C     0.11697   0.54282   0.98130   0.00000  Uiso   1.00
C819   C     0.17519   0.50145   0.97983   0.00000  Uiso   1.00
C820   C     0.16296   0.50583   0.52158   0.00000  Uiso   1.00
C821   C     0.12888   0.52997   0.54195   0.00000  Uiso   1.00
C822   C     0.10662   0.54853   0.52239   0.00000  Uiso   1.00
Cl823  Cl    0.06526   0.57853   0.55124   0.00000  Uiso   1.00
H824   H     0.27567   0.43480   0.52345   0.00000  Uiso   1.00
H825   H     0.18074   0.48981   0.90127   0.00000  Uiso   1.00
H826   H     0.11941   0.53640   0.57339   0.00000  Uiso   1.00
H827   H     0.22503   0.47916   0.92791   0.00000  Uiso   1.00
H828   H     0.00456   0.45980   0.95304   0.00000  Uiso   1.00
H829   H     0.30805   0.50237   0.97714   0.00000  Uiso   1.00
H830   H     0.29811   0.51536   0.91345   0.00000  Uiso   1.00
H831   H     0.02118   0.51361   0.90844   0.00000  Uiso   1.00
H832   H     0.32377   0.46922   0.88921   0.00000  Uiso   1.00
H833   H     0.01697   0.52624   0.71441   0.00000  Uiso   1.00
H834   H     0.31788   0.47458   0.78565   0.00000  Uiso   1.00
H835   H     0.20798   0.33612   0.71584   0.00000  Uiso   1.00
H836   H     0.12418   0.66560   0.78443   0.00000  Uiso   1.00
H837   H     0.14472   0.50007   0.60147   0.00000  Uiso   1.00
H838   H     0.25466   0.44037   0.59492   0.00000  Uiso   1.00
H839   H     0.06905   0.58057   0.97658   0.00000  Uiso   1.00
H840   H     0.08641   0.56977   0.90580   0.00000  Uiso   1.00
O841   O     0.16667   0.50000   0.75000   0.00000  Uiso   1.00
O842   O     0.15693   0.45726   0.66625   0.00000  Uiso   1.00
O843   O     0.12687   0.53979   0.83749   0.00000  Uiso   1.00
O844   O     0.21088   0.50826   0.65877   0.00000  Uiso   1.00
O845   O     0.17198   0.49468   0.83749   0.00000  Uiso   1.00
O846   O     0.27323   0.44711   0.95693   0.00000  Uiso   1.00
O847   O     0.17849   0.41434   0.77820   0.00000  Uiso   1.00
O848   O     0.14581   0.59469   0.76767   0.00000  Uiso   1.00
O849   O     0.07452   0.46584   0.73607   0.00000  Uiso   1.00
O850   O     0.26785   0.52512   0.71806   0.00000  Uiso   1.00
O851   O     0.06990   0.52293   0.77820   0.00000  Uiso   1.00
O852   O     0.25440   0.48610   0.76767   0.00000  Uiso   1.00
O853   O     0.13800   0.40236   0.73607   0.00000  Uiso   1.00
O854   O     0.20437   0.58860   0.71806   0.00000  Uiso   1.00
Zn855  Zn    0.19244   0.47423   0.78277   0.00000  Uiso   1.00
Zn856  Zn    0.13459   0.45711   0.72257   0.00000  Uiso   1.00
Zn857  Zn    0.21166   0.52997   0.71188   0.00000  Uiso   1.00
Zn858  Zn    0.12798   0.53868   0.78277   0.00000  Uiso   1.00
C859   C     0.38584   0.49337   0.75871   0.00000  Uiso   1.00
C860   C     0.54585   0.48167   0.95937   0.00000  Uiso   1.00
C861   C     0.57035   0.46605   0.97883   0.00000  Uiso   1.00
C862   C     0.61441   0.50692   0.74116   0.00000  Uiso   1.00
C863   C     0.55666   0.46724   0.51983   0.00000  Uiso   1.00
C864   C     0.51929   0.48685   0.54162   0.00000  Uiso   1.00
C865   C     0.58041   0.44974   0.53944   0.00000  Uiso   1.00
C866   C     0.56835   0.45241   0.58017   0.00000  Uiso   1.00
C867   C     0.50659   0.48702   0.58286   0.00000  Uiso   1.00
C868   C     0.66046   0.50948   0.73742   0.00000  Uiso   1.00
C869   C     0.34042   0.49118   0.76223   0.00000  Uiso   1.00
C870   C     0.43752   0.55504   0.92045   0.00000  Uiso   1.00
C871   C     0.51424   0.65551   0.73803   0.00000  Uiso   1.00
C872   C     0.48493   0.34544   0.76213   0.00000  Uiso   1.00
C873   C     0.48929   0.38948   0.75888   0.00000  Uiso   1.00
C874   C     0.51021   0.61103   0.74133   0.00000  Uiso   1.00
C875   C     0.52180   0.47859   0.64412   0.00000  Uiso   1.00
C876   C     0.47866   0.52101   0.85612   0.00000  Uiso   1.00
C877   C     0.46908   0.52934   0.89905   0.00000  Uiso   1.00
C878   C     0.53147   0.47096   0.60172   0.00000  Uiso   1.00
C879   C     0.42774   0.56123   0.96117   0.00000  Uiso   1.00
C880   C     0.64400   0.47655   0.95274   0.00000  Uiso   1.00
C881   C     0.49153   0.51082   0.91874   0.00000  Uiso   1.00
C882   C     0.65572   0.49476   0.91347   0.00000  Uiso   1.00
C883   C     0.48395   0.51824   0.95977   0.00000  Uiso   1.00
C884   C     0.45031   0.54282   0.98130   0.00000  Uiso   1.00
C885   C     0.50853   0.50145   0.97983   0.00000  Uiso   1.00
C886   C     0.49629   0.50583   0.52158   0.00000  Uiso   1.00
C887   C     0.46222   0.52997   0.54195   0.00000  Uiso   1.00
C888   C     0.43995   0.54853   0.52239   0.00000  Uiso   1.00
Cl889  Cl    0.39859   0.57853   0.55124   0.00000  Uiso   1.00
H890   H     0.60901   0.43480   0.52345   0.00000  Uiso   1.00
H891   H     0.51407   0.48981   0.90127   0.00000  Uiso   1.00
H892   H     0.45274   0.53640   0.57339   0.00000  Uiso   1.00
H893   H     0.55836   0.47916   0.92791   0.00000  Uiso   1.00
H894   H     0.33790   0.45980   0.95304   0.00000  Uiso   1.00
H895   H     0.64138   0.50237   0.97714   0.00000  Uiso   1.00
H896   H     0.63144   0.51536   0.91345   0.00000  Uiso   1.00
H897   H     0.35452   0.51361   0.90844   0.00000  Uiso   1.00
H898   H     0.65710   0.46922   0.88921   0.00000  Uiso   1.00
H899   H     0.35031   0.52624   0.71441   0.00000  Uiso   1.00
H900   H     0.65121   0.47458   0.78565   0.00000  Uiso   1.00
H901   H     0.54132   0.33612   0.71584   0.00000  Uiso   1.00
H902   H     0.45751   0.66560   0.78443   0.00000  Uiso   1.00
H903   H     0.47806   0.50007   0.60147   0.00000  Uiso   1.00
H904   H     0.58799   0.44037   0.59492   0.00000  Uiso   1.00
H905   H     0.40239   0.58057   0.97658   0.00000  Uiso   1.00
H906   H     0.41974   0.56977   0.90580   0.00000  Uiso   1.00
O907   O     0.50000   0.50000   0.75000   0.00000  Uiso   1.00
O908   O     0.49027   0.45726   0.66625   0.00000  Uiso   1.00
O909   O     0.46020   0.53979   0.83749   0.00000  Uiso   1.00
O910   O     0.54421   0.50826   0.65877   0.00000  Uiso   1.00
O911   O     0.50532   0.49468   0.83749   0.00000  Uiso   1.00
O912   O     0.60657   0.44711   0.95693   0.00000  Uiso   1.00
O913   O     0.51182   0.41434   0.77820   0.00000  Uiso   1.00
O914   O     0.47914   0.59469   0.76767   0.00000  Uiso   1.00
O915   O     0.40785   0.46584   0.73607   0.00000  Uiso   1.00
O916   O     0.60119   0.52512   0.71806   0.00000  Uiso   1.00
O917   O     0.40323   0.52293   0.77820   0.00000  Uiso   1.00
O918   O     0.58773   0.48610   0.76767   0.00000  Uiso   1.00
O919   O     0.47133   0.40236   0.73607   0.00000  Uiso   1.00
O920   O     0.53771   0.58860   0.71806   0.00000  Uiso   1.00
Zn921  Zn    0.52577   0.47423   0.78277   0.00000  Uiso   1.00
Zn922  Zn    0.46792   0.45711   0.72257   0.00000  Uiso   1.00
Zn923  Zn    0.54500   0.52997   0.71188   0.00000  Uiso   1.00
Zn924  Zn    0.46131   0.53868   0.78277   0.00000  Uiso   1.00
C925   C     0.71918   0.49337   0.75871   0.00000  Uiso   1.00
C926   C     0.87918   0.48167   0.95937   0.00000  Uiso   1.00
C927   C     0.90368   0.46605   0.97883   0.00000  Uiso   1.00
C928   C     0.94775   0.50692   0.74116   0.00000  Uiso   1.00
C929   C     0.89000   0.46724   0.51983   0.00000  Uiso   1.00
C930   C     0.85262   0.48685   0.54162   0.00000  Uiso   1.00
C931   C     0.91375   0.44974   0.53944   0.00000  Uiso   1.00
C932   C     0.90168   0.45241   0.58017   0.00000  Uiso   1.00
C933   C     0.83992   0.48702   0.58286   0.00000  Uiso   1.00
C934   C     0.99380   0.50948   0.73742   0.00000  Uiso   1.00
C935   C     0.67375   0.49118   0.76223   0.00000  Uiso   1.00
C936   C     0.77085   0.55504   0.92045   0.00000  Uiso   1.00
C937   C     0.84757   0.65551   0.73803   0.00000  Uiso   1.00
C938   C     0.81826   0.34544   0.76213   0.00000  Uiso   1.00
C939   C     0.82263   0.38948   0.75888   0.00000  Uiso   1.00
C940   C     0.84354   0.61103   0.74133   0.00000  Uiso   1.00
C941   C     0.85513   0.47859   0.64412   0.00000  Uiso   1.00
C942   C     0.81199   0.52101   0.85612   0.00000  Uiso   1.00
C943   C     0.80242   0.52934   0.89905   0.00000  Uiso   1.00
C944   C     0.86480   0.47096   0.60172   0.00000  Uiso   1.00
C945   C     0.76107   0.56123   0.96117   0.00000  Uiso   1.00
C946   C     0.97733   0.47655   0.95274   0.00000  Uiso   1.00
C947   C     0.82486   0.51082   0.91874   0.00000  Uiso   1.00
C948   C     0.98905   0.49476   0.91347   0.00000  Uiso   1.00
C949   C     0.81728   0.51824   0.95977   0.00000  Uiso   1.00
C950   C     0.78364   0.54282   0.98130   0.00000  Uiso   1.00
C951   C     0.84186   0.50145   0.97983   0.00000  Uiso   1.00
C952   C     0.82962   0.50583   0.52158   0.00000  Uiso   1.00
C953   C     0.79555   0.52997   0.54195   0.00000  Uiso   1.00
C954   C     0.77328   0.54853   0.52239   0.00000  Uiso   1.00
Cl955  Cl    0.73192   0.57853   0.55124   0.00000  Uiso   1.00
H956   H     0.94234   0.43480   0.52345   0.00000  Uiso   1.00
H957   H     0.84741   0.48981   0.90127   0.00000  Uiso   1.00
H958   H     0.78608   0.53640   0.57339   0.00000  Uiso   1.00
H959   H     0.89169   0.47916   0.92791   0.00000  Uiso   1.00
H960   H     0.67123   0.45980   0.95304   0.00000  Uiso   1.00
H961   H     0.97471   0.50237   0.97714   0.00000  Uiso   1.00
H962   H     0.96478   0.51536   0.91345   0.00000  Uiso   1.00
H963   H     0.68785   0.51361   0.90844   0.00000  Uiso   1.00
H964   H     0.99043   0.46922   0.88921   0.00000  Uiso   1.00
H965   H     0.68364   0.52624   0.71441   0.00000  Uiso   1.00
H966   H     0.98454   0.47458   0.78565   0.00000  Uiso   1.00
H967   H     0.87465   0.33612   0.71584   0.00000  Uiso   1.00
H968   H     0.79084   0.66560   0.78443   0.00000  Uiso   1.00
H969   H     0.81139   0.50007   0.60147   0.00000  Uiso   1.00
H970   H     0.92132   0.44037   0.59492   0.00000  Uiso   1.00
H971   H     0.73572   0.58057   0.97658   0.00000  Uiso   1.00
H972   H     0.75307   0.56977   0.90580   0.00000  Uiso   1.00
O973   O     0.83333   0.50000   0.75000   0.00000  Uiso   1.00
O974   O     0.82360   0.45726   0.66625   0.00000  Uiso   1.00
O975   O     0.79354   0.53979   0.83749   0.00000  Uiso   1.00
O976   O     0.87755   0.50826   0.65877   0.00000  Uiso   1.00
O977   O     0.83865   0.49468   0.83749   0.00000  Uiso   1.00
O978   O     0.93990   0.44711   0.95693   0.00000  Uiso   1.00
O979   O     0.84515   0.41434   0.77820   0.00000  Uiso   1.00
O980   O     0.81247   0.59469   0.76767   0.00000  Uiso   1.00
O981   O     0.74119   0.46584   0.73607   0.00000  Uiso   1.00
O982   O     0.93452   0.52512   0.71806   0.00000  Uiso   1.00
O983   O     0.73656   0.52293   0.77820   0.00000  Uiso   1.00
O984   O     0.92106   0.48610   0.76767   0.00000  Uiso   1.00
O985   O     0.80467   0.40236   0.73607   0.00000  Uiso   1.00
O986   O     0.87104   0.58860   0.71806   0.00000  Uiso   1.00
Zn987  Zn    0.85910   0.47423   0.78277   0.00000  Uiso   1.00
Zn988  Zn    0.80125   0.45711   0.72257   0.00000  Uiso   1.00
Zn989  Zn    0.87833   0.52997   0.71188   0.00000  Uiso   1.00
Zn990  Zn    0.79465   0.53868   0.78277   0.00000  Uiso   1.00
C991   C     0.05251   0.82670   0.75871   0.00000  Uiso   1.00
C992   C     0.21251   0.81501   0.95937   0.00000  Uiso   1.00
C993   C     0.23702   0.79938   0.97883   0.00000  Uiso   1.00
C994   C     0.28108   0.84026   0.74116   0.00000  Uiso   1.00
C995   C     0.22333   0.80058   0.51983   0.00000  Uiso   1.00
C996   C     0.18595   0.82019   0.54162   0.00000  Uiso   1.00
C997   C     0.24708   0.78307   0.53944   0.00000  Uiso   1.00
C998   C     0.23501   0.78574   0.58017   0.00000  Uiso   1.00
C999   C     0.17326   0.82036   0.58286   0.00000  Uiso   1.00
C1000  C     0.32713   0.84281   0.73742   0.00000  Uiso   1.00
C1001  C     0.00709   0.82452   0.76223   0.00000  Uiso   1.00
C1002  C     0.10419   0.88837   0.92045   0.00000  Uiso   1.00
C1003  C     0.18091   0.98885   0.73803   0.00000  Uiso   1.00
C1004  C     0.15160   0.67878   0.76213   0.00000  Uiso   1.00
C1005  C     0.15596   0.72282   0.75888   0.00000  Uiso   1.00
C1006  C     0.17687   0.94436   0.74133   0.00000  Uiso   1.00
C1007  C     0.18846   0.81192   0.64412   0.00000  Uiso   1.00
C1008  C     0.14533   0.85434   0.85612   0.00000  Uiso   1.00
C1009  C     0.13575   0.86267   0.89905   0.00000  Uiso   1.00
C1010  C     0.19813   0.80429   0.60172   0.00000  Uiso   1.00
C1011  C     0.09441   0.89456   0.96117   0.00000  Uiso   1.00
C1012  C     0.31067   0.80989   0.95274   0.00000  Uiso   1.00
C1013  C     0.15820   0.84415   0.91874   0.00000  Uiso   1.00
C1014  C     0.32238   0.82809   0.91347   0.00000  Uiso   1.00
C1015  C     0.15061   0.85157   0.95977   0.00000  Uiso   1.00
C1016  C     0.11697   0.87615   0.98130   0.00000  Uiso   1.00
C1017  C     0.17519   0.83478   0.97983   0.00000  Uiso   1.00
C1018  C     0.16296   0.83917   0.52158   0.00000  Uiso   1.00
C1019  C     0.12888   0.86330   0.54195   0.00000  Uiso   1.00
C1020  C     0.10662   0.88186   0.52239   0.00000  Uiso   1.00
Cl1021 Cl    0.06526   0.91186   0.55124   0.00000  Uiso   1.00
H1022  H     0.27567   0.76813   0.52345   0.00000  Uiso   1.00
H1023  H     0.18074   0.82315   0.90127   0.00000  Uiso   1.00
H1024  H     0.11941   0.86973   0.57339   0.00000  Uiso   1.00
H1025  H     0.22503   0.81249   0.92791   0.00000  Uiso   1.00
H1026  H     0.00456   0.79313   0.95304   0.00000  Uiso   1.00
H1027  H     0.30805   0.83570   0.97714   0.00000  Uiso   1.00
H1028  H     0.29811   0.84869   0.91345   0.00000  Uiso   1.00
H1029  H     0.02118   0.84694   0.90844   0.00000  Uiso   1.00
H1030  H     0.32377   0.80255   0.88921   0.00000  Uiso   1.00
H1031  H     0.01697   0.85957   0.71441   0.00000  Uiso   1.00
H1032  H     0.31788   0.80792   0.78565   0.00000  Uiso   1.00
H1033  H     0.20798   0.66946   0.71584   0.00000  Uiso   1.00
H1034  H     0.12418   0.99894   0.78443   0.00000  Uiso   1.00
H1035  H     0.14472   0.83341   0.60147   0.00000  Uiso   1.00
H1036  H     0.25466   0.77370   0.59492   0.00000  Uiso   1.00
H1037  H     0.06905   0.91390   0.97658   0.00000  Uiso   1.00
H1038  H     0.08641   0.90310   0.90580   0.00000  Uiso   1.00
O1039  O     0.16667   0.83333   0.75000   0.00000  Uiso   1.00
O1040  O     0.15693   0.79060   0.66625   0.00000  Uiso   1.00
O1041  O     0.12687   0.87313   0.83749   0.00000  Uiso   1.00
O1042  O     0.21088   0.84159   0.65877   0.00000  Uiso   1.00
O1043  O     0.17198   0.82802   0.83749   0.00000  Uiso   1.00
O1044  O     0.27323   0.78044   0.95693   0.00000  Uiso   1.00
O1045  O     0.17849   0.74768   0.77820   0.00000  Uiso   1.00
O1046  O     0.14581   0.92803   0.76767   0.00000  Uiso   1.00
O1047  O     0.07452   0.79917   0.73607   0.00000  Uiso   1.00
O1048  O     0.26785   0.85845   0.71806   0.00000  Uiso   1.00
O1049  O     0.06990   0.85627   0.77820   0.00000  Uiso   1.00
O1050  O     0.25440   0.81944   0.76767   0.00000  Uiso   1.00
O1051  O     0.13800   0.73570   0.73607   0.00000  Uiso   1.00
O1052  O     0.20437   0.92193   0.71806   0.00000  Uiso   1.00
Zn1053 Zn    0.19244   0.80756   0.78277   0.00000  Uiso   1.00
Zn1054 Zn    0.13459   0.79044   0.72257   0.00000  Uiso   1.00
Zn1055 Zn    0.21166   0.86331   0.71188   0.00000  Uiso   1.00
Zn1056 Zn    0.12798   0.87202   0.78277   0.00000  Uiso   1.00
C1057  C     0.38584   0.82670   0.75871   0.00000  Uiso   1.00
C1058  C     0.54585   0.81501   0.95937   0.00000  Uiso   1.00
C1059  C     0.57035   0.79938   0.97883   0.00000  Uiso   1.00
C1060  C     0.61441   0.84026   0.74116   0.00000  Uiso   1.00
C1061  C     0.55666   0.80058   0.51983   0.00000  Uiso   1.00
C1062  C     0.51929   0.82019   0.54162   0.00000  Uiso   1.00
C1063  C     0.58041   0.78307   0.53944   0.00000  Uiso   1.00
C1064  C     0.56835   0.78574   0.58017   0.00000  Uiso   1.00
C1065  C     0.50659   0.82036   0.58286   0.00000  Uiso   1.00
C1066  C     0.66046   0.84281   0.73742   0.00000  Uiso   1.00
C1067  C     0.34042   0.82452   0.76223   0.00000  Uiso   1.00
C1068  C     0.43752   0.88837   0.92045   0.00000  Uiso   1.00
C1069  C     0.51424   0.98885   0.73803   0.00000  Uiso   1.00
C1070  C     0.48493   0.67878   0.76213   0.00000  Uiso   1.00
C1071  C     0.48929   0.72282   0.75888   0.00000  Uiso   1.00
C1072  C     0.51021   0.94436   0.74133   0.00000  Uiso   1.00
C1073  C     0.52180   0.81192   0.64412   0.00000  Uiso   1.00
C1074  C     0.47866   0.85434   0.85612   0.00000  Uiso   1.00
C1075  C     0.46908   0.86267   0.89905   0.00000  Uiso   1.00
C1076  C     0.53147   0.80429   0.60172   0.00000  Uiso   1.00
C1077  C     0.42774   0.89456   0.96117   0.00000  Uiso   1.00
C1078  C     0.64400   0.80989   0.95274   0.00000  Uiso   1.00
C1079  C     0.49153   0.84415   0.91874   0.00000  Uiso   1.00
C1080  C     0.65572   0.82809   0.91347   0.00000  Uiso   1.00
C1081  C     0.48395   0.85157   0.95977   0.00000  Uiso   1.00
C1082  C     0.45031   0.87615   0.98130   0.00000  Uiso   1.00
C1083  C     0.50853   0.83478   0.97983   0.00000  Uiso   1.00
C1084  C     0.49629   0.83917   0.52158   0.00000  Uiso   1.00
C1085  C     0.46222   0.86330   0.54195   0.00000  Uiso   1.00
C1086  C     0.43995   0.88186   0.52239   0.00000  Uiso   1.00
Cl1087 Cl    0.39859   0.91186   0.55124   0.00000  Uiso   1.00
H1088  H     0.60901   0.76813   0.52345   0.00000  Uiso   1.00
H1089  H     0.51407   0.82315   0.90127   0.00000  Uiso   1.00
H1090  H     0.45274   0.86973   0.57339   0.00000  Uiso   1.00
H1091  H     0.55836   0.81249   0.92791   0.00000  Uiso   1.00
H1092  H     0.33790   0.79313   0.95304   0.00000  Uiso   1.00
H1093  H     0.64138   0.83570   0.97714   0.00000  Uiso   1.00
H1094  H     0.63144   0.84869   0.91345   0.00000  Uiso   1.00
H1095  H     0.35452   0.84694   0.90844   0.00000  Uiso   1.00
H1096  H     0.65710   0.80255   0.88921   0.00000  Uiso   1.00
H1097  H     0.35031   0.85957   0.71441   0.00000  Uiso   1.00
H1098  H     0.65121   0.80792   0.78565   0.00000  Uiso   1.00
H1099  H     0.54132   0.66946   0.71584   0.00000  Uiso   1.00
H1100  H     0.45751   0.99894   0.78443   0.00000  Uiso   1.00
H1101  H     0.47806   0.83341   0.60147   0.00000  Uiso   1.00
H1102  H     0.58799   0.77370   0.59492   0.00000  Uiso   1.00
H1103  H     0.40239   0.91390   0.97658   0.00000  Uiso   1.00
H1104  H     0.41974   0.90310   0.90580   0.00000  Uiso   1.00
O1105  O     0.50000   0.83333   0.75000   0.00000  Uiso   1.00
O1106  O     0.49027   0.79060   0.66625   0.00000  Uiso   1.00
O1107  O     0.46020   0.87313   0.83749   0.00000  Uiso   1.00
O1108  O     0.54421   0.84159   0.65877   0.00000  Uiso   1.00
O1109  O     0.50532   0.82802   0.83749   0.00000  Uiso   1.00
O1110  O     0.60657   0.78044   0.95693   0.00000  Uiso   1.00
O1111  O     0.51182   0.74768   0.77820   0.00000  Uiso   1.00
O1112  O     0.47914   0.92803   0.76767   0.00000  Uiso   1.00
O1113  O     0.40785   0.79917   0.73607   0.00000  Uiso   1.00
O1114  O     0.60119   0.85845   0.71806   0.00000  Uiso   1.00
O1115  O     0.40323   0.85627   0.77820   0.00000  Uiso   1.00
O1116  O     0.58773   0.81944   0.76767   0.00000  Uiso   1.00
O1117  O     0.47133   0.73570   0.73607   0.00000  Uiso   1.00
O1118  O     0.53771   0.92193   0.71806   0.00000  Uiso   1.00
Zn1119 Zn    0.52577   0.80756   0.78277   0.00000  Uiso   1.00
Zn1120 Zn    0.46792   0.79044   0.72257   0.00000  Uiso   1.00
Zn1121 Zn    0.54500   0.86331   0.71188   0.00000  Uiso   1.00
Zn1122 Zn    0.46131   0.87202   0.78277   0.00000  Uiso   1.00
C1123  C     0.71918   0.82670   0.75871   0.00000  Uiso   1.00
C1124  C     0.87918   0.81501   0.95937   0.00000  Uiso   1.00
C1125  C     0.90368   0.79938   0.97883   0.00000  Uiso   1.00
C1126  C     0.94775   0.84026   0.74116   0.00000  Uiso   1.00
C1127  C     0.89000   0.80058   0.51983   0.00000  Uiso   1.00
C1128  C     0.85262   0.82019   0.54162   0.00000  Uiso   1.00
C1129  C     0.91375   0.78307   0.53944   0.00000  Uiso   1.00
C1130  C     0.90168   0.78574   0.58017   0.00000  Uiso   1.00
C1131  C     0.83992   0.82036   0.58286   0.00000  Uiso   1.00
C1132  C     0.99380   0.84281   0.73742   0.00000  Uiso   1.00
C1133  C     0.67375   0.82452   0.76223   0.00000  Uiso   1.00
C1134  C     0.77085   0.88837   0.92045   0.00000  Uiso   1.00
C1135  C     0.84757   0.98885   0.73803   0.00000  Uiso   1.00
C1136  C     0.81826   0.67878   0.76213   0.00000  Uiso   1.00
C1137  C     0.82263   0.72282   0.75888   0.00000  Uiso   1.00
C1138  C     0.84354   0.94436   0.74133   0.00000  Uiso   1.00
C1139  C     0.85513   0.81192   0.64412   0.00000  Uiso   1.00
C1140  C     0.81199   0.85434   0.85612   0.00000  Uiso   1.00
C1141  C     0.80242   0.86267   0.89905   0.00000  Uiso   1.00
C1142  C     0.86480   0.80429   0.60172   0.00000  Uiso   1.00
C1143  C     0.76107   0.89456   0.96117   0.00000  Uiso   1.00
C1144  C     0.97733   0.80989   0.95274   0.00000  Uiso   1.00
C1145  C     0.82486   0.84415   0.91874   0.00000  Uiso   1.00
C1146  C     0.98905   0.82809   0.91347   0.00000  Uiso   1.00
C1147  C     0.81728   0.85157   0.95977   0.00000  Uiso   1.00
C1148  C     0.78364   0.87615   0.98130   0.00000  Uiso   1.00
C1149  C     0.84186   0.83478   0.97983   0.00000  Uiso   1.00
C1150  C     0.82962   0.83917   0.52158   0.00000  Uiso   1.00
C1151  C     0.79555   0.86330   0.54195   0.00000  Uiso   1.00
C1152  C     0.77328   0.88186   0.52239   0.00000  Uiso   1.00
Cl1153 Cl    0.73192   0.91186   0.55124   0.00000  Uiso   1.00
H1154  H     0.94234   0.76813   0.52345   0.00000  Uiso   1.00
H1155  H     0.84741   0.82315   0.90127   0.00000  Uiso   1.00
H1156  H     0.78608   0.86973   0.57339   0.00000  Uiso   1.00
H1157  H     0.89169   0.81249   0.92791   0.00000  Uiso   1.00
H1158  H     0.67123   0.79313   0.95304   0.00000  Uiso   1.00
H1159  H     0.97471   0.83570   0.97714   0.00000  Uiso   1.00
H1160  H     0.96478   0.84869   0.91345   0.00000  Uiso   1.00
H1161  H     0.68785   0.84694   0.90844   0.00000  Uiso   1.00
H1162  H     0.99043   0.80255   0.88921   0.00000  Uiso   1.00
H1163  H     0.68364   0.85957   0.71441   0.00000  Uiso   1.00
H1164  H     0.98454   0.80792   0.78565   0.00000  Uiso   1.00
H1165  H     0.87465   0.66946   0.71584   0.00000  Uiso   1.00
H1166  H     0.79084   0.99894   0.78443   0.00000  Uiso   1.00
H1167  H     0.81139   0.83341   0.60147   0.00000  Uiso   1.00
H1168  H     0.92132   0.77370   0.59492   0.00000  Uiso   1.00
H1169  H     0.73572   0.91390   0.97658   0.00000  Uiso   1.00
H1170  H     0.75307   0.90310   0.90580   0.00000  Uiso   1.00
O1171  O     0.83333   0.83333   0.75000   0.00000  Uiso   1.00
O1172  O     0.82360   0.79060   0.66625   0.00000  Uiso   1.00
O1173  O     0.79354   0.87313   0.83749   0.00000  Uiso   1.00
O1174  O     0.87755   0.84159   0.65877   0.00000  Uiso   1.00
O1175  O     0.83865   0.82802   0.83749   0.00000  Uiso   1.00
O1176  O     0.93990   0.78044   0.95693   0.00000  Uiso   1.00
O1177  O     0.84515   0.74768   0.77820   0.00000  Uiso   1.00
O1178  O     0.81247   0.92803   0.76767   0.00000  Uiso   1.00
O1179  O     0.74119   0.79917   0.73607   0.00000  Uiso   1.00
O1180  O     0.93452   0.85845   0.71806   0.00000  Uiso   1.00
O1181  O     0.73656   0.85627   0.77820   0.00000  Uiso   1.00
O1182  O     0.92106   0.81944   0.76767   0.00000  Uiso   1.00
O1183  O     0.80467   0.73570   0.73607   0.00000  Uiso   1.00
O1184  O     0.87104   0.92193   0.71806   0.00000  Uiso   1.00
Zn1185 Zn    0.85910   0.80756   0.78277   0.00000  Uiso   1.00
Zn1186 Zn    0.80125   0.79044   0.72257   0.00000  Uiso   1.00
Zn1187 Zn    0.87833   0.86331   0.71188   0.00000  Uiso   1.00
Zn1188 Zn    0.79465   0.87202   0.78277   0.00000  Uiso   1.00
loop_
_geom_bond_atom_site_label_1
_geom_bond_atom_site_label_2
_geom_bond_distance
_geom_bond_site_symmetry_2
_ccdc_geom_bond_type
C1     O57     1.272   .     A
C1     C11     1.438   .     S
C1     O59     1.271   .     A
C2     H35     1.075   .     S
C2     C3      1.389   .     A
C2     C27     1.415   .     A
C3     O54     1.385   .     S
C3     C599    1.401   .     S
C4     O60     1.278   .     A
C4     C10     1.456   .     S
C4     O58     1.283   .     A
C5     C6      1.424   .     A
C5     C7      1.407   .     A
C5     C597    1.401   1_554 S
C6     C9      1.412   .     A
C6     C28     1.427   .     A
C7     C8      1.389   .     A
C7     H32     1.083   .     S
C8     C20     1.393   .     A
C8     H46     1.084   .     S
C9     H45     1.077   .     S
C9     C20     1.391   .     A
C10    C77     1.335   .     S
C10    H107    1.088   .     S
C11    C142    1.335   1_455 S
C11    H174    1.086   1_455 S
C12    H48     1.083   .     S
C12    C19     1.397   .     A
C12    C21     1.391   .     A
C13    C16     1.451   .     S
C13    C212    1.332   .     S
C13    H241    1.088   .     S
C14    C15     1.436   .     S
C14    C409    1.332   1_545 S
C14    H440    1.086   1_545 S
C15    O61     1.279   .     A
C15    O55     1.279   .     A
C16    O56     1.270   .     A
C16    O62     1.270   .     A
C17    O50     1.275   .     A
C17    C20     1.451   .     S
C17    O52     1.270   .     A
C18    O51     1.281   .     A
C18    C19     1.471   .     S
C18    O53     1.285   .     A
C19    C23     1.396   .     A
C21    C26     1.409   .     A
C21    H47     1.082   .     S
C22    O54     1.417   .     S
C22    C24     1.525   .     S
C22    H37     1.117   .     S
C22    H102    1.111   .     S
C23    C25     1.409   .     A
C23    H33     1.075   .     S
C24    H38     1.110   .     S
C24    H40     1.111   .     S
C24    H105    1.109   .     S
C25    C27     1.427   .     A
C25    C26     1.422   .     A
C26    C624    1.402   .     S
C27    C622    1.422   .     S
C28    C29     1.414   .     A
C28    C621    1.422   1_554 S
C29    C30     1.389   .     A
C29    H34     1.076   .     S
C30    Cl31    1.766   .     S
C30    C620    1.402   1_554 S
H36    C154    1.111   1_455 S
H39    C156    1.109   1_455 S
H41    C142    1.088   1_455 S
H42    C77     1.086   .     S
H43    C409    1.088   1_545 S
H44    C212    1.086   .     S
O49    Zn63    1.963   .     S
O49    Zn64    1.947   .     S
O49    Zn65    1.931   .     S
O49    Zn66    1.932   .     S
O50    Zn64    1.934   .     S
O51    Zn66    1.946   .     S
O52    Zn65    1.941   .     S
O53    Zn63    1.930   .     S
O55    Zn63    1.928   .     S
O56    Zn66    1.930   .     S
O57    Zn64    1.925   .     S
O58    Zn65    1.938   .     S
O59    Zn66    1.932   .     S
O60    Zn63    1.921   .     S
O61    Zn64    1.936   .     S
O62    Zn65    1.930   .     S
C67    O123    1.272   .     A
C67    C77     1.438   .     S
C67    O125    1.271   .     A
C68    H101    1.075   .     S
C68    C69     1.389   .     A
C68    C93     1.415   .     A
C69    O120    1.385   .     S
C69    C665    1.401   .     S
C70    O126    1.278   .     A
C70    C76     1.456   .     S
C70    O124    1.283   .     A
C71    C72     1.424   .     A
C71    C73     1.407   .     A
C71    C663    1.401   1_554 S
C72    C75     1.412   .     A
C72    C94     1.427   .     A
C73    C74     1.389   .     A
C73    H98     1.083   .     S
C74    C86     1.393   .     A
C74    H112    1.084   .     S
C75    H111    1.077   .     S
C75    C86     1.391   .     A
C76    C143    1.335   .     S
C76    H173    1.088   .     S
C78    H114    1.083   .     S
C78    C85     1.397   .     A
C78    C87     1.391   .     A
C79    C82     1.451   .     S
C79    C278    1.332   .     S
C79    H307    1.088   .     S
C80    C81     1.436   .     S
C80    C475    1.332   1_545 S
C80    H506    1.086   1_545 S
C81    O127    1.279   .     A
C81    O121    1.279   .     A
C82    O122    1.270   .     A
C82    O128    1.270   .     A
C83    O116    1.275   .     A
C83    C86     1.451   .     S
C83    O118    1.270   .     A
C84    O117    1.281   .     A
C84    C85     1.471   .     S
C84    O119    1.285   .     A
C85    C89     1.396   .     A
C87    C92     1.409   .     A
C87    H113    1.082   .     S
C88    O120    1.417   .     S
C88    C90     1.525   .     S
C88    H103    1.117   .     S
C88    H168    1.111   .     S
C89    C91     1.409   .     A
C89    H99     1.075   .     S
C90    H104    1.110   .     S
C90    H106    1.111   .     S
C90    H171    1.109   .     S
C91    C93     1.427   .     A
C91    C92     1.422   .     A
C92    C690    1.402   .     S
C93    C688    1.422   .     S
C94    C95     1.414   .     A
C94    C687    1.422   1_554 S
C95    C96     1.389   .     A
C95    H100    1.076   .     S
C96    Cl97    1.766   .     S
C96    C686    1.402   1_554 S
H108   C143    1.086   .     S
H109   C475    1.088   1_545 S
H110   C278    1.086   .     S
O115   Zn129   1.963   .     S
O115   Zn130   1.947   .     S
O115   Zn131   1.931   .     S
O115   Zn132   1.932   .     S
O116   Zn130   1.934   .     S
O117   Zn132   1.946   .     S
O118   Zn131   1.941   .     S
O119   Zn129   1.930   .     S
O121   Zn129   1.928   .     S
O122   Zn132   1.930   .     S
O123   Zn130   1.925   .     S
O124   Zn131   1.938   .     S
O125   Zn132   1.932   .     S
O126   Zn129   1.921   .     S
O127   Zn130   1.936   .     S
O128   Zn131   1.930   .     S
C133   O189    1.272   .     A
C133   C143    1.438   .     S
C133   O191    1.271   .     A
C134   H167    1.075   .     S
C134   C135    1.389   .     A
C134   C159    1.415   .     A
C135   O186    1.385   .     S
C135   C731    1.401   .     S
C136   O192    1.278   .     A
C136   C142    1.456   .     S
C136   O190    1.283   .     A
C137   C138    1.424   .     A
C137   C139    1.407   .     A
C137   C729    1.401   1_554 S
C138   C141    1.412   .     A
C138   C160    1.427   .     A
C139   C140    1.389   .     A
C139   H164    1.083   .     S
C140   C152    1.393   .     A
C140   H178    1.084   .     S
C141   H177    1.077   .     S
C141   C152    1.391   .     A
C142   C11     1.335   1_655 S
C142   H41     1.088   1_655 S
C144   H180    1.083   .     S
C144   C151    1.397   .     A
C144   C153    1.391   .     A
C145   C148    1.451   .     S
C145   C344    1.332   .     S
C145   H373    1.088   .     S
C146   C147    1.436   .     S
C146   C541    1.332   1_545 S
C146   H572    1.086   1_545 S
C147   O193    1.279   .     A
C147   O187    1.279   .     A
C148   O188    1.270   .     A
C148   O194    1.270   .     A
C149   O182    1.275   .     A
C149   C152    1.451   .     S
C149   O184    1.270   .     A
C150   O183    1.281   .     A
C150   C151    1.471   .     S
C150   O185    1.285   .     A
C151   C155    1.396   .     A
C153   C158    1.409   .     A
C153   H179    1.082   .     S
C154   O186    1.417   .     S
C154   C156    1.525   .     S
C154   H169    1.117   .     S
C154   H36     1.111   1_655 S
C155   C157    1.409   .     A
C155   H165    1.075   .     S
C156   H170    1.110   .     S
C156   H172    1.111   .     S
C156   H39     1.109   1_655 S
C157   C159    1.427   .     A
C157   C158    1.422   .     A
C158   C756    1.402   .     S
C159   C754    1.422   .     S
C160   C161    1.414   .     A
C160   C753    1.422   1_554 S
C161   C162    1.389   .     A
C161   H166    1.076   .     S
C162   Cl163   1.766   .     S
C162   C752    1.402   1_554 S
H174   C11     1.086   1_655 S
H175   C541    1.088   1_545 S
H176   C344    1.086   .     S
O181   Zn195   1.963   .     S
O181   Zn196   1.947   .     S
O181   Zn197   1.931   .     S
O181   Zn198   1.932   .     S
O182   Zn196   1.934   .     S
O183   Zn198   1.946   .     S
O184   Zn197   1.941   .     S
O185   Zn195   1.930   .     S
O187   Zn195   1.928   .     S
O188   Zn198   1.930   .     S
O189   Zn196   1.925   .     S
O190   Zn197   1.938   .     S
O191   Zn198   1.932   .     S
O192   Zn195   1.921   .     S
O193   Zn196   1.936   .     S
O194   Zn197   1.930   .     S
C199   O255    1.272   .     A
C199   C209    1.438   .     S
C199   O257    1.271   .     A
C200   H233    1.075   .     S
C200   C201    1.389   .     A
C200   C225    1.415   .     A
C201   O252    1.385   .     S
C201   C797    1.401   .     S
C202   O258    1.278   .     A
C202   C208    1.456   .     S
C202   O256    1.283   .     A
C203   C204    1.424   .     A
C203   C205    1.407   .     A
C203   C795    1.401   1_554 S
C204   C207    1.412   .     A
C204   C226    1.427   .     A
C205   C206    1.389   .     A
C205   H230    1.083   .     S
C206   C218    1.393   .     A
C206   H244    1.084   .     S
C207   H243    1.077   .     S
C207   C218    1.391   .     A
C208   C275    1.335   .     S
C208   H305    1.088   .     S
C209   C340    1.335   1_455 S
C209   H372    1.086   1_455 S
C210   H246    1.083   .     S
C210   C217    1.397   .     A
C210   C219    1.391   .     A
C211   C214    1.451   .     S
C211   C410    1.332   .     S
C211   H439    1.088   .     S
C212   C213    1.436   .     S
C213   O259    1.279   .     A
C213   O253    1.279   .     A
C214   O254    1.270   .     A
C214   O260    1.270   .     A
C215   O248    1.275   .     A
C215   C218    1.451   .     S
C215   O250    1.270   .     A
C216   O249    1.281   .     A
C216   C217    1.471   .     S
C216   O251    1.285   .     A
C217   C221    1.396   .     A
C219   C224    1.409   .     A
C219   H245    1.082   .     S
C220   O252    1.417   .     S
C220   C222    1.525   .     S
C220   H235    1.117   .     S
C220   H300    1.111   .     S
C221   C223    1.409   .     A
C221   H231    1.075   .     S
C222   H236    1.110   .     S
C222   H238    1.111   .     S
C222   H303    1.109   .     S
C223   C225    1.427   .     A
C223   C224    1.422   .     A
C224   C822    1.402   .     S
C225   C820    1.422   .     S
C226   C227    1.414   .     A
C226   C819    1.422   1_554 S
C227   C228    1.389   .     A
C227   H232    1.076   .     S
C228   Cl229   1.766   .     S
C228   C818    1.402   1_554 S
H234   C352    1.111   1_455 S
H237   C354    1.109   1_455 S
H239   C340    1.088   1_455 S
H240   C275    1.086   .     S
H242   C410    1.086   .     S
O247   Zn261   1.963   .     S
O247   Zn262   1.947   .     S
O247   Zn263   1.931   .     S
O247   Zn264   1.932   .     S
O248   Zn262   1.934   .     S
O249   Zn264   1.946   .     S
O250   Zn263   1.941   .     S
O251   Zn261   1.930   .     S
O253   Zn261   1.928   .     S
O254   Zn264   1.930   .     S
O255   Zn262   1.925   .     S
O256   Zn263   1.938   .     S
O257   Zn264   1.932   .     S
O258   Zn261   1.921   .     S
O259   Zn262   1.936   .     S
O260   Zn263   1.930   .     S
C265   O321    1.272   .     A
C265   C275    1.438   .     S
C265   O323    1.271   .     A
C266   H299    1.075   .     S
C266   C267    1.389   .     A
C266   C291    1.415   .     A
C267   O318    1.385   .     S
C267   C863    1.401   .     S
C268   O324    1.278   .     A
C268   C274    1.456   .     S
C268   O322    1.283   .     A
C269   C270    1.424   .     A
C269   C271    1.407   .     A
C269   C861    1.401   1_554 S
C270   C273    1.412   .     A
C270   C292    1.427   .     A
C271   C272    1.389   .     A
C271   H296    1.083   .     S
C272   C284    1.393   .     A
C272   H310    1.084   .     S
C273   H309    1.077   .     S
C273   C284    1.391   .     A
C274   C341    1.335   .     S
C274   H371    1.088   .     S
C276   H312    1.083   .     S
C276   C283    1.397   .     A
C276   C285    1.391   .     A
C277   C280    1.451   .     S
C277   C476    1.332   .     S
C277   H505    1.088   .     S
C278   C279    1.436   .     S
C279   O325    1.279   .     A
C279   O319    1.279   .     A
C280   O320    1.270   .     A
C280   O326    1.270   .     A
C281   O314    1.275   .     A
C281   C284    1.451   .     S
C281   O316    1.270   .     A
C282   O315    1.281   .     A
C282   C283    1.471   .     S
C282   O317    1.285   .     A
C283   C287    1.396   .     A
C285   C290    1.409   .     A
C285   H311    1.082   .     S
C286   O318    1.417   .     S
C286   C288    1.525   .     S
C286   H301    1.117   .     S
C286   H366    1.111   .     S
C287   C289    1.409   .     A
C287   H297    1.075   .     S
C288   H302    1.110   .     S
C288   H304    1.111   .     S
C288   H369    1.109   .     S
C289   C291    1.427   .     A
C289   C290    1.422   .     A
C290   C888    1.402   .     S
C291   C886    1.422   .     S
C292   C293    1.414   .     A
C292   C885    1.422   1_554 S
C293   C294    1.389   .     A
C293   H298    1.076   .     S
C294   Cl295   1.766   .     S
C294   C884    1.402   1_554 S
H306   C341    1.086   .     S
H308   C476    1.086   .     S
O313   Zn327   1.963   .     S
O313   Zn328   1.947   .     S
O313   Zn329   1.931   .     S
O313   Zn330   1.932   .     S
O314   Zn328   1.934   .     S
O315   Zn330   1.946   .     S
O316   Zn329   1.941   .     S
O317   Zn327   1.930   .     S
O319   Zn327   1.928   .     S
O320   Zn330   1.930   .     S
O321   Zn328   1.925   .     S
O322   Zn329   1.938   .     S
O323   Zn330   1.932   .     S
O324   Zn327   1.921   .     S
O325   Zn328   1.936   .     S
O326   Zn329   1.930   .     S
C331   O387    1.272   .     A
C331   C341    1.438   .     S
C331   O389    1.271   .     A
C332   H365    1.075   .     S
C332   C333    1.389   .     A
C332   C357    1.415   .     A
C333   O384    1.385   .     S
C333   C929    1.401   .     S
C334   O390    1.278   .     A
C334   C340    1.456   .     S
C334   O388    1.283   .     A
C335   C336    1.424   .     A
C335   C337    1.407   .     A
C335   C927    1.401   1_554 S
C336   C339    1.412   .     A
C336   C358    1.427   .     A
C337   C338    1.389   .     A
C337   H362    1.083   .     S
C338   C350    1.393   .     A
C338   H376    1.084   .     S
C339   H375    1.077   .     S
C339   C350    1.391   .     A
C340   C209    1.335   1_655 S
C340   H239    1.088   1_655 S
C342   H378    1.083   .     S
C342   C349    1.397   .     A
C342   C351    1.391   .     A
C343   C346    1.451   .     S
C343   C542    1.332   .     S
C343   H571    1.088   .     S
C344   C345    1.436   .     S
C345   O391    1.279   .     A
C345   O385    1.279   .     A
C346   O386    1.270   .     A
C346   O392    1.270   .     A
C347   O380    1.275   .     A
C347   C350    1.451   .     S
C347   O382    1.270   .     A
C348   O381    1.281   .     A
C348   C349    1.471   .     S
C348   O383    1.285   .     A
C349   C353    1.396   .     A
C351   C356    1.409   .     A
C351   H377    1.082   .     S
C352   O384    1.417   .     S
C352   C354    1.525   .     S
C352   H367    1.117   .     S
C352   H234    1.111   1_655 S
C353   C355    1.409   .     A
C353   H363    1.075   .     S
C354   H368    1.110   .     S
C354   H370    1.111   .     S
C354   H237    1.109   1_655 S
C355   C357    1.427   .     A
C355   C356    1.422   .     A
C356   C954    1.402   .     S
C357   C952    1.422   .     S
C358   C359    1.414   .     A
C358   C951    1.422   1_554 S
C359   C360    1.389   .     A
C359   H364    1.076   .     S
C360   Cl361   1.766   .     S
C360   C950    1.402   1_554 S
H372   C209    1.086   1_655 S
H374   C542    1.086   .     S
O379   Zn393   1.963   .     S
O379   Zn394   1.947   .     S
O379   Zn395   1.931   .     S
O379   Zn396   1.932   .     S
O380   Zn394   1.934   .     S
O381   Zn396   1.946   .     S
O382   Zn395   1.941   .     S
O383   Zn393   1.930   .     S
O385   Zn393   1.928   .     S
O386   Zn396   1.930   .     S
O387   Zn394   1.925   .     S
O388   Zn395   1.938   .     S
O389   Zn396   1.932   .     S
O390   Zn393   1.921   .     S
O391   Zn394   1.936   .     S
O392   Zn395   1.930   .     S
C397   O453    1.272   .     A
C397   C407    1.438   .     S
C397   O455    1.271   .     A
C398   H431    1.075   .     S
C398   C399    1.389   .     A
C398   C423    1.415   .     A
C399   O450    1.385   .     S
C399   C995    1.401   .     S
C400   O456    1.278   .     A
C400   C406    1.456   .     S
C400   O454    1.283   .     A
C401   C402    1.424   .     A
C401   C403    1.407   .     A
C401   C993    1.401   1_554 S
C402   C405    1.412   .     A
C402   C424    1.427   .     A
C403   C404    1.389   .     A
C403   H428    1.083   .     S
C404   C416    1.393   .     A
C404   H442    1.084   .     S
C405   H441    1.077   .     S
C405   C416    1.391   .     A
C406   C473    1.335   .     S
C406   H503    1.088   .     S
C407   C538    1.335   1_455 S
C407   H570    1.086   1_455 S
C408   H444    1.083   .     S
C408   C415    1.397   .     A
C408   C417    1.391   .     A
C409   C412    1.451   .     S
C409   C14     1.332   1_565 S
C409   H43     1.088   1_565 S
C410   C411    1.436   .     S
C411   O457    1.279   .     A
C411   O451    1.279   .     A
C412   O452    1.270   .     A
C412   O458    1.270   .     A
C413   O446    1.275   .     A
C413   C416    1.451   .     S
C413   O448    1.270   .     A
C414   O447    1.281   .     A
C414   C415    1.471   .     S
C414   O449    1.285   .     A
C415   C419    1.396   .     A
C417   C422    1.409   .     A
C417   H443    1.082   .     S
C418   O450    1.417   .     S
C418   C420    1.525   .     S
C418   H433    1.117   .     S
C418   H498    1.111   .     S
C419   C421    1.409   .     A
C419   H429    1.075   .     S
C420   H434    1.110   .     S
C420   H436    1.111   .     S
C420   H501    1.109   .     S
C421   C423    1.427   .     A
C421   C422    1.422   .     A
C422   C1020   1.402   .     S
C423   C1018   1.422   .     S
C424   C425    1.414   .     A
C424   C1017   1.422   1_554 S
C425   C426    1.389   .     A
C425   H430    1.076   .     S
C426   Cl427   1.766   .     S
C426   C1016   1.402   1_554 S
H432   C550    1.111   1_455 S
H435   C552    1.109   1_455 S
H437   C538    1.088   1_455 S
H438   C473    1.086   .     S
H440   C14     1.086   1_565 S
O445   Zn459   1.963   .     S
O445   Zn460   1.947   .     S
O445   Zn461   1.931   .     S
O445   Zn462   1.932   .     S
O446   Zn460   1.934   .     S
O447   Zn462   1.946   .     S
O448   Zn461   1.941   .     S
O449   Zn459   1.930   .     S
O451   Zn459   1.928   .     S
O452   Zn462   1.930   .     S
O453   Zn460   1.925   .     S
O454   Zn461   1.938   .     S
O455   Zn462   1.932   .     S
O456   Zn459   1.921   .     S
O457   Zn460   1.936   .     S
O458   Zn461   1.930   .     S
C463   O519    1.272   .     A
C463   C473    1.438   .     S
C463   O521    1.271   .     A
C464   H497    1.075   .     S
C464   C465    1.389   .     A
C464   C489    1.415   .     A
C465   O516    1.385   .     S
C465   C1061   1.401   .     S
C466   O522    1.278   .     A
C466   C472    1.456   .     S
C466   O520    1.283   .     A
C467   C468    1.424   .     A
C467   C469    1.407   .     A
C467   C1059   1.401   1_554 S
C468   C471    1.412   .     A
C468   C490    1.427   .     A
C469   C470    1.389   .     A
C469   H494    1.083   .     S
C470   C482    1.393   .     A
C470   H508    1.084   .     S
C471   H507    1.077   .     S
C471   C482    1.391   .     A
C472   C539    1.335   .     S
C472   H569    1.088   .     S
C474   H510    1.083   .     S
C474   C481    1.397   .     A
C474   C483    1.391   .     A
C475   C478    1.451   .     S
C475   C80     1.332   1_565 S
C475   H109    1.088   1_565 S
C476   C477    1.436   .     S
C477   O523    1.279   .     A
C477   O517    1.279   .     A
C478   O518    1.270   .     A
C478   O524    1.270   .     A
C479   O512    1.275   .     A
C479   C482    1.451   .     S
C479   O514    1.270   .     A
C480   O513    1.281   .     A
C480   C481    1.471   .     S
C480   O515    1.285   .     A
C481   C485    1.396   .     A
C483   C488    1.409   .     A
C483   H509    1.082   .     S
C484   O516    1.417   .     S
C484   C486    1.525   .     S
C484   H499    1.117   .     S
C484   H564    1.111   .     S
C485   C487    1.409   .     A
C485   H495    1.075   .     S
C486   H500    1.110   .     S
C486   H502    1.111   .     S
C486   H567    1.109   .     S
C487   C489    1.427   .     A
C487   C488    1.422   .     A
C488   C1086   1.402   .     S
C489   C1084   1.422   .     S
C490   C491    1.414   .     A
C490   C1083   1.422   1_554 S
C491   C492    1.389   .     A
C491   H496    1.076   .     S
C492   Cl493   1.766   .     S
C492   C1082   1.402   1_554 S
H504   C539    1.086   .     S
H506   C80     1.086   1_565 S
O511   Zn525   1.963   .     S
O511   Zn526   1.947   .     S
O511   Zn527   1.931   .     S
O511   Zn528   1.932   .     S
O512   Zn526   1.934   .     S
O513   Zn528   1.946   .     S
O514   Zn527   1.941   .     S
O515   Zn525   1.930   .     S
O517   Zn525   1.928   .     S
O518   Zn528   1.930   .     S
O519   Zn526   1.925   .     S
O520   Zn527   1.938   .     S
O521   Zn528   1.932   .     S
O522   Zn525   1.921   .     S
O523   Zn526   1.936   .     S
O524   Zn527   1.930   .     S
C529   O585    1.272   .     A
C529   C539    1.438   .     S
C529   O587    1.271   .     A
C530   H563    1.075   .     S
C530   C531    1.389   .     A
C530   C555    1.415   .     A
C531   O582    1.385   .     S
C531   C1127   1.401   .     S
C532   O588    1.278   .     A
C532   C538    1.456   .     S
C532   O586    1.283   .     A
C533   C534    1.424   .     A
C533   C535    1.407   .     A
C533   C1125   1.401   1_554 S
C534   C537    1.412   .     A
C534   C556    1.427   .     A
C535   C536    1.389   .     A
C535   H560    1.083   .     S
C536   C548    1.393   .     A
C536   H574    1.084   .     S
C537   H573    1.077   .     S
C537   C548    1.391   .     A
C538   C407    1.335   1_655 S
C538   H437    1.088   1_655 S
C540   H576    1.083   .     S
C540   C547    1.397   .     A
C540   C549    1.391   .     A
C541   C544    1.451   .     S
C541   C146    1.332   1_565 S
C541   H175    1.088   1_565 S
C542   C543    1.436   .     S
C543   O589    1.279   .     A
C543   O583    1.279   .     A
C544   O584    1.270   .     A
C544   O590    1.270   .     A
C545   O578    1.275   .     A
C545   C548    1.451   .     S
C545   O580    1.270   .     A
C546   O579    1.281   .     A
C546   C547    1.471   .     S
C546   O581    1.285   .     A
C547   C551    1.396   .     A
C549   C554    1.409   .     A
C549   H575    1.082   .     S
C550   O582    1.417   .     S
C550   C552    1.525   .     S
C550   H565    1.117   .     S
C550   H432    1.111   1_655 S
C551   C553    1.409   .     A
C551   H561    1.075   .     S
C552   H566    1.110   .     S
C552   H568    1.111   .     S
C552   H435    1.109   1_655 S
C553   C555    1.427   .     A
C553   C554    1.422   .     A
C554   C1152   1.402   .     S
C555   C1150   1.422   .     S
C556   C557    1.414   .     A
C556   C1149   1.422   1_554 S
C557   C558    1.389   .     A
C557   H562    1.076   .     S
C558   Cl559   1.766   .     S
C558   C1148   1.402   1_554 S
H570   C407    1.086   1_655 S
H572   C146    1.086   1_565 S
O577   Zn591   1.963   .     S
O577   Zn592   1.947   .     S
O577   Zn593   1.931   .     S
O577   Zn594   1.932   .     S
O578   Zn592   1.934   .     S
O579   Zn594   1.946   .     S
O580   Zn593   1.941   .     S
O581   Zn591   1.930   .     S
O583   Zn591   1.928   .     S
O584   Zn594   1.930   .     S
O585   Zn592   1.925   .     S
O586   Zn593   1.938   .     S
O587   Zn594   1.932   .     S
O588   Zn591   1.921   .     S
O589   Zn592   1.936   .     S
O590   Zn593   1.930   .     S
C595   O651    1.272   .     A
C595   C605    1.438   .     S
C595   O653    1.271   .     A
C596   H629    1.075   .     S
C596   C597    1.389   .     A
C596   C621    1.415   .     A
C597   O648    1.385   .     S
C597   C5      1.401   1_556 S
C598   O654    1.278   .     A
C598   C604    1.456   .     S
C598   O652    1.283   .     A
C599   C600    1.424   .     A
C599   C601    1.407   .     A
C600   C603    1.412   .     A
C600   C622    1.427   .     A
C601   C602    1.389   .     A
C601   H626    1.083   .     S
C602   C614    1.393   .     A
C602   H640    1.084   .     S
C603   H639    1.077   .     S
C603   C614    1.391   .     A
C604   C671    1.335   .     S
C604   H701    1.088   .     S
C605   C736    1.335   1_455 S
C605   H768    1.086   1_455 S
C606   H642    1.083   .     S
C606   C613    1.397   .     A
C606   C615    1.391   .     A
C607   C610    1.451   .     S
C607   C806    1.332   .     S
C607   H835    1.088   .     S
C608   C609    1.436   .     S
C608   C1003   1.332   1_545 S
C608   H1034   1.086   1_545 S
C609   O655    1.279   .     A
C609   O649    1.279   .     A
C610   O650    1.270   .     A
C610   O656    1.270   .     A
C611   O644    1.275   .     A
C611   C614    1.451   .     S
C611   O646    1.270   .     A
C612   O645    1.281   .     A
C612   C613    1.471   .     S
C612   O647    1.285   .     A
C613   C617    1.396   .     A
C615   C620    1.409   .     A
C615   H641    1.082   .     S
C616   O648    1.417   .     S
C616   C618    1.525   .     S
C616   H631    1.117   .     S
C616   H696    1.111   .     S
C617   C619    1.409   .     A
C617   H627    1.075   .     S
C618   H632    1.110   .     S
C618   H634    1.111   .     S
C618   H699    1.109   .     S
C619   C621    1.427   .     A
C619   C620    1.422   .     A
C620   C30     1.402   1_556 S
C621   C28     1.422   1_556 S
C622   C623    1.414   .     A
C623   C624    1.389   .     A
C623   H628    1.076   .     S
C624   Cl625   1.766   .     S
H630   C748    1.111   1_455 S
H633   C750    1.109   1_455 S
H635   C736    1.088   1_455 S
H636   C671    1.086   .     S
H637   C1003   1.088   1_545 S
H638   C806    1.086   .     S
O643   Zn657   1.963   .     S
O643   Zn658   1.947   .     S
O643   Zn659   1.931   .     S
O643   Zn660   1.932   .     S
O644   Zn658   1.934   .     S
O645   Zn660   1.946   .     S
O646   Zn659   1.941   .     S
O647   Zn657   1.930   .     S
O649   Zn657   1.928   .     S
O650   Zn660   1.930   .     S
O651   Zn658   1.925   .     S
O652   Zn659   1.938   .     S
O653   Zn660   1.932   .     S
O654   Zn657   1.921   .     S
O655   Zn658   1.936   .     S
O656   Zn659   1.930   .     S
C661   O717    1.272   .     A
C661   C671    1.438   .     S
C661   O719    1.271   .     A
C662   H695    1.075   .     S
C662   C663    1.389   .     A
C662   C687    1.415   .     A
C663   O714    1.385   .     S
C663   C71     1.401   1_556 S
C664   O720    1.278   .     A
C664   C670    1.456   .     S
C664   O718    1.283   .     A
C665   C666    1.424   .     A
C665   C667    1.407   .     A
C666   C669    1.412   .     A
C666   C688    1.427   .     A
C667   C668    1.389   .     A
C667   H692    1.083   .     S
C668   C680    1.393   .     A
C668   H706    1.084   .     S
C669   H705    1.077   .     S
C669   C680    1.391   .     A
C670   C737    1.335   .     S
C670   H767    1.088   .     S
C672   H708    1.083   .     S
C672   C679    1.397   .     A
C672   C681    1.391   .     A
C673   C676    1.451   .     S
C673   C872    1.332   .     S
C673   H901    1.088   .     S
C674   C675    1.436   .     S
C674   C1069   1.332   1_545 S
C674   H1100   1.086   1_545 S
C675   O721    1.279   .     A
C675   O715    1.279   .     A
C676   O716    1.270   .     A
C676   O722    1.270   .     A
C677   O710    1.275   .     A
C677   C680    1.451   .     S
C677   O712    1.270   .     A
C678   O711    1.281   .     A
C678   C679    1.471   .     S
C678   O713    1.285   .     A
C679   C683    1.396   .     A
C681   C686    1.409   .     A
C681   H707    1.082   .     S
C682   O714    1.417   .     S
C682   C684    1.525   .     S
C682   H697    1.117   .     S
C682   H762    1.111   .     S
C683   C685    1.409   .     A
C683   H693    1.075   .     S
C684   H698    1.110   .     S
C684   H700    1.111   .     S
C684   H765    1.109   .     S
C685   C687    1.427   .     A
C685   C686    1.422   .     A
C686   C96     1.402   1_556 S
C687   C94     1.422   1_556 S
C688   C689    1.414   .     A
C689   C690    1.389   .     A
C689   H694    1.076   .     S
C690   Cl691   1.766   .     S
H702   C737    1.086   .     S
H703   C1069   1.088   1_545 S
H704   C872    1.086   .     S
O709   Zn723   1.963   .     S
O709   Zn724   1.947   .     S
O709   Zn725   1.931   .     S
O709   Zn726   1.932   .     S
O710   Zn724   1.934   .     S
O711   Zn726   1.946   .     S
O712   Zn725   1.941   .     S
O713   Zn723   1.930   .     S
O715   Zn723   1.928   .     S
O716   Zn726   1.930   .     S
O717   Zn724   1.925   .     S
O718   Zn725   1.938   .     S
O719   Zn726   1.932   .     S
O720   Zn723   1.921   .     S
O721   Zn724   1.936   .     S
O722   Zn725   1.930   .     S
C727   O783    1.272   .     A
C727   C737    1.438   .     S
C727   O785    1.271   .     A
C728   H761    1.075   .     S
C728   C729    1.389   .     A
C728   C753    1.415   .     A
C729   O780    1.385   .     S
C729   C137    1.401   1_556 S
C730   O786    1.278   .     A
C730   C736    1.456   .     S
C730   O784    1.283   .     A
C731   C732    1.424   .     A
C731   C733    1.407   .     A
C732   C735    1.412   .     A
C732   C754    1.427   .     A
C733   C734    1.389   .     A
C733   H758    1.083   .     S
C734   C746    1.393   .     A
C734   H772    1.084   .     S
C735   H771    1.077   .     S
C735   C746    1.391   .     A
C736   C605    1.335   1_655 S
C736   H635    1.088   1_655 S
C738   H774    1.083   .     S
C738   C745    1.397   .     A
C738   C747    1.391   .     A
C739   C742    1.451   .     S
C739   C938    1.332   .     S
C739   H967    1.088   .     S
C740   C741    1.436   .     S
C740   C1135   1.332   1_545 S
C740   H1166   1.086   1_545 S
C741   O787    1.279   .     A
C741   O781    1.279   .     A
C742   O782    1.270   .     A
C742   O788    1.270   .     A
C743   O776    1.275   .     A
C743   C746    1.451   .     S
C743   O778    1.270   .     A
C744   O777    1.281   .     A
C744   C745    1.471   .     S
C744   O779    1.285   .     A
C745   C749    1.396   .     A
C747   C752    1.409   .     A
C747   H773    1.082   .     S
C748   O780    1.417   .     S
C748   C750    1.525   .     S
C748   H763    1.117   .     S
C748   H630    1.111   1_655 S
C749   C751    1.409   .     A
C749   H759    1.075   .     S
C750   H764    1.110   .     S
C750   H766    1.111   .     S
C750   H633    1.109   1_655 S
C751   C753    1.427   .     A
C751   C752    1.422   .     A
C752   C162    1.402   1_556 S
C753   C160    1.422   1_556 S
C754   C755    1.414   .     A
C755   C756    1.389   .     A
C755   H760    1.076   .     S
C756   Cl757   1.766   .     S
H768   C605    1.086   1_655 S
H769   C1135   1.088   1_545 S
H770   C938    1.086   .     S
O775   Zn789   1.963   .     S
O775   Zn790   1.947   .     S
O775   Zn791   1.931   .     S
O775   Zn792   1.932   .     S
O776   Zn790   1.934   .     S
O777   Zn792   1.946   .     S
O778   Zn791   1.941   .     S
O779   Zn789   1.930   .     S
O781   Zn789   1.928   .     S
O782   Zn792   1.930   .     S
O783   Zn790   1.925   .     S
O784   Zn791   1.938   .     S
O785   Zn792   1.932   .     S
O786   Zn789   1.921   .     S
O787   Zn790   1.936   .     S
O788   Zn791   1.930   .     S
C793   O849    1.272   .     A
C793   C803    1.438   .     S
C793   O851    1.271   .     A
C794   H827    1.075   .     S
C794   C795    1.389   .     A
C794   C819    1.415   .     A
C795   O846    1.385   .     S
C795   C203    1.401   1_556 S
C796   O852    1.278   .     A
C796   C802    1.456   .     S
C796   O850    1.283   .     A
C797   C798    1.424   .     A
C797   C799    1.407   .     A
C798   C801    1.412   .     A
C798   C820    1.427   .     A
C799   C800    1.389   .     A
C799   H824    1.083   .     S
C800   C812    1.393   .     A
C800   H838    1.084   .     S
C801   H837    1.077   .     S
C801   C812    1.391   .     A
C802   C869    1.335   .     S
C802   H899    1.088   .     S
C803   C934    1.335   1_455 S
C803   H966    1.086   1_455 S
C804   H840    1.083   .     S
C804   C811    1.397   .     A
C804   C813    1.391   .     A
C805   C808    1.451   .     S
C805   C1004   1.332   .     S
C805   H1033   1.088   .     S
C806   C807    1.436   .     S
C807   O853    1.279   .     A
C807   O847    1.279   .     A
C808   O848    1.270   .     A
C808   O854    1.270   .     A
C809   O842    1.275   .     A
C809   C812    1.451   .     S
C809   O844    1.270   .     A
C810   O843    1.281   .     A
C810   C811    1.471   .     S
C810   O845    1.285   .     A
C811   C815    1.396   .     A
C813   C818    1.409   .     A
C813   H839    1.082   .     S
C814   O846    1.417   .     S
C814   C816    1.525   .     S
C814   H829    1.117   .     S
C814   H894    1.111   .     S
C815   C817    1.409   .     A
C815   H825    1.075   .     S
C816   H830    1.110   .     S
C816   H832    1.111   .     S
C816   H897    1.109   .     S
C817   C819    1.427   .     A
C817   C818    1.422   .     A
C818   C228    1.402   1_556 S
C819   C226    1.422   1_556 S
C820   C821    1.414   .     A
C821   C822    1.389   .     A
C821   H826    1.076   .     S
C822   Cl823   1.766   .     S
H828   C946    1.111   1_455 S
H831   C948    1.109   1_455 S
H833   C934    1.088   1_455 S
H834   C869    1.086   .     S
H836   C1004   1.086   .     S
O841   Zn855   1.963   .     S
O841   Zn856   1.947   .     S
O841   Zn857   1.931   .     S
O841   Zn858   1.932   .     S
O842   Zn856   1.934   .     S
O843   Zn858   1.946   .     S
O844   Zn857   1.941   .     S
O845   Zn855   1.930   .     S
O847   Zn855   1.928   .     S
O848   Zn858   1.930   .     S
O849   Zn856   1.925   .     S
O850   Zn857   1.938   .     S
O851   Zn858   1.932   .     S
O852   Zn855   1.921   .     S
O853   Zn856   1.936   .     S
O854   Zn857   1.930   .     S
C859   O915    1.272   .     A
C859   C869    1.438   .     S
C859   O917    1.271   .     A
C860   H893    1.075   .     S
C860   C861    1.389   .     A
C860   C885    1.415   .     A
C861   O912    1.385   .     S
C861   C269    1.401   1_556 S
C862   O918    1.278   .     A
C862   C868    1.456   .     S
C862   O916    1.283   .     A
C863   C864    1.424   .     A
C863   C865    1.407   .     A
C864   C867    1.412   .     A
C864   C886    1.427   .     A
C865   C866    1.389   .     A
C865   H890    1.083   .     S
C866   C878    1.393   .     A
C866   H904    1.084   .     S
C867   H903    1.077   .     S
C867   C878    1.391   .     A
C868   C935    1.335   .     S
C868   H965    1.088   .     S
C870   H906    1.083   .     S
C870   C877    1.397   .     A
C870   C879    1.391   .     A
C871   C874    1.451   .     S
C871   C1070   1.332   .     S
C871   H1099   1.088   .     S
C872   C873    1.436   .     S
C873   O919    1.279   .     A
C873   O913    1.279   .     A
C874   O914    1.270   .     A
C874   O920    1.270   .     A
C875   O908    1.275   .     A
C875   C878    1.451   .     S
C875   O910    1.270   .     A
C876   O909    1.281   .     A
C876   C877    1.471   .     S
C876   O911    1.285   .     A
C877   C881    1.396   .     A
C879   C884    1.409   .     A
C879   H905    1.082   .     S
C880   O912    1.417   .     S
C880   C882    1.525   .     S
C880   H895    1.117   .     S
C880   H960    1.111   .     S
C881   C883    1.409   .     A
C881   H891    1.075   .     S
C882   H896    1.110   .     S
C882   H898    1.111   .     S
C882   H963    1.109   .     S
C883   C885    1.427   .     A
C883   C884    1.422   .     A
C884   C294    1.402   1_556 S
C885   C292    1.422   1_556 S
C886   C887    1.414   .     A
C887   C888    1.389   .     A
C887   H892    1.076   .     S
C888   Cl889   1.766   .     S
H900   C935    1.086   .     S
H902   C1070   1.086   .     S
O907   Zn921   1.963   .     S
O907   Zn922   1.947   .     S
O907   Zn923   1.931   .     S
O907   Zn924   1.932   .     S
O908   Zn922   1.934   .     S
O909   Zn924   1.946   .     S
O910   Zn923   1.941   .     S
O911   Zn921   1.930   .     S
O913   Zn921   1.928   .     S
O914   Zn924   1.930   .     S
O915   Zn922   1.925   .     S
O916   Zn923   1.938   .     S
O917   Zn924   1.932   .     S
O918   Zn921   1.921   .     S
O919   Zn922   1.936   .     S
O920   Zn923   1.930   .     S
C925   O981    1.272   .     A
C925   C935    1.438   .     S
C925   O983    1.271   .     A
C926   H959    1.075   .     S
C926   C927    1.389   .     A
C926   C951    1.415   .     A
C927   O978    1.385   .     S
C927   C335    1.401   1_556 S
C928   O984    1.278   .     A
C928   C934    1.456   .     S
C928   O982    1.283   .     A
C929   C930    1.424   .     A
C929   C931    1.407   .     A
C930   C933    1.412   .     A
C930   C952    1.427   .     A
C931   C932    1.389   .     A
C931   H956    1.083   .     S
C932   C944    1.393   .     A
C932   H970    1.084   .     S
C933   H969    1.077   .     S
C933   C944    1.391   .     A
C934   C803    1.335   1_655 S
C934   H833    1.088   1_655 S
C936   H972    1.083   .     S
C936   C943    1.397   .     A
C936   C945    1.391   .     A
C937   C940    1.451   .     S
C937   C1136   1.332   .     S
C937   H1165   1.088   .     S
C938   C939    1.436   .     S
C939   O985    1.279   .     A
C939   O979    1.279   .     A
C940   O980    1.270   .     A
C940   O986    1.270   .     A
C941   O974    1.275   .     A
C941   C944    1.451   .     S
C941   O976    1.270   .     A
C942   O975    1.281   .     A
C942   C943    1.471   .     S
C942   O977    1.285   .     A
C943   C947    1.396   .     A
C945   C950    1.409   .     A
C945   H971    1.082   .     S
C946   O978    1.417   .     S
C946   C948    1.525   .     S
C946   H961    1.117   .     S
C946   H828    1.111   1_655 S
C947   C949    1.409   .     A
C947   H957    1.075   .     S
C948   H962    1.110   .     S
C948   H964    1.111   .     S
C948   H831    1.109   1_655 S
C949   C951    1.427   .     A
C949   C950    1.422   .     A
C950   C360    1.402   1_556 S
C951   C358    1.422   1_556 S
C952   C953    1.414   .     A
C953   C954    1.389   .     A
C953   H958    1.076   .     S
C954   Cl955   1.766   .     S
H966   C803    1.086   1_655 S
H968   C1136   1.086   .     S
O973   Zn987   1.963   .     S
O973   Zn988   1.947   .     S
O973   Zn989   1.931   .     S
O973   Zn990   1.932   .     S
O974   Zn988   1.934   .     S
O975   Zn990   1.946   .     S
O976   Zn989   1.941   .     S
O977   Zn987   1.930   .     S
O979   Zn987   1.928   .     S
O980   Zn990   1.930   .     S
O981   Zn988   1.925   .     S
O982   Zn989   1.938   .     S
O983   Zn990   1.932   .     S
O984   Zn987   1.921   .     S
O985   Zn988   1.936   .     S
O986   Zn989   1.930   .     S
C991   O1047   1.272   .     A
C991   C1001   1.438   .     S
C991   O1049   1.271   .     A
C992   H1025   1.075   .     S
C992   C993    1.389   .     A
C992   C1017   1.415   .     A
C993   O1044   1.385   .     S
C993   C401    1.401   1_556 S
C994   O1050   1.278   .     A
C994   C1000   1.456   .     S
C994   O1048   1.283   .     A
C995   C996    1.424   .     A
C995   C997    1.407   .     A
C996   C999    1.412   .     A
C996   C1018   1.427   .     A
C997   C998    1.389   .     A
C997   H1022   1.083   .     S
C998   C1010   1.393   .     A
C998   H1036   1.084   .     S
C999   H1035   1.077   .     S
C999   C1010   1.391   .     A
C1000  C1067   1.335   .     S
C1000  H1097   1.088   .     S
C1001  C1132   1.335   1_455 S
C1001  H1164   1.086   1_455 S
C1002  H1038   1.083   .     S
C1002  C1009   1.397   .     A
C1002  C1011   1.391   .     A
C1003  C1006   1.451   .     S
C1003  C608    1.332   1_565 S
C1003  H637    1.088   1_565 S
C1004  C1005   1.436   .     S
C1005  O1051   1.279   .     A
C1005  O1045   1.279   .     A
C1006  O1046   1.270   .     A
C1006  O1052   1.270   .     A
C1007  O1040   1.275   .     A
C1007  C1010   1.451   .     S
C1007  O1042   1.270   .     A
C1008  O1041   1.281   .     A
C1008  C1009   1.471   .     S
C1008  O1043   1.285   .     A
C1009  C1013   1.396   .     A
C1011  C1016   1.409   .     A
C1011  H1037   1.082   .     S
C1012  O1044   1.417   .     S
C1012  C1014   1.525   .     S
C1012  H1027   1.117   .     S
C1012  H1092   1.111   .     S
C1013  C1015   1.409   .     A
C1013  H1023   1.075   .     S
C1014  H1028   1.110   .     S
C1014  H1030   1.111   .     S
C1014  H1095   1.109   .     S
C1015  C1017   1.427   .     A
C1015  C1016   1.422   .     A
C1016  C426    1.402   1_556 S
C1017  C424    1.422   1_556 S
C1018  C1019   1.414   .     A
C1019  C1020   1.389   .     A
C1019  H1024   1.076   .     S
C1020  Cl1021  1.766   .     S
H1026  C1144   1.111   1_455 S
H1029  C1146   1.109   1_455 S
H1031  C1132   1.088   1_455 S
H1032  C1067   1.086   .     S
H1034  C608    1.086   1_565 S
O1039  Zn1053  1.963   .     S
O1039  Zn1054  1.947   .     S
O1039  Zn1055  1.931   .     S
O1039  Zn1056  1.932   .     S
O1040  Zn1054  1.934   .     S
O1041  Zn1056  1.946   .     S
O1042  Zn1055  1.941   .     S
O1043  Zn1053  1.930   .     S
O1045  Zn1053  1.928   .     S
O1046  Zn1056  1.930   .     S
O1047  Zn1054  1.925   .     S
O1048  Zn1055  1.938   .     S
O1049  Zn1056  1.932   .     S
O1050  Zn1053  1.921   .     S
O1051  Zn1054  1.936   .     S
O1052  Zn1055  1.930   .     S
C1057  O1113   1.272   .     A
C1057  C1067   1.438   .     S
C1057  O1115   1.271   .     A
C1058  H1091   1.075   .     S
C1058  C1059   1.389   .     A
C1058  C1083   1.415   .     A
C1059  O1110   1.385   .     S
C1059  C467    1.401   1_556 S
C1060  O1116   1.278   .     A
C1060  C1066   1.456   .     S
C1060  O1114   1.283   .     A
C1061  C1062   1.424   .     A
C1061  C1063   1.407   .     A
C1062  C1065   1.412   .     A
C1062  C1084   1.427   .     A
C1063  C1064   1.389   .     A
C1063  H1088   1.083   .     S
C1064  C1076   1.393   .     A
C1064  H1102   1.084   .     S
C1065  H1101   1.077   .     S
C1065  C1076   1.391   .     A
C1066  C1133   1.335   .     S
C1066  H1163   1.088   .     S
C1068  H1104   1.083   .     S
C1068  C1075   1.397   .     A
C1068  C1077   1.391   .     A
C1069  C1072   1.451   .     S
C1069  C674    1.332   1_565 S
C1069  H703    1.088   1_565 S
C1070  C1071   1.436   .     S
C1071  O1117   1.279   .     A
C1071  O1111   1.279   .     A
C1072  O1112   1.270   .     A
C1072  O1118   1.270   .     A
C1073  O1106   1.275   .     A
C1073  C1076   1.451   .     S
C1073  O1108   1.270   .     A
C1074  O1107   1.281   .     A
C1074  C1075   1.471   .     S
C1074  O1109   1.285   .     A
C1075  C1079   1.396   .     A
C1077  C1082   1.409   .     A
C1077  H1103   1.082   .     S
C1078  O1110   1.417   .     S
C1078  C1080   1.525   .     S
C1078  H1093   1.117   .     S
C1078  H1158   1.111   .     S
C1079  C1081   1.409   .     A
C1079  H1089   1.075   .     S
C1080  H1094   1.110   .     S
C1080  H1096   1.111   .     S
C1080  H1161   1.109   .     S
C1081  C1083   1.427   .     A
C1081  C1082   1.422   .     A
C1082  C492    1.402   1_556 S
C1083  C490    1.422   1_556 S
C1084  C1085   1.414   .     A
C1085  C1086   1.389   .     A
C1085  H1090   1.076   .     S
C1086  Cl1087  1.766   .     S
H1098  C1133   1.086   .     S
H1100  C674    1.086   1_565 S
O1105  Zn1119  1.963   .     S
O1105  Zn1120  1.947   .     S
O1105  Zn1121  1.931   .     S
O1105  Zn1122  1.932   .     S
O1106  Zn1120  1.934   .     S
O1107  Zn1122  1.946   .     S
O1108  Zn1121  1.941   .     S
O1109  Zn1119  1.930   .     S
O1111  Zn1119  1.928   .     S
O1112  Zn1122  1.930   .     S
O1113  Zn1120  1.925   .     S
O1114  Zn1121  1.938   .     S
O1115  Zn1122  1.932   .     S
O1116  Zn1119  1.921   .     S
O1117  Zn1120  1.936   .     S
O1118  Zn1121  1.930   .     S
C1123  O1179   1.272   .     A
C1123  C1133   1.438   .     S
C1123  O1181   1.271   .     A
C1124  H1157   1.075   .     S
C1124  C1125   1.389   .     A
C1124  C1149   1.415   .     A
C1125  O1176   1.385   .     S
C1125  C533    1.401   1_556 S
C1126  O1182   1.278   .     A
C1126  C1132   1.456   .     S
C1126  O1180   1.283   .     A
C1127  C1128   1.424   .     A
C1127  C1129   1.407   .     A
C1128  C1131   1.412   .     A
C1128  C1150   1.427   .     A
C1129  C1130   1.389   .     A
C1129  H1154   1.083   .     S
C1130  C1142   1.393   .     A
C1130  H1168   1.084   .     S
C1131  H1167   1.077   .     S
C1131  C1142   1.391   .     A
C1132  C1001   1.335   1_655 S
C1132  H1031   1.088   1_655 S
C1134  H1170   1.083   .     S
C1134  C1141   1.397   .     A
C1134  C1143   1.391   .     A
C1135  C1138   1.451   .     S
C1135  C740    1.332   1_565 S
C1135  H769    1.088   1_565 S
C1136  C1137   1.436   .     S
C1137  O1183   1.279   .     A
C1137  O1177   1.279   .     A
C1138  O1178   1.270   .     A
C1138  O1184   1.270   .     A
C1139  O1172   1.275   .     A
C1139  C1142   1.451   .     S
C1139  O1174   1.270   .     A
C1140  O1173   1.281   .     A
C1140  C1141   1.471   .     S
C1140  O1175   1.285   .     A
C1141  C1145   1.396   .     A
C1143  C1148   1.409   .     A
C1143  H1169   1.082   .     S
C1144  O1176   1.417   .     S
C1144  C1146   1.525   .     S
C1144  H1159   1.117   .     S
C1144  H1026   1.111   1_655 S
C1145  C1147   1.409   .     A
C1145  H1155   1.075   .     S
C1146  H1160   1.110   .     S
C1146  H1162   1.111   .     S
C1146  H1029   1.109   1_655 S
C1147  C1149   1.427   .     A
C1147  C1148   1.422   .     A
C1148  C558    1.402   1_556 S
C1149  C556    1.422   1_556 S
C1150  C1151   1.414   .     A
C1151  C1152   1.389   .     A
C1151  H1156   1.076   .     S
C1152  Cl1153  1.766   .     S
H1164  C1001   1.086   1_655 S
H1166  C740    1.086   1_565 S
O1171  Zn1185  1.963   .     S
O1171  Zn1186  1.947   .     S
O1171  Zn1187  1.931   .     S
O1171  Zn1188  1.932   .     S
O1172  Zn1186  1.934   .     S
O1173  Zn1188  1.946   .     S
O1174  Zn1187  1.941   .     S
O1175  Zn1185  1.930   .     S
O1177  Zn1185  1.928   .     S
O1178  Zn1188  1.930   .     S
O1179  Zn1186  1.925   .     S
O1180  Zn1187  1.938   .     S
O1181  Zn1188  1.932   .     S
O1182  Zn1185  1.921   .     S
O1183  Zn1186  1.936   .     S
O1184  Zn1187  1.930   .     S
