data_str_m1_o10_o18_pcu_sym.154
_audit_creation_date              2020-01-03
_audit_creation_method            'Materials Studio'
_symmetry_space_group_name_H-M    'P1'
_symmetry_Int_Tables_number       1
_symmetry_cell_setting            triclinic
loop_
_symmetry_equiv_pos_as_xyz
  x,y,z
_cell_length_a                    32.5129
_cell_length_b                    32.5422
_cell_length_c                    35.7451
_cell_angle_alpha                 98.2505
_cell_angle_beta                  73.0901
_cell_angle_gamma                 98.5847
loop_
_atom_site_label
_atom_site_type_symbol
_atom_site_fract_x
_atom_site_fract_y
_atom_site_fract_z
_atom_site_U_iso_or_equiv
_atom_site_adp_type
_atom_site_occupancy
C1     C     0.05248   0.15989   0.25874   0.00000  Uiso   1.00
C2     C     0.18642   0.12104   0.46266   0.00000  Uiso   1.00
C3     C     0.20676   0.10096   0.48271   0.00000  Uiso   1.00
C4     C     0.28105   0.17357   0.24122   0.00000  Uiso   1.00
C5     C     0.20236   0.11250   0.02254   0.00000  Uiso   1.00
C6     C     0.17451   0.14293   0.04347   0.00000  Uiso   1.00
C7     C     0.22530   0.09351   0.04178   0.00000  Uiso   1.00
C8     C     0.22141   0.10474   0.08157   0.00000  Uiso   1.00
C9     C     0.17401   0.15602   0.08287   0.00000  Uiso   1.00
C10    C     0.32703   0.17638   0.23776   0.00000  Uiso   1.00
C11    C     0.00709   0.15745   0.26210   0.00000  Uiso   1.00
C12    C     0.09732   0.21358   0.42069   0.00000  Uiso   1.00
C13    C     0.18088   0.32214   0.23815   0.00000  Uiso   1.00
C14    C     0.15149   0.01208   0.26208   0.00000  Uiso   1.00
C15    C     0.15591   0.05611   0.25888   0.00000  Uiso   1.00
C16    C     0.17684   0.27767   0.24136   0.00000  Uiso   1.00
C17    C     0.18817   0.14518   0.14411   0.00000  Uiso   1.00
C18    C     0.14561   0.18789   0.35618   0.00000  Uiso   1.00
C19    C     0.13396   0.19397   0.39951   0.00000  Uiso   1.00
C20    C     0.19606   0.13619   0.10188   0.00000  Uiso   1.00
C21    C     0.08439   0.21659   0.46155   0.00000  Uiso   1.00
C22    C     0.22992   0.20177   0.40302   0.00000  Uiso   1.00
C23    C     0.15829   0.17818   0.41989   0.00000  Uiso   1.00
C24    C     0.27449   0.19061   0.37901   0.00000  Uiso   1.00
C25    C     0.06532   0.14693   0.09337   0.00000  Uiso   1.00
C26    C     0.02057   0.16010   0.11528   0.00000  Uiso   1.00
C27    C     0.32166   0.12270   0.12961   0.00000  Uiso   1.00
C28    C     0.14178   0.17565   0.46098   0.00000  Uiso   1.00
C29    C     0.10618   0.19768   0.48183   0.00000  Uiso   1.00
C30    C     0.16019   0.15289   0.48199   0.00000  Uiso   1.00
C31    C     0.14955   0.15996   0.02379   0.00000  Uiso   1.00
C32    C     0.11303   0.18174   0.04385   0.00000  Uiso   1.00
C33    C     0.09207   0.20009   0.02269   0.00000  Uiso   1.00
H34    H     0.06420   0.21621   0.03861   0.00000  Uiso   1.00
H35    H     0.05650   0.23272   0.47730   0.00000  Uiso   1.00
H36    H     0.07855   0.22659   0.40566   0.00000  Uiso   1.00
H37    H     0.18982   0.10943   0.43221   0.00000  Uiso   1.00
H38    H     0.23041   0.21007   0.43424   0.00000  Uiso   1.00
H39    H     0.22317   0.22941   0.39155   0.00000  Uiso   1.00
H40    H     0.27518   0.18291   0.34756   0.00000  Uiso   1.00
H41    H     0.29925   0.21750   0.38169   0.00000  Uiso   1.00
H42    H     0.28237   0.16325   0.38986   0.00000  Uiso   1.00
H43    H     0.07664   0.13043   0.11303   0.00000  Uiso   1.00
H44    H     0.06254   0.12401   0.06747   0.00000  Uiso   1.00
H45    H     0.24582   0.06964   0.02613   0.00000  Uiso   1.00
H46    H     0.02305   0.18300   0.14099   0.00000  Uiso   1.00
H47    H     0.00844   0.17542   0.09535   0.00000  Uiso   1.00
H48    H     0.31844   0.09943   0.10437   0.00000  Uiso   1.00
H49    H     0.28948   0.13331   0.14484   0.00000  Uiso   1.00
H50    H     0.33245   0.10772   0.15062   0.00000  Uiso   1.00
H51    H     0.01676   0.19391   0.21538   0.00000  Uiso   1.00
H52    H     0.31807   0.13969   0.28465   0.00000  Uiso   1.00
H53    H     0.20804   0.00273   0.21613   0.00000  Uiso   1.00
H54    H     0.12394   0.33225   0.28416   0.00000  Uiso   1.00
H55    H     0.15752   0.18205   0.09939   0.00000  Uiso   1.00
H56    H     0.23802   0.08892   0.09653   0.00000  Uiso   1.00
H57    H     0.22666   0.07671   0.46674   0.00000  Uiso   1.00
O58    O     0.16667   0.16667   0.25000   0.00000  Uiso   1.00
O59    O     0.15693   0.12393   0.16625   0.00000  Uiso   1.00
O60    O     0.12687   0.20646   0.33749   0.00000  Uiso   1.00
O61    O     0.21088   0.17493   0.15877   0.00000  Uiso   1.00
O62    O     0.17198   0.16135   0.33749   0.00000  Uiso   1.00
O63    O     0.19897   0.16714   0.39952   0.00000  Uiso   1.00
O64    O     0.09486   0.18311   0.08403   0.00000  Uiso   1.00
O65    O     0.17849   0.08101   0.27821   0.00000  Uiso   1.00
O66    O     0.14581   0.26136   0.26767   0.00000  Uiso   1.00
O67    O     0.07452   0.13251   0.23607   0.00000  Uiso   1.00
O68    O     0.26785   0.19179   0.21806   0.00000  Uiso   1.00
O69    O     0.06990   0.18960   0.27820   0.00000  Uiso   1.00
O70    O     0.25440   0.15277   0.26768   0.00000  Uiso   1.00
O71    O     0.13800   0.06903   0.23607   0.00000  Uiso   1.00
O72    O     0.20437   0.25527   0.21806   0.00000  Uiso   1.00
Zn73   Zn    0.19244   0.14090   0.28278   0.00000  Uiso   1.00
Zn74   Zn    0.13459   0.12378   0.22258   0.00000  Uiso   1.00
Zn75   Zn    0.21166   0.19664   0.21188   0.00000  Uiso   1.00
Zn76   Zn    0.12798   0.20535   0.28277   0.00000  Uiso   1.00
C77    C     0.38581   0.15989   0.25874   0.00000  Uiso   1.00
C78    C     0.51976   0.12104   0.46266   0.00000  Uiso   1.00
C79    C     0.54009   0.10096   0.48271   0.00000  Uiso   1.00
C80    C     0.61438   0.17357   0.24122   0.00000  Uiso   1.00
C81    C     0.53569   0.11250   0.02254   0.00000  Uiso   1.00
C82    C     0.50784   0.14293   0.04347   0.00000  Uiso   1.00
C83    C     0.55863   0.09351   0.04178   0.00000  Uiso   1.00
C84    C     0.55474   0.10474   0.08157   0.00000  Uiso   1.00
C85    C     0.50734   0.15602   0.08287   0.00000  Uiso   1.00
C86    C     0.66037   0.17638   0.23776   0.00000  Uiso   1.00
C87    C     0.34043   0.15745   0.26210   0.00000  Uiso   1.00
C88    C     0.43065   0.21358   0.42069   0.00000  Uiso   1.00
C89    C     0.51421   0.32214   0.23815   0.00000  Uiso   1.00
C90    C     0.48483   0.01208   0.26208   0.00000  Uiso   1.00
C91    C     0.48924   0.05611   0.25888   0.00000  Uiso   1.00
C92    C     0.51018   0.27767   0.24136   0.00000  Uiso   1.00
C93    C     0.52150   0.14518   0.14411   0.00000  Uiso   1.00
C94    C     0.47895   0.18789   0.35618   0.00000  Uiso   1.00
C95    C     0.46729   0.19397   0.39951   0.00000  Uiso   1.00
C96    C     0.52939   0.13619   0.10188   0.00000  Uiso   1.00
C97    C     0.41772   0.21659   0.46155   0.00000  Uiso   1.00
C98    C     0.56326   0.20177   0.40302   0.00000  Uiso   1.00
C99    C     0.49162   0.17818   0.41989   0.00000  Uiso   1.00
C100   C     0.60783   0.19061   0.37901   0.00000  Uiso   1.00
C101   C     0.39866   0.14693   0.09337   0.00000  Uiso   1.00
C102   C     0.35391   0.16010   0.11528   0.00000  Uiso   1.00
C103   C     0.65499   0.12270   0.12961   0.00000  Uiso   1.00
C104   C     0.47512   0.17565   0.46098   0.00000  Uiso   1.00
C105   C     0.43951   0.19768   0.48183   0.00000  Uiso   1.00
C106   C     0.49352   0.15289   0.48199   0.00000  Uiso   1.00
C107   C     0.48288   0.15996   0.02379   0.00000  Uiso   1.00
C108   C     0.44636   0.18174   0.04385   0.00000  Uiso   1.00
C109   C     0.42541   0.20009   0.02269   0.00000  Uiso   1.00
H110   H     0.39753   0.21621   0.03861   0.00000  Uiso   1.00
H111   H     0.38984   0.23272   0.47730   0.00000  Uiso   1.00
H112   H     0.41188   0.22659   0.40566   0.00000  Uiso   1.00
H113   H     0.52315   0.10943   0.43221   0.00000  Uiso   1.00
H114   H     0.56375   0.21007   0.43424   0.00000  Uiso   1.00
H115   H     0.55650   0.22941   0.39155   0.00000  Uiso   1.00
H116   H     0.60851   0.18291   0.34756   0.00000  Uiso   1.00
H117   H     0.63258   0.21750   0.38169   0.00000  Uiso   1.00
H118   H     0.61570   0.16325   0.38986   0.00000  Uiso   1.00
H119   H     0.40998   0.13043   0.11303   0.00000  Uiso   1.00
H120   H     0.39587   0.12401   0.06747   0.00000  Uiso   1.00
H121   H     0.57915   0.06964   0.02613   0.00000  Uiso   1.00
H122   H     0.35638   0.18300   0.14099   0.00000  Uiso   1.00
H123   H     0.34178   0.17542   0.09535   0.00000  Uiso   1.00
H124   H     0.65177   0.09943   0.10437   0.00000  Uiso   1.00
H125   H     0.62281   0.13331   0.14484   0.00000  Uiso   1.00
H126   H     0.66578   0.10772   0.15062   0.00000  Uiso   1.00
H127   H     0.35009   0.19391   0.21538   0.00000  Uiso   1.00
H128   H     0.65140   0.13969   0.28465   0.00000  Uiso   1.00
H129   H     0.54138   0.00273   0.21613   0.00000  Uiso   1.00
H130   H     0.45727   0.33225   0.28416   0.00000  Uiso   1.00
H131   H     0.49086   0.18205   0.09939   0.00000  Uiso   1.00
H132   H     0.57135   0.08892   0.09653   0.00000  Uiso   1.00
H133   H     0.56000   0.07671   0.46674   0.00000  Uiso   1.00
O134   O     0.50000   0.16667   0.25000   0.00000  Uiso   1.00
O135   O     0.49027   0.12393   0.16625   0.00000  Uiso   1.00
O136   O     0.46020   0.20646   0.33749   0.00000  Uiso   1.00
O137   O     0.54421   0.17493   0.15877   0.00000  Uiso   1.00
O138   O     0.50532   0.16135   0.33749   0.00000  Uiso   1.00
O139   O     0.53230   0.16714   0.39952   0.00000  Uiso   1.00
O140   O     0.42819   0.18311   0.08403   0.00000  Uiso   1.00
O141   O     0.51182   0.08101   0.27821   0.00000  Uiso   1.00
O142   O     0.47914   0.26136   0.26767   0.00000  Uiso   1.00
O143   O     0.40785   0.13251   0.23607   0.00000  Uiso   1.00
O144   O     0.60119   0.19179   0.21806   0.00000  Uiso   1.00
O145   O     0.40323   0.18960   0.27820   0.00000  Uiso   1.00
O146   O     0.58773   0.15277   0.26768   0.00000  Uiso   1.00
O147   O     0.47133   0.06903   0.23607   0.00000  Uiso   1.00
O148   O     0.53771   0.25527   0.21806   0.00000  Uiso   1.00
Zn149  Zn    0.52577   0.14090   0.28278   0.00000  Uiso   1.00
Zn150  Zn    0.46792   0.12378   0.22258   0.00000  Uiso   1.00
Zn151  Zn    0.54500   0.19664   0.21188   0.00000  Uiso   1.00
Zn152  Zn    0.46131   0.20535   0.28277   0.00000  Uiso   1.00
C153   C     0.71914   0.15989   0.25874   0.00000  Uiso   1.00
C154   C     0.85309   0.12104   0.46266   0.00000  Uiso   1.00
C155   C     0.87343   0.10096   0.48271   0.00000  Uiso   1.00
C156   C     0.94771   0.17357   0.24122   0.00000  Uiso   1.00
C157   C     0.86902   0.11250   0.02254   0.00000  Uiso   1.00
C158   C     0.84118   0.14293   0.04347   0.00000  Uiso   1.00
C159   C     0.89196   0.09351   0.04178   0.00000  Uiso   1.00
C160   C     0.88807   0.10474   0.08157   0.00000  Uiso   1.00
C161   C     0.84067   0.15602   0.08287   0.00000  Uiso   1.00
C162   C     0.99370   0.17638   0.23776   0.00000  Uiso   1.00
C163   C     0.67376   0.15745   0.26210   0.00000  Uiso   1.00
C164   C     0.76398   0.21358   0.42069   0.00000  Uiso   1.00
C165   C     0.84755   0.32214   0.23815   0.00000  Uiso   1.00
C166   C     0.81816   0.01208   0.26208   0.00000  Uiso   1.00
C167   C     0.82258   0.05611   0.25888   0.00000  Uiso   1.00
C168   C     0.84351   0.27767   0.24136   0.00000  Uiso   1.00
C169   C     0.85483   0.14518   0.14411   0.00000  Uiso   1.00
C170   C     0.81228   0.18789   0.35618   0.00000  Uiso   1.00
C171   C     0.80063   0.19397   0.39951   0.00000  Uiso   1.00
C172   C     0.86272   0.13619   0.10188   0.00000  Uiso   1.00
C173   C     0.75106   0.21659   0.46155   0.00000  Uiso   1.00
C174   C     0.89659   0.20177   0.40302   0.00000  Uiso   1.00
C175   C     0.82495   0.17818   0.41989   0.00000  Uiso   1.00
C176   C     0.94116   0.19061   0.37901   0.00000  Uiso   1.00
C177   C     0.73199   0.14693   0.09337   0.00000  Uiso   1.00
C178   C     0.68724   0.16010   0.11528   0.00000  Uiso   1.00
C179   C     0.98832   0.12270   0.12961   0.00000  Uiso   1.00
C180   C     0.80845   0.17565   0.46098   0.00000  Uiso   1.00
C181   C     0.77285   0.19768   0.48183   0.00000  Uiso   1.00
C182   C     0.82685   0.15289   0.48199   0.00000  Uiso   1.00
C183   C     0.81621   0.15996   0.02379   0.00000  Uiso   1.00
C184   C     0.77969   0.18174   0.04385   0.00000  Uiso   1.00
C185   C     0.75874   0.20009   0.02269   0.00000  Uiso   1.00
H186   H     0.73087   0.21621   0.03861   0.00000  Uiso   1.00
H187   H     0.72317   0.23272   0.47730   0.00000  Uiso   1.00
H188   H     0.74521   0.22659   0.40566   0.00000  Uiso   1.00
H189   H     0.85649   0.10943   0.43221   0.00000  Uiso   1.00
H190   H     0.89708   0.21007   0.43424   0.00000  Uiso   1.00
H191   H     0.88984   0.22941   0.39155   0.00000  Uiso   1.00
H192   H     0.94184   0.18291   0.34756   0.00000  Uiso   1.00
H193   H     0.96592   0.21750   0.38169   0.00000  Uiso   1.00
H194   H     0.94903   0.16325   0.38986   0.00000  Uiso   1.00
H195   H     0.74331   0.13043   0.11303   0.00000  Uiso   1.00
H196   H     0.72920   0.12401   0.06747   0.00000  Uiso   1.00
H197   H     0.91249   0.06964   0.02613   0.00000  Uiso   1.00
H198   H     0.68972   0.18300   0.14099   0.00000  Uiso   1.00
H199   H     0.67511   0.17542   0.09535   0.00000  Uiso   1.00
H200   H     0.98511   0.09943   0.10437   0.00000  Uiso   1.00
H201   H     0.95614   0.13331   0.14484   0.00000  Uiso   1.00
H202   H     0.99911   0.10772   0.15062   0.00000  Uiso   1.00
H203   H     0.68343   0.19391   0.21538   0.00000  Uiso   1.00
H204   H     0.98473   0.13969   0.28465   0.00000  Uiso   1.00
H205   H     0.87471   0.00273   0.21613   0.00000  Uiso   1.00
H206   H     0.79061   0.33225   0.28416   0.00000  Uiso   1.00
H207   H     0.82419   0.18205   0.09939   0.00000  Uiso   1.00
H208   H     0.90469   0.08892   0.09653   0.00000  Uiso   1.00
H209   H     0.89333   0.07671   0.46674   0.00000  Uiso   1.00
O210   O     0.83333   0.16667   0.25000   0.00000  Uiso   1.00
O211   O     0.82360   0.12393   0.16625   0.00000  Uiso   1.00
O212   O     0.79354   0.20646   0.33749   0.00000  Uiso   1.00
O213   O     0.87755   0.17493   0.15877   0.00000  Uiso   1.00
O214   O     0.83865   0.16135   0.33749   0.00000  Uiso   1.00
O215   O     0.86564   0.16714   0.39952   0.00000  Uiso   1.00
O216   O     0.76153   0.18311   0.08403   0.00000  Uiso   1.00
O217   O     0.84515   0.08101   0.27821   0.00000  Uiso   1.00
O218   O     0.81247   0.26136   0.26767   0.00000  Uiso   1.00
O219   O     0.74119   0.13251   0.23607   0.00000  Uiso   1.00
O220   O     0.93452   0.19179   0.21806   0.00000  Uiso   1.00
O221   O     0.73656   0.18960   0.27820   0.00000  Uiso   1.00
O222   O     0.92106   0.15277   0.26768   0.00000  Uiso   1.00
O223   O     0.80467   0.06903   0.23607   0.00000  Uiso   1.00
O224   O     0.87104   0.25527   0.21806   0.00000  Uiso   1.00
Zn225  Zn    0.85910   0.14090   0.28278   0.00000  Uiso   1.00
Zn226  Zn    0.80125   0.12378   0.22258   0.00000  Uiso   1.00
Zn227  Zn    0.87833   0.19664   0.21188   0.00000  Uiso   1.00
Zn228  Zn    0.79465   0.20535   0.28277   0.00000  Uiso   1.00
C229   C     0.05248   0.49323   0.25874   0.00000  Uiso   1.00
C230   C     0.18642   0.45438   0.46266   0.00000  Uiso   1.00
C231   C     0.20676   0.43429   0.48271   0.00000  Uiso   1.00
C232   C     0.28105   0.50691   0.24122   0.00000  Uiso   1.00
C233   C     0.20236   0.44583   0.02254   0.00000  Uiso   1.00
C234   C     0.17451   0.47627   0.04347   0.00000  Uiso   1.00
C235   C     0.22530   0.42685   0.04178   0.00000  Uiso   1.00
C236   C     0.22141   0.43808   0.08157   0.00000  Uiso   1.00
C237   C     0.17401   0.48935   0.08287   0.00000  Uiso   1.00
C238   C     0.32703   0.50971   0.23776   0.00000  Uiso   1.00
C239   C     0.00709   0.49078   0.26210   0.00000  Uiso   1.00
C240   C     0.09732   0.54691   0.42069   0.00000  Uiso   1.00
C241   C     0.18088   0.65547   0.23815   0.00000  Uiso   1.00
C242   C     0.15149   0.34541   0.26208   0.00000  Uiso   1.00
C243   C     0.15591   0.38944   0.25888   0.00000  Uiso   1.00
C244   C     0.17684   0.61100   0.24136   0.00000  Uiso   1.00
C245   C     0.18817   0.47851   0.14411   0.00000  Uiso   1.00
C246   C     0.14561   0.52122   0.35618   0.00000  Uiso   1.00
C247   C     0.13396   0.52731   0.39951   0.00000  Uiso   1.00
C248   C     0.19606   0.46953   0.10188   0.00000  Uiso   1.00
C249   C     0.08439   0.54992   0.46155   0.00000  Uiso   1.00
C250   C     0.22992   0.53510   0.40302   0.00000  Uiso   1.00
C251   C     0.15829   0.51151   0.41989   0.00000  Uiso   1.00
C252   C     0.27449   0.52395   0.37901   0.00000  Uiso   1.00
C253   C     0.06532   0.48026   0.09337   0.00000  Uiso   1.00
C254   C     0.02057   0.49343   0.11528   0.00000  Uiso   1.00
C255   C     0.32166   0.45603   0.12961   0.00000  Uiso   1.00
C256   C     0.14178   0.50898   0.46098   0.00000  Uiso   1.00
C257   C     0.10618   0.53102   0.48183   0.00000  Uiso   1.00
C258   C     0.16019   0.48622   0.48199   0.00000  Uiso   1.00
C259   C     0.14955   0.49329   0.02379   0.00000  Uiso   1.00
C260   C     0.11303   0.51508   0.04385   0.00000  Uiso   1.00
C261   C     0.09207   0.53343   0.02269   0.00000  Uiso   1.00
H262   H     0.06420   0.54954   0.03861   0.00000  Uiso   1.00
H263   H     0.05650   0.56605   0.47730   0.00000  Uiso   1.00
H264   H     0.07855   0.55992   0.40566   0.00000  Uiso   1.00
H265   H     0.18982   0.44277   0.43221   0.00000  Uiso   1.00
H266   H     0.23041   0.54340   0.43424   0.00000  Uiso   1.00
H267   H     0.22317   0.56275   0.39155   0.00000  Uiso   1.00
H268   H     0.27518   0.51624   0.34756   0.00000  Uiso   1.00
H269   H     0.29925   0.55083   0.38169   0.00000  Uiso   1.00
H270   H     0.28237   0.49659   0.38986   0.00000  Uiso   1.00
H271   H     0.07664   0.46377   0.11303   0.00000  Uiso   1.00
H272   H     0.06254   0.45734   0.06747   0.00000  Uiso   1.00
H273   H     0.24582   0.40297   0.02613   0.00000  Uiso   1.00
H274   H     0.02305   0.51633   0.14099   0.00000  Uiso   1.00
H275   H     0.00844   0.50875   0.09535   0.00000  Uiso   1.00
H276   H     0.31844   0.43276   0.10437   0.00000  Uiso   1.00
H277   H     0.28948   0.46664   0.14484   0.00000  Uiso   1.00
H278   H     0.33245   0.44105   0.15062   0.00000  Uiso   1.00
H279   H     0.01676   0.52725   0.21538   0.00000  Uiso   1.00
H280   H     0.31807   0.47302   0.28465   0.00000  Uiso   1.00
H281   H     0.20804   0.33606   0.21613   0.00000  Uiso   1.00
H282   H     0.12394   0.66559   0.28416   0.00000  Uiso   1.00
H283   H     0.15752   0.51539   0.09939   0.00000  Uiso   1.00
H284   H     0.23802   0.42225   0.09653   0.00000  Uiso   1.00
H285   H     0.22666   0.41005   0.46674   0.00000  Uiso   1.00
O286   O     0.16667   0.50000   0.25000   0.00000  Uiso   1.00
O287   O     0.15693   0.45726   0.16625   0.00000  Uiso   1.00
O288   O     0.12687   0.53979   0.33749   0.00000  Uiso   1.00
O289   O     0.21088   0.50826   0.15877   0.00000  Uiso   1.00
O290   O     0.17198   0.49468   0.33749   0.00000  Uiso   1.00
O291   O     0.19897   0.50047   0.39952   0.00000  Uiso   1.00
O292   O     0.09486   0.51645   0.08403   0.00000  Uiso   1.00
O293   O     0.17849   0.41434   0.27821   0.00000  Uiso   1.00
O294   O     0.14581   0.59469   0.26767   0.00000  Uiso   1.00
O295   O     0.07452   0.46584   0.23607   0.00000  Uiso   1.00
O296   O     0.26785   0.52512   0.21806   0.00000  Uiso   1.00
O297   O     0.06990   0.52293   0.27820   0.00000  Uiso   1.00
O298   O     0.25440   0.48610   0.26768   0.00000  Uiso   1.00
O299   O     0.13800   0.40236   0.23607   0.00000  Uiso   1.00
O300   O     0.20437   0.58860   0.21806   0.00000  Uiso   1.00
Zn301  Zn    0.19244   0.47423   0.28278   0.00000  Uiso   1.00
Zn302  Zn    0.13459   0.45711   0.22258   0.00000  Uiso   1.00
Zn303  Zn    0.21166   0.52997   0.21188   0.00000  Uiso   1.00
Zn304  Zn    0.12798   0.53868   0.28277   0.00000  Uiso   1.00
C305   C     0.38581   0.49323   0.25874   0.00000  Uiso   1.00
C306   C     0.51976   0.45438   0.46266   0.00000  Uiso   1.00
C307   C     0.54009   0.43429   0.48271   0.00000  Uiso   1.00
C308   C     0.61438   0.50691   0.24122   0.00000  Uiso   1.00
C309   C     0.53569   0.44583   0.02254   0.00000  Uiso   1.00
C310   C     0.50784   0.47627   0.04347   0.00000  Uiso   1.00
C311   C     0.55863   0.42685   0.04178   0.00000  Uiso   1.00
C312   C     0.55474   0.43808   0.08157   0.00000  Uiso   1.00
C313   C     0.50734   0.48935   0.08287   0.00000  Uiso   1.00
C314   C     0.66037   0.50971   0.23776   0.00000  Uiso   1.00
C315   C     0.34043   0.49078   0.26210   0.00000  Uiso   1.00
C316   C     0.43065   0.54691   0.42069   0.00000  Uiso   1.00
C317   C     0.51421   0.65547   0.23815   0.00000  Uiso   1.00
C318   C     0.48483   0.34541   0.26208   0.00000  Uiso   1.00
C319   C     0.48924   0.38944   0.25888   0.00000  Uiso   1.00
C320   C     0.51018   0.61100   0.24136   0.00000  Uiso   1.00
C321   C     0.52150   0.47851   0.14411   0.00000  Uiso   1.00
C322   C     0.47895   0.52122   0.35618   0.00000  Uiso   1.00
C323   C     0.46729   0.52731   0.39951   0.00000  Uiso   1.00
C324   C     0.52939   0.46953   0.10188   0.00000  Uiso   1.00
C325   C     0.41772   0.54992   0.46155   0.00000  Uiso   1.00
C326   C     0.56326   0.53510   0.40302   0.00000  Uiso   1.00
C327   C     0.49162   0.51151   0.41989   0.00000  Uiso   1.00
C328   C     0.60783   0.52395   0.37901   0.00000  Uiso   1.00
C329   C     0.39866   0.48026   0.09337   0.00000  Uiso   1.00
C330   C     0.35391   0.49343   0.11528   0.00000  Uiso   1.00
C331   C     0.65499   0.45603   0.12961   0.00000  Uiso   1.00
C332   C     0.47512   0.50898   0.46098   0.00000  Uiso   1.00
C333   C     0.43951   0.53102   0.48183   0.00000  Uiso   1.00
C334   C     0.49352   0.48622   0.48199   0.00000  Uiso   1.00
C335   C     0.48288   0.49329   0.02379   0.00000  Uiso   1.00
C336   C     0.44636   0.51508   0.04385   0.00000  Uiso   1.00
C337   C     0.42541   0.53343   0.02269   0.00000  Uiso   1.00
H338   H     0.39753   0.54954   0.03861   0.00000  Uiso   1.00
H339   H     0.38984   0.56605   0.47730   0.00000  Uiso   1.00
H340   H     0.41188   0.55992   0.40566   0.00000  Uiso   1.00
H341   H     0.52315   0.44277   0.43221   0.00000  Uiso   1.00
H342   H     0.56375   0.54340   0.43424   0.00000  Uiso   1.00
H343   H     0.55650   0.56275   0.39155   0.00000  Uiso   1.00
H344   H     0.60851   0.51624   0.34756   0.00000  Uiso   1.00
H345   H     0.63258   0.55083   0.38169   0.00000  Uiso   1.00
H346   H     0.61570   0.49659   0.38986   0.00000  Uiso   1.00
H347   H     0.40998   0.46377   0.11303   0.00000  Uiso   1.00
H348   H     0.39587   0.45734   0.06747   0.00000  Uiso   1.00
H349   H     0.57915   0.40297   0.02613   0.00000  Uiso   1.00
H350   H     0.35638   0.51633   0.14099   0.00000  Uiso   1.00
H351   H     0.34178   0.50875   0.09535   0.00000  Uiso   1.00
H352   H     0.65177   0.43276   0.10437   0.00000  Uiso   1.00
H353   H     0.62281   0.46664   0.14484   0.00000  Uiso   1.00
H354   H     0.66578   0.44105   0.15062   0.00000  Uiso   1.00
H355   H     0.35009   0.52725   0.21538   0.00000  Uiso   1.00
H356   H     0.65140   0.47302   0.28465   0.00000  Uiso   1.00
H357   H     0.54138   0.33606   0.21613   0.00000  Uiso   1.00
H358   H     0.45727   0.66559   0.28416   0.00000  Uiso   1.00
H359   H     0.49086   0.51539   0.09939   0.00000  Uiso   1.00
H360   H     0.57135   0.42225   0.09653   0.00000  Uiso   1.00
H361   H     0.56000   0.41005   0.46674   0.00000  Uiso   1.00
O362   O     0.50000   0.50000   0.25000   0.00000  Uiso   1.00
O363   O     0.49027   0.45726   0.16625   0.00000  Uiso   1.00
O364   O     0.46020   0.53979   0.33749   0.00000  Uiso   1.00
O365   O     0.54421   0.50826   0.15877   0.00000  Uiso   1.00
O366   O     0.50532   0.49468   0.33749   0.00000  Uiso   1.00
O367   O     0.53230   0.50047   0.39952   0.00000  Uiso   1.00
O368   O     0.42819   0.51645   0.08403   0.00000  Uiso   1.00
O369   O     0.51182   0.41434   0.27821   0.00000  Uiso   1.00
O370   O     0.47914   0.59469   0.26767   0.00000  Uiso   1.00
O371   O     0.40785   0.46584   0.23607   0.00000  Uiso   1.00
O372   O     0.60119   0.52512   0.21806   0.00000  Uiso   1.00
O373   O     0.40323   0.52293   0.27820   0.00000  Uiso   1.00
O374   O     0.58773   0.48610   0.26768   0.00000  Uiso   1.00
O375   O     0.47133   0.40236   0.23607   0.00000  Uiso   1.00
O376   O     0.53771   0.58860   0.21806   0.00000  Uiso   1.00
Zn377  Zn    0.52577   0.47423   0.28278   0.00000  Uiso   1.00
Zn378  Zn    0.46792   0.45711   0.22258   0.00000  Uiso   1.00
Zn379  Zn    0.54500   0.52997   0.21188   0.00000  Uiso   1.00
Zn380  Zn    0.46131   0.53868   0.28277   0.00000  Uiso   1.00
C381   C     0.71914   0.49323   0.25874   0.00000  Uiso   1.00
C382   C     0.85309   0.45438   0.46266   0.00000  Uiso   1.00
C383   C     0.87343   0.43429   0.48271   0.00000  Uiso   1.00
C384   C     0.94771   0.50691   0.24122   0.00000  Uiso   1.00
C385   C     0.86902   0.44583   0.02254   0.00000  Uiso   1.00
C386   C     0.84118   0.47627   0.04347   0.00000  Uiso   1.00
C387   C     0.89196   0.42685   0.04178   0.00000  Uiso   1.00
C388   C     0.88807   0.43808   0.08157   0.00000  Uiso   1.00
C389   C     0.84067   0.48935   0.08287   0.00000  Uiso   1.00
C390   C     0.99370   0.50971   0.23776   0.00000  Uiso   1.00
C391   C     0.67376   0.49078   0.26210   0.00000  Uiso   1.00
C392   C     0.76398   0.54691   0.42069   0.00000  Uiso   1.00
C393   C     0.84755   0.65547   0.23815   0.00000  Uiso   1.00
C394   C     0.81816   0.34541   0.26208   0.00000  Uiso   1.00
C395   C     0.82258   0.38944   0.25888   0.00000  Uiso   1.00
C396   C     0.84351   0.61100   0.24136   0.00000  Uiso   1.00
C397   C     0.85483   0.47851   0.14411   0.00000  Uiso   1.00
C398   C     0.81228   0.52122   0.35618   0.00000  Uiso   1.00
C399   C     0.80063   0.52731   0.39951   0.00000  Uiso   1.00
C400   C     0.86272   0.46953   0.10188   0.00000  Uiso   1.00
C401   C     0.75106   0.54992   0.46155   0.00000  Uiso   1.00
C402   C     0.89659   0.53510   0.40302   0.00000  Uiso   1.00
C403   C     0.82495   0.51151   0.41989   0.00000  Uiso   1.00
C404   C     0.94116   0.52395   0.37901   0.00000  Uiso   1.00
C405   C     0.73199   0.48026   0.09337   0.00000  Uiso   1.00
C406   C     0.68724   0.49343   0.11528   0.00000  Uiso   1.00
C407   C     0.98832   0.45603   0.12961   0.00000  Uiso   1.00
C408   C     0.80845   0.50898   0.46098   0.00000  Uiso   1.00
C409   C     0.77285   0.53102   0.48183   0.00000  Uiso   1.00
C410   C     0.82685   0.48622   0.48199   0.00000  Uiso   1.00
C411   C     0.81621   0.49329   0.02379   0.00000  Uiso   1.00
C412   C     0.77969   0.51508   0.04385   0.00000  Uiso   1.00
C413   C     0.75874   0.53343   0.02269   0.00000  Uiso   1.00
H414   H     0.73087   0.54954   0.03861   0.00000  Uiso   1.00
H415   H     0.72317   0.56605   0.47730   0.00000  Uiso   1.00
H416   H     0.74521   0.55992   0.40566   0.00000  Uiso   1.00
H417   H     0.85649   0.44277   0.43221   0.00000  Uiso   1.00
H418   H     0.89708   0.54340   0.43424   0.00000  Uiso   1.00
H419   H     0.88984   0.56275   0.39155   0.00000  Uiso   1.00
H420   H     0.94184   0.51624   0.34756   0.00000  Uiso   1.00
H421   H     0.96592   0.55083   0.38169   0.00000  Uiso   1.00
H422   H     0.94903   0.49659   0.38986   0.00000  Uiso   1.00
H423   H     0.74331   0.46377   0.11303   0.00000  Uiso   1.00
H424   H     0.72920   0.45734   0.06747   0.00000  Uiso   1.00
H425   H     0.91249   0.40297   0.02613   0.00000  Uiso   1.00
H426   H     0.68972   0.51633   0.14099   0.00000  Uiso   1.00
H427   H     0.67511   0.50875   0.09535   0.00000  Uiso   1.00
H428   H     0.98511   0.43276   0.10437   0.00000  Uiso   1.00
H429   H     0.95614   0.46664   0.14484   0.00000  Uiso   1.00
H430   H     0.99911   0.44105   0.15062   0.00000  Uiso   1.00
H431   H     0.68343   0.52725   0.21538   0.00000  Uiso   1.00
H432   H     0.98473   0.47302   0.28465   0.00000  Uiso   1.00
H433   H     0.87471   0.33606   0.21613   0.00000  Uiso   1.00
H434   H     0.79061   0.66559   0.28416   0.00000  Uiso   1.00
H435   H     0.82419   0.51539   0.09939   0.00000  Uiso   1.00
H436   H     0.90469   0.42225   0.09653   0.00000  Uiso   1.00
H437   H     0.89333   0.41005   0.46674   0.00000  Uiso   1.00
O438   O     0.83333   0.50000   0.25000   0.00000  Uiso   1.00
O439   O     0.82360   0.45726   0.16625   0.00000  Uiso   1.00
O440   O     0.79354   0.53979   0.33749   0.00000  Uiso   1.00
O441   O     0.87755   0.50826   0.15877   0.00000  Uiso   1.00
O442   O     0.83865   0.49468   0.33749   0.00000  Uiso   1.00
O443   O     0.86564   0.50047   0.39952   0.00000  Uiso   1.00
O444   O     0.76153   0.51645   0.08403   0.00000  Uiso   1.00
O445   O     0.84515   0.41434   0.27821   0.00000  Uiso   1.00
O446   O     0.81247   0.59469   0.26767   0.00000  Uiso   1.00
O447   O     0.74119   0.46584   0.23607   0.00000  Uiso   1.00
O448   O     0.93452   0.52512   0.21806   0.00000  Uiso   1.00
O449   O     0.73656   0.52293   0.27820   0.00000  Uiso   1.00
O450   O     0.92106   0.48610   0.26768   0.00000  Uiso   1.00
O451   O     0.80467   0.40236   0.23607   0.00000  Uiso   1.00
O452   O     0.87104   0.58860   0.21806   0.00000  Uiso   1.00
Zn453  Zn    0.85910   0.47423   0.28278   0.00000  Uiso   1.00
Zn454  Zn    0.80125   0.45711   0.22258   0.00000  Uiso   1.00
Zn455  Zn    0.87833   0.52997   0.21188   0.00000  Uiso   1.00
Zn456  Zn    0.79465   0.53868   0.28277   0.00000  Uiso   1.00
C457   C     0.05248   0.82656   0.25874   0.00000  Uiso   1.00
C458   C     0.18642   0.78771   0.46266   0.00000  Uiso   1.00
C459   C     0.20676   0.76763   0.48271   0.00000  Uiso   1.00
C460   C     0.28105   0.84024   0.24122   0.00000  Uiso   1.00
C461   C     0.20236   0.77917   0.02254   0.00000  Uiso   1.00
C462   C     0.17451   0.80960   0.04347   0.00000  Uiso   1.00
C463   C     0.22530   0.76018   0.04178   0.00000  Uiso   1.00
C464   C     0.22141   0.77141   0.08157   0.00000  Uiso   1.00
C465   C     0.17401   0.82269   0.08287   0.00000  Uiso   1.00
C466   C     0.32703   0.84304   0.23776   0.00000  Uiso   1.00
C467   C     0.00709   0.82411   0.26210   0.00000  Uiso   1.00
C468   C     0.09732   0.88024   0.42069   0.00000  Uiso   1.00
C469   C     0.18088   0.98881   0.23815   0.00000  Uiso   1.00
C470   C     0.15149   0.67875   0.26208   0.00000  Uiso   1.00
C471   C     0.15591   0.72277   0.25888   0.00000  Uiso   1.00
C472   C     0.17684   0.94433   0.24136   0.00000  Uiso   1.00
C473   C     0.18817   0.81184   0.14411   0.00000  Uiso   1.00
C474   C     0.14561   0.85455   0.35618   0.00000  Uiso   1.00
C475   C     0.13396   0.86064   0.39951   0.00000  Uiso   1.00
C476   C     0.19606   0.80286   0.10188   0.00000  Uiso   1.00
C477   C     0.08439   0.88325   0.46155   0.00000  Uiso   1.00
C478   C     0.22992   0.86843   0.40302   0.00000  Uiso   1.00
C479   C     0.15829   0.84484   0.41989   0.00000  Uiso   1.00
C480   C     0.27449   0.85728   0.37901   0.00000  Uiso   1.00
C481   C     0.06532   0.81359   0.09337   0.00000  Uiso   1.00
C482   C     0.02057   0.82676   0.11528   0.00000  Uiso   1.00
C483   C     0.32166   0.78937   0.12961   0.00000  Uiso   1.00
C484   C     0.14178   0.84232   0.46098   0.00000  Uiso   1.00
C485   C     0.10618   0.86435   0.48183   0.00000  Uiso   1.00
C486   C     0.16019   0.81955   0.48199   0.00000  Uiso   1.00
C487   C     0.14955   0.82663   0.02379   0.00000  Uiso   1.00
C488   C     0.11303   0.84841   0.04385   0.00000  Uiso   1.00
C489   C     0.09207   0.86676   0.02269   0.00000  Uiso   1.00
H490   H     0.06420   0.88287   0.03861   0.00000  Uiso   1.00
H491   H     0.05650   0.89938   0.47730   0.00000  Uiso   1.00
H492   H     0.07855   0.89325   0.40566   0.00000  Uiso   1.00
H493   H     0.18982   0.77610   0.43221   0.00000  Uiso   1.00
H494   H     0.23041   0.87673   0.43424   0.00000  Uiso   1.00
H495   H     0.22317   0.89608   0.39155   0.00000  Uiso   1.00
H496   H     0.27518   0.84957   0.34756   0.00000  Uiso   1.00
H497   H     0.29925   0.88416   0.38169   0.00000  Uiso   1.00
H498   H     0.28237   0.82992   0.38986   0.00000  Uiso   1.00
H499   H     0.07664   0.79710   0.11303   0.00000  Uiso   1.00
H500   H     0.06254   0.79068   0.06747   0.00000  Uiso   1.00
H501   H     0.24582   0.73630   0.02613   0.00000  Uiso   1.00
H502   H     0.02305   0.84967   0.14099   0.00000  Uiso   1.00
H503   H     0.00844   0.84209   0.09535   0.00000  Uiso   1.00
H504   H     0.31844   0.76609   0.10437   0.00000  Uiso   1.00
H505   H     0.28948   0.79997   0.14484   0.00000  Uiso   1.00
H506   H     0.33245   0.77439   0.15062   0.00000  Uiso   1.00
H507   H     0.01676   0.86058   0.21538   0.00000  Uiso   1.00
H508   H     0.31807   0.80636   0.28465   0.00000  Uiso   1.00
H509   H     0.20804   0.66940   0.21613   0.00000  Uiso   1.00
H510   H     0.12394   0.99892   0.28416   0.00000  Uiso   1.00
H511   H     0.15752   0.84872   0.09939   0.00000  Uiso   1.00
H512   H     0.23802   0.75558   0.09653   0.00000  Uiso   1.00
H513   H     0.22666   0.74338   0.46674   0.00000  Uiso   1.00
O514   O     0.16667   0.83333   0.25000   0.00000  Uiso   1.00
O515   O     0.15693   0.79060   0.16625   0.00000  Uiso   1.00
O516   O     0.12687   0.87313   0.33749   0.00000  Uiso   1.00
O517   O     0.21088   0.84159   0.15877   0.00000  Uiso   1.00
O518   O     0.17198   0.82802   0.33749   0.00000  Uiso   1.00
O519   O     0.19897   0.83380   0.39952   0.00000  Uiso   1.00
O520   O     0.09486   0.84978   0.08403   0.00000  Uiso   1.00
O521   O     0.17849   0.74768   0.27821   0.00000  Uiso   1.00
O522   O     0.14581   0.92803   0.26767   0.00000  Uiso   1.00
O523   O     0.07452   0.79917   0.23607   0.00000  Uiso   1.00
O524   O     0.26785   0.85845   0.21806   0.00000  Uiso   1.00
O525   O     0.06990   0.85627   0.27820   0.00000  Uiso   1.00
O526   O     0.25440   0.81944   0.26768   0.00000  Uiso   1.00
O527   O     0.13800   0.73570   0.23607   0.00000  Uiso   1.00
O528   O     0.20437   0.92193   0.21806   0.00000  Uiso   1.00
Zn529  Zn    0.19244   0.80756   0.28278   0.00000  Uiso   1.00
Zn530  Zn    0.13459   0.79044   0.22258   0.00000  Uiso   1.00
Zn531  Zn    0.21166   0.86331   0.21188   0.00000  Uiso   1.00
Zn532  Zn    0.12798   0.87202   0.28277   0.00000  Uiso   1.00
C533   C     0.38581   0.82656   0.25874   0.00000  Uiso   1.00
C534   C     0.51976   0.78771   0.46266   0.00000  Uiso   1.00
C535   C     0.54009   0.76763   0.48271   0.00000  Uiso   1.00
C536   C     0.61438   0.84024   0.24122   0.00000  Uiso   1.00
C537   C     0.53569   0.77917   0.02254   0.00000  Uiso   1.00
C538   C     0.50784   0.80960   0.04347   0.00000  Uiso   1.00
C539   C     0.55863   0.76018   0.04178   0.00000  Uiso   1.00
C540   C     0.55474   0.77141   0.08157   0.00000  Uiso   1.00
C541   C     0.50734   0.82269   0.08287   0.00000  Uiso   1.00
C542   C     0.66037   0.84304   0.23776   0.00000  Uiso   1.00
C543   C     0.34043   0.82411   0.26210   0.00000  Uiso   1.00
C544   C     0.43065   0.88024   0.42069   0.00000  Uiso   1.00
C545   C     0.51421   0.98881   0.23815   0.00000  Uiso   1.00
C546   C     0.48483   0.67875   0.26208   0.00000  Uiso   1.00
C547   C     0.48924   0.72277   0.25888   0.00000  Uiso   1.00
C548   C     0.51018   0.94433   0.24136   0.00000  Uiso   1.00
C549   C     0.52150   0.81184   0.14411   0.00000  Uiso   1.00
C550   C     0.47895   0.85455   0.35618   0.00000  Uiso   1.00
C551   C     0.46729   0.86064   0.39951   0.00000  Uiso   1.00
C552   C     0.52939   0.80286   0.10188   0.00000  Uiso   1.00
C553   C     0.41772   0.88325   0.46155   0.00000  Uiso   1.00
C554   C     0.56326   0.86843   0.40302   0.00000  Uiso   1.00
C555   C     0.49162   0.84484   0.41989   0.00000  Uiso   1.00
C556   C     0.60783   0.85728   0.37901   0.00000  Uiso   1.00
C557   C     0.39866   0.81359   0.09337   0.00000  Uiso   1.00
C558   C     0.35391   0.82676   0.11528   0.00000  Uiso   1.00
C559   C     0.65499   0.78937   0.12961   0.00000  Uiso   1.00
C560   C     0.47512   0.84232   0.46098   0.00000  Uiso   1.00
C561   C     0.43951   0.86435   0.48183   0.00000  Uiso   1.00
C562   C     0.49352   0.81955   0.48199   0.00000  Uiso   1.00
C563   C     0.48288   0.82663   0.02379   0.00000  Uiso   1.00
C564   C     0.44636   0.84841   0.04385   0.00000  Uiso   1.00
C565   C     0.42541   0.86676   0.02269   0.00000  Uiso   1.00
H566   H     0.39753   0.88287   0.03861   0.00000  Uiso   1.00
H567   H     0.38984   0.89938   0.47730   0.00000  Uiso   1.00
H568   H     0.41188   0.89325   0.40566   0.00000  Uiso   1.00
H569   H     0.52315   0.77610   0.43221   0.00000  Uiso   1.00
H570   H     0.56375   0.87673   0.43424   0.00000  Uiso   1.00
H571   H     0.55650   0.89608   0.39155   0.00000  Uiso   1.00
H572   H     0.60851   0.84957   0.34756   0.00000  Uiso   1.00
H573   H     0.63258   0.88416   0.38169   0.00000  Uiso   1.00
H574   H     0.61570   0.82992   0.38986   0.00000  Uiso   1.00
H575   H     0.40998   0.79710   0.11303   0.00000  Uiso   1.00
H576   H     0.39587   0.79068   0.06747   0.00000  Uiso   1.00
H577   H     0.57915   0.73630   0.02613   0.00000  Uiso   1.00
H578   H     0.35638   0.84967   0.14099   0.00000  Uiso   1.00
H579   H     0.34178   0.84209   0.09535   0.00000  Uiso   1.00
H580   H     0.65177   0.76609   0.10437   0.00000  Uiso   1.00
H581   H     0.62281   0.79997   0.14484   0.00000  Uiso   1.00
H582   H     0.66578   0.77439   0.15062   0.00000  Uiso   1.00
H583   H     0.35009   0.86058   0.21538   0.00000  Uiso   1.00
H584   H     0.65140   0.80636   0.28465   0.00000  Uiso   1.00
H585   H     0.54138   0.66940   0.21613   0.00000  Uiso   1.00
H586   H     0.45727   0.99892   0.28416   0.00000  Uiso   1.00
H587   H     0.49086   0.84872   0.09939   0.00000  Uiso   1.00
H588   H     0.57135   0.75558   0.09653   0.00000  Uiso   1.00
H589   H     0.56000   0.74338   0.46674   0.00000  Uiso   1.00
O590   O     0.50000   0.83333   0.25000   0.00000  Uiso   1.00
O591   O     0.49027   0.79060   0.16625   0.00000  Uiso   1.00
O592   O     0.46020   0.87313   0.33749   0.00000  Uiso   1.00
O593   O     0.54421   0.84159   0.15877   0.00000  Uiso   1.00
O594   O     0.50532   0.82802   0.33749   0.00000  Uiso   1.00
O595   O     0.53230   0.83380   0.39952   0.00000  Uiso   1.00
O596   O     0.42819   0.84978   0.08403   0.00000  Uiso   1.00
O597   O     0.51182   0.74768   0.27821   0.00000  Uiso   1.00
O598   O     0.47914   0.92803   0.26767   0.00000  Uiso   1.00
O599   O     0.40785   0.79917   0.23607   0.00000  Uiso   1.00
O600   O     0.60119   0.85845   0.21806   0.00000  Uiso   1.00
O601   O     0.40323   0.85627   0.27820   0.00000  Uiso   1.00
O602   O     0.58773   0.81944   0.26768   0.00000  Uiso   1.00
O603   O     0.47133   0.73570   0.23607   0.00000  Uiso   1.00
O604   O     0.53771   0.92193   0.21806   0.00000  Uiso   1.00
Zn605  Zn    0.52577   0.80756   0.28278   0.00000  Uiso   1.00
Zn606  Zn    0.46792   0.79044   0.22258   0.00000  Uiso   1.00
Zn607  Zn    0.54500   0.86331   0.21188   0.00000  Uiso   1.00
Zn608  Zn    0.46131   0.87202   0.28277   0.00000  Uiso   1.00
C609   C     0.71914   0.82656   0.25874   0.00000  Uiso   1.00
C610   C     0.85309   0.78771   0.46266   0.00000  Uiso   1.00
C611   C     0.87343   0.76763   0.48271   0.00000  Uiso   1.00
C612   C     0.94771   0.84024   0.24122   0.00000  Uiso   1.00
C613   C     0.86902   0.77917   0.02254   0.00000  Uiso   1.00
C614   C     0.84118   0.80960   0.04347   0.00000  Uiso   1.00
C615   C     0.89196   0.76018   0.04178   0.00000  Uiso   1.00
C616   C     0.88807   0.77141   0.08157   0.00000  Uiso   1.00
C617   C     0.84067   0.82269   0.08287   0.00000  Uiso   1.00
C618   C     0.99370   0.84304   0.23776   0.00000  Uiso   1.00
C619   C     0.67376   0.82411   0.26210   0.00000  Uiso   1.00
C620   C     0.76398   0.88024   0.42069   0.00000  Uiso   1.00
C621   C     0.84755   0.98881   0.23815   0.00000  Uiso   1.00
C622   C     0.81816   0.67875   0.26208   0.00000  Uiso   1.00
C623   C     0.82258   0.72277   0.25888   0.00000  Uiso   1.00
C624   C     0.84351   0.94433   0.24136   0.00000  Uiso   1.00
C625   C     0.85483   0.81184   0.14411   0.00000  Uiso   1.00
C626   C     0.81228   0.85455   0.35618   0.00000  Uiso   1.00
C627   C     0.80063   0.86064   0.39951   0.00000  Uiso   1.00
C628   C     0.86272   0.80286   0.10188   0.00000  Uiso   1.00
C629   C     0.75106   0.88325   0.46155   0.00000  Uiso   1.00
C630   C     0.89659   0.86843   0.40302   0.00000  Uiso   1.00
C631   C     0.82495   0.84484   0.41989   0.00000  Uiso   1.00
C632   C     0.94116   0.85728   0.37901   0.00000  Uiso   1.00
C633   C     0.73199   0.81359   0.09337   0.00000  Uiso   1.00
C634   C     0.68724   0.82676   0.11528   0.00000  Uiso   1.00
C635   C     0.98832   0.78937   0.12961   0.00000  Uiso   1.00
C636   C     0.80845   0.84232   0.46098   0.00000  Uiso   1.00
C637   C     0.77285   0.86435   0.48183   0.00000  Uiso   1.00
C638   C     0.82685   0.81955   0.48199   0.00000  Uiso   1.00
C639   C     0.81621   0.82663   0.02379   0.00000  Uiso   1.00
C640   C     0.77969   0.84841   0.04385   0.00000  Uiso   1.00
C641   C     0.75874   0.86676   0.02269   0.00000  Uiso   1.00
H642   H     0.73087   0.88287   0.03861   0.00000  Uiso   1.00
H643   H     0.72317   0.89938   0.47730   0.00000  Uiso   1.00
H644   H     0.74521   0.89325   0.40566   0.00000  Uiso   1.00
H645   H     0.85649   0.77610   0.43221   0.00000  Uiso   1.00
H646   H     0.89708   0.87673   0.43424   0.00000  Uiso   1.00
H647   H     0.88984   0.89608   0.39155   0.00000  Uiso   1.00
H648   H     0.94184   0.84957   0.34756   0.00000  Uiso   1.00
H649   H     0.96592   0.88416   0.38169   0.00000  Uiso   1.00
H650   H     0.94903   0.82992   0.38986   0.00000  Uiso   1.00
H651   H     0.74331   0.79710   0.11303   0.00000  Uiso   1.00
H652   H     0.72920   0.79068   0.06747   0.00000  Uiso   1.00
H653   H     0.91249   0.73630   0.02613   0.00000  Uiso   1.00
H654   H     0.68972   0.84967   0.14099   0.00000  Uiso   1.00
H655   H     0.67511   0.84209   0.09535   0.00000  Uiso   1.00
H656   H     0.98511   0.76609   0.10437   0.00000  Uiso   1.00
H657   H     0.95614   0.79997   0.14484   0.00000  Uiso   1.00
H658   H     0.99911   0.77439   0.15062   0.00000  Uiso   1.00
H659   H     0.68343   0.86058   0.21538   0.00000  Uiso   1.00
H660   H     0.98473   0.80636   0.28465   0.00000  Uiso   1.00
H661   H     0.87471   0.66940   0.21613   0.00000  Uiso   1.00
H662   H     0.79061   0.99892   0.28416   0.00000  Uiso   1.00
H663   H     0.82419   0.84872   0.09939   0.00000  Uiso   1.00
H664   H     0.90469   0.75558   0.09653   0.00000  Uiso   1.00
H665   H     0.89333   0.74338   0.46674   0.00000  Uiso   1.00
O666   O     0.83333   0.83333   0.25000   0.00000  Uiso   1.00
O667   O     0.82360   0.79060   0.16625   0.00000  Uiso   1.00
O668   O     0.79354   0.87313   0.33749   0.00000  Uiso   1.00
O669   O     0.87755   0.84159   0.15877   0.00000  Uiso   1.00
O670   O     0.83865   0.82802   0.33749   0.00000  Uiso   1.00
O671   O     0.86564   0.83380   0.39952   0.00000  Uiso   1.00
O672   O     0.76153   0.84978   0.08403   0.00000  Uiso   1.00
O673   O     0.84515   0.74768   0.27821   0.00000  Uiso   1.00
O674   O     0.81247   0.92803   0.26767   0.00000  Uiso   1.00
O675   O     0.74119   0.79917   0.23607   0.00000  Uiso   1.00
O676   O     0.93452   0.85845   0.21806   0.00000  Uiso   1.00
O677   O     0.73656   0.85627   0.27820   0.00000  Uiso   1.00
O678   O     0.92106   0.81944   0.26768   0.00000  Uiso   1.00
O679   O     0.80467   0.73570   0.23607   0.00000  Uiso   1.00
O680   O     0.87104   0.92193   0.21806   0.00000  Uiso   1.00
Zn681  Zn    0.85910   0.80756   0.28278   0.00000  Uiso   1.00
Zn682  Zn    0.80125   0.79044   0.22258   0.00000  Uiso   1.00
Zn683  Zn    0.87833   0.86331   0.21188   0.00000  Uiso   1.00
Zn684  Zn    0.79465   0.87202   0.28277   0.00000  Uiso   1.00
C685   C     0.05248   0.15989   0.75874   0.00000  Uiso   1.00
C686   C     0.18642   0.12104   0.96266   0.00000  Uiso   1.00
C687   C     0.20676   0.10096   0.98271   0.00000  Uiso   1.00
C688   C     0.28105   0.17357   0.74122   0.00000  Uiso   1.00
C689   C     0.20236   0.11250   0.52254   0.00000  Uiso   1.00
C690   C     0.17451   0.14293   0.54347   0.00000  Uiso   1.00
C691   C     0.22530   0.09351   0.54178   0.00000  Uiso   1.00
C692   C     0.22141   0.10474   0.58157   0.00000  Uiso   1.00
C693   C     0.17401   0.15602   0.58287   0.00000  Uiso   1.00
C694   C     0.32703   0.17638   0.73776   0.00000  Uiso   1.00
C695   C     0.00709   0.15745   0.76210   0.00000  Uiso   1.00
C696   C     0.09732   0.21358   0.92069   0.00000  Uiso   1.00
C697   C     0.18088   0.32214   0.73815   0.00000  Uiso   1.00
C698   C     0.15149   0.01208   0.76208   0.00000  Uiso   1.00
C699   C     0.15591   0.05611   0.75888   0.00000  Uiso   1.00
C700   C     0.17684   0.27767   0.74136   0.00000  Uiso   1.00
C701   C     0.18817   0.14518   0.64411   0.00000  Uiso   1.00
C702   C     0.14561   0.18789   0.85618   0.00000  Uiso   1.00
C703   C     0.13396   0.19397   0.89951   0.00000  Uiso   1.00
C704   C     0.19606   0.13619   0.60188   0.00000  Uiso   1.00
C705   C     0.08439   0.21659   0.96155   0.00000  Uiso   1.00
C706   C     0.22992   0.20177   0.90302   0.00000  Uiso   1.00
C707   C     0.15829   0.17818   0.91989   0.00000  Uiso   1.00
C708   C     0.27449   0.19061   0.87901   0.00000  Uiso   1.00
C709   C     0.06532   0.14693   0.59337   0.00000  Uiso   1.00
C710   C     0.02057   0.16010   0.61528   0.00000  Uiso   1.00
C711   C     0.32166   0.12270   0.62961   0.00000  Uiso   1.00
C712   C     0.14178   0.17565   0.96098   0.00000  Uiso   1.00
C713   C     0.10618   0.19768   0.98183   0.00000  Uiso   1.00
C714   C     0.16019   0.15289   0.98199   0.00000  Uiso   1.00
C715   C     0.14955   0.15996   0.52379   0.00000  Uiso   1.00
C716   C     0.11303   0.18174   0.54385   0.00000  Uiso   1.00
C717   C     0.09207   0.20009   0.52269   0.00000  Uiso   1.00
H718   H     0.06420   0.21621   0.53861   0.00000  Uiso   1.00
H719   H     0.05650   0.23272   0.97730   0.00000  Uiso   1.00
H720   H     0.07855   0.22659   0.90566   0.00000  Uiso   1.00
H721   H     0.18982   0.10943   0.93221   0.00000  Uiso   1.00
H722   H     0.23041   0.21007   0.93424   0.00000  Uiso   1.00
H723   H     0.22317   0.22941   0.89155   0.00000  Uiso   1.00
H724   H     0.27518   0.18291   0.84756   0.00000  Uiso   1.00
H725   H     0.29925   0.21750   0.88169   0.00000  Uiso   1.00
H726   H     0.28237   0.16325   0.88986   0.00000  Uiso   1.00
H727   H     0.07664   0.13043   0.61303   0.00000  Uiso   1.00
H728   H     0.06254   0.12401   0.56747   0.00000  Uiso   1.00
H729   H     0.24582   0.06964   0.52613   0.00000  Uiso   1.00
H730   H     0.02305   0.18300   0.64099   0.00000  Uiso   1.00
H731   H     0.00844   0.17542   0.59535   0.00000  Uiso   1.00
H732   H     0.31844   0.09943   0.60437   0.00000  Uiso   1.00
H733   H     0.28948   0.13331   0.64484   0.00000  Uiso   1.00
H734   H     0.33245   0.10772   0.65062   0.00000  Uiso   1.00
H735   H     0.01676   0.19391   0.71538   0.00000  Uiso   1.00
H736   H     0.31807   0.13969   0.78465   0.00000  Uiso   1.00
H737   H     0.20804   0.00273   0.71613   0.00000  Uiso   1.00
H738   H     0.12394   0.33225   0.78416   0.00000  Uiso   1.00
H739   H     0.15752   0.18205   0.59939   0.00000  Uiso   1.00
H740   H     0.23802   0.08892   0.59653   0.00000  Uiso   1.00
H741   H     0.22666   0.07671   0.96674   0.00000  Uiso   1.00
O742   O     0.16667   0.16667   0.75000   0.00000  Uiso   1.00
O743   O     0.15693   0.12393   0.66625   0.00000  Uiso   1.00
O744   O     0.12687   0.20646   0.83749   0.00000  Uiso   1.00
O745   O     0.21088   0.17493   0.65877   0.00000  Uiso   1.00
O746   O     0.17198   0.16135   0.83749   0.00000  Uiso   1.00
O747   O     0.19897   0.16714   0.89952   0.00000  Uiso   1.00
O748   O     0.09486   0.18311   0.58403   0.00000  Uiso   1.00
O749   O     0.17849   0.08101   0.77821   0.00000  Uiso   1.00
O750   O     0.14581   0.26136   0.76767   0.00000  Uiso   1.00
O751   O     0.07452   0.13251   0.73607   0.00000  Uiso   1.00
O752   O     0.26785   0.19179   0.71806   0.00000  Uiso   1.00
O753   O     0.06990   0.18960   0.77820   0.00000  Uiso   1.00
O754   O     0.25440   0.15277   0.76768   0.00000  Uiso   1.00
O755   O     0.13800   0.06903   0.73607   0.00000  Uiso   1.00
O756   O     0.20437   0.25527   0.71806   0.00000  Uiso   1.00
Zn757  Zn    0.19244   0.14090   0.78278   0.00000  Uiso   1.00
Zn758  Zn    0.13459   0.12378   0.72258   0.00000  Uiso   1.00
Zn759  Zn    0.21166   0.19664   0.71188   0.00000  Uiso   1.00
Zn760  Zn    0.12798   0.20535   0.78277   0.00000  Uiso   1.00
C761   C     0.38581   0.15989   0.75874   0.00000  Uiso   1.00
C762   C     0.51976   0.12104   0.96266   0.00000  Uiso   1.00
C763   C     0.54009   0.10096   0.98271   0.00000  Uiso   1.00
C764   C     0.61438   0.17357   0.74122   0.00000  Uiso   1.00
C765   C     0.53569   0.11250   0.52254   0.00000  Uiso   1.00
C766   C     0.50784   0.14293   0.54347   0.00000  Uiso   1.00
C767   C     0.55863   0.09351   0.54178   0.00000  Uiso   1.00
C768   C     0.55474   0.10474   0.58157   0.00000  Uiso   1.00
C769   C     0.50734   0.15602   0.58287   0.00000  Uiso   1.00
C770   C     0.66037   0.17638   0.73776   0.00000  Uiso   1.00
C771   C     0.34043   0.15745   0.76210   0.00000  Uiso   1.00
C772   C     0.43065   0.21358   0.92069   0.00000  Uiso   1.00
C773   C     0.51421   0.32214   0.73815   0.00000  Uiso   1.00
C774   C     0.48483   0.01208   0.76208   0.00000  Uiso   1.00
C775   C     0.48924   0.05611   0.75888   0.00000  Uiso   1.00
C776   C     0.51018   0.27767   0.74136   0.00000  Uiso   1.00
C777   C     0.52150   0.14518   0.64411   0.00000  Uiso   1.00
C778   C     0.47895   0.18789   0.85618   0.00000  Uiso   1.00
C779   C     0.46729   0.19397   0.89951   0.00000  Uiso   1.00
C780   C     0.52939   0.13619   0.60188   0.00000  Uiso   1.00
C781   C     0.41772   0.21659   0.96155   0.00000  Uiso   1.00
C782   C     0.56326   0.20177   0.90302   0.00000  Uiso   1.00
C783   C     0.49162   0.17818   0.91989   0.00000  Uiso   1.00
C784   C     0.60783   0.19061   0.87901   0.00000  Uiso   1.00
C785   C     0.39866   0.14693   0.59337   0.00000  Uiso   1.00
C786   C     0.35391   0.16010   0.61528   0.00000  Uiso   1.00
C787   C     0.65499   0.12270   0.62961   0.00000  Uiso   1.00
C788   C     0.47512   0.17565   0.96098   0.00000  Uiso   1.00
C789   C     0.43951   0.19768   0.98183   0.00000  Uiso   1.00
C790   C     0.49352   0.15289   0.98199   0.00000  Uiso   1.00
C791   C     0.48288   0.15996   0.52379   0.00000  Uiso   1.00
C792   C     0.44636   0.18174   0.54385   0.00000  Uiso   1.00
C793   C     0.42541   0.20009   0.52269   0.00000  Uiso   1.00
H794   H     0.39753   0.21621   0.53861   0.00000  Uiso   1.00
H795   H     0.38984   0.23272   0.97730   0.00000  Uiso   1.00
H796   H     0.41188   0.22659   0.90566   0.00000  Uiso   1.00
H797   H     0.52315   0.10943   0.93221   0.00000  Uiso   1.00
H798   H     0.56375   0.21007   0.93424   0.00000  Uiso   1.00
H799   H     0.55650   0.22941   0.89155   0.00000  Uiso   1.00
H800   H     0.60851   0.18291   0.84756   0.00000  Uiso   1.00
H801   H     0.63258   0.21750   0.88169   0.00000  Uiso   1.00
H802   H     0.61570   0.16325   0.88986   0.00000  Uiso   1.00
H803   H     0.40998   0.13043   0.61303   0.00000  Uiso   1.00
H804   H     0.39587   0.12401   0.56747   0.00000  Uiso   1.00
H805   H     0.57915   0.06964   0.52613   0.00000  Uiso   1.00
H806   H     0.35638   0.18300   0.64099   0.00000  Uiso   1.00
H807   H     0.34178   0.17542   0.59535   0.00000  Uiso   1.00
H808   H     0.65177   0.09943   0.60437   0.00000  Uiso   1.00
H809   H     0.62281   0.13331   0.64484   0.00000  Uiso   1.00
H810   H     0.66578   0.10772   0.65062   0.00000  Uiso   1.00
H811   H     0.35009   0.19391   0.71538   0.00000  Uiso   1.00
H812   H     0.65140   0.13969   0.78465   0.00000  Uiso   1.00
H813   H     0.54138   0.00273   0.71613   0.00000  Uiso   1.00
H814   H     0.45727   0.33225   0.78416   0.00000  Uiso   1.00
H815   H     0.49086   0.18205   0.59939   0.00000  Uiso   1.00
H816   H     0.57135   0.08892   0.59653   0.00000  Uiso   1.00
H817   H     0.56000   0.07671   0.96674   0.00000  Uiso   1.00
O818   O     0.50000   0.16667   0.75000   0.00000  Uiso   1.00
O819   O     0.49027   0.12393   0.66625   0.00000  Uiso   1.00
O820   O     0.46020   0.20646   0.83749   0.00000  Uiso   1.00
O821   O     0.54421   0.17493   0.65877   0.00000  Uiso   1.00
O822   O     0.50532   0.16135   0.83749   0.00000  Uiso   1.00
O823   O     0.53230   0.16714   0.89952   0.00000  Uiso   1.00
O824   O     0.42819   0.18311   0.58403   0.00000  Uiso   1.00
O825   O     0.51182   0.08101   0.77821   0.00000  Uiso   1.00
O826   O     0.47914   0.26136   0.76767   0.00000  Uiso   1.00
O827   O     0.40785   0.13251   0.73607   0.00000  Uiso   1.00
O828   O     0.60119   0.19179   0.71806   0.00000  Uiso   1.00
O829   O     0.40323   0.18960   0.77820   0.00000  Uiso   1.00
O830   O     0.58773   0.15277   0.76768   0.00000  Uiso   1.00
O831   O     0.47133   0.06903   0.73607   0.00000  Uiso   1.00
O832   O     0.53771   0.25527   0.71806   0.00000  Uiso   1.00
Zn833  Zn    0.52577   0.14090   0.78278   0.00000  Uiso   1.00
Zn834  Zn    0.46792   0.12378   0.72258   0.00000  Uiso   1.00
Zn835  Zn    0.54500   0.19664   0.71188   0.00000  Uiso   1.00
Zn836  Zn    0.46131   0.20535   0.78277   0.00000  Uiso   1.00
C837   C     0.71914   0.15989   0.75874   0.00000  Uiso   1.00
C838   C     0.85309   0.12104   0.96266   0.00000  Uiso   1.00
C839   C     0.87343   0.10096   0.98271   0.00000  Uiso   1.00
C840   C     0.94771   0.17357   0.74122   0.00000  Uiso   1.00
C841   C     0.86902   0.11250   0.52254   0.00000  Uiso   1.00
C842   C     0.84118   0.14293   0.54347   0.00000  Uiso   1.00
C843   C     0.89196   0.09351   0.54178   0.00000  Uiso   1.00
C844   C     0.88807   0.10474   0.58157   0.00000  Uiso   1.00
C845   C     0.84067   0.15602   0.58287   0.00000  Uiso   1.00
C846   C     0.99370   0.17638   0.73776   0.00000  Uiso   1.00
C847   C     0.67376   0.15745   0.76210   0.00000  Uiso   1.00
C848   C     0.76398   0.21358   0.92069   0.00000  Uiso   1.00
C849   C     0.84755   0.32214   0.73815   0.00000  Uiso   1.00
C850   C     0.81816   0.01208   0.76208   0.00000  Uiso   1.00
C851   C     0.82258   0.05611   0.75888   0.00000  Uiso   1.00
C852   C     0.84351   0.27767   0.74136   0.00000  Uiso   1.00
C853   C     0.85483   0.14518   0.64411   0.00000  Uiso   1.00
C854   C     0.81228   0.18789   0.85618   0.00000  Uiso   1.00
C855   C     0.80063   0.19397   0.89951   0.00000  Uiso   1.00
C856   C     0.86272   0.13619   0.60188   0.00000  Uiso   1.00
C857   C     0.75106   0.21659   0.96155   0.00000  Uiso   1.00
C858   C     0.89659   0.20177   0.90302   0.00000  Uiso   1.00
C859   C     0.82495   0.17818   0.91989   0.00000  Uiso   1.00
C860   C     0.94116   0.19061   0.87901   0.00000  Uiso   1.00
C861   C     0.73199   0.14693   0.59337   0.00000  Uiso   1.00
C862   C     0.68724   0.16010   0.61528   0.00000  Uiso   1.00
C863   C     0.98832   0.12270   0.62961   0.00000  Uiso   1.00
C864   C     0.80845   0.17565   0.96098   0.00000  Uiso   1.00
C865   C     0.77285   0.19768   0.98183   0.00000  Uiso   1.00
C866   C     0.82685   0.15289   0.98199   0.00000  Uiso   1.00
C867   C     0.81621   0.15996   0.52379   0.00000  Uiso   1.00
C868   C     0.77969   0.18174   0.54385   0.00000  Uiso   1.00
C869   C     0.75874   0.20009   0.52269   0.00000  Uiso   1.00
H870   H     0.73087   0.21621   0.53861   0.00000  Uiso   1.00
H871   H     0.72317   0.23272   0.97730   0.00000  Uiso   1.00
H872   H     0.74521   0.22659   0.90566   0.00000  Uiso   1.00
H873   H     0.85649   0.10943   0.93221   0.00000  Uiso   1.00
H874   H     0.89708   0.21007   0.93424   0.00000  Uiso   1.00
H875   H     0.88984   0.22941   0.89155   0.00000  Uiso   1.00
H876   H     0.94184   0.18291   0.84756   0.00000  Uiso   1.00
H877   H     0.96592   0.21750   0.88169   0.00000  Uiso   1.00
H878   H     0.94903   0.16325   0.88986   0.00000  Uiso   1.00
H879   H     0.74331   0.13043   0.61303   0.00000  Uiso   1.00
H880   H     0.72920   0.12401   0.56747   0.00000  Uiso   1.00
H881   H     0.91249   0.06964   0.52613   0.00000  Uiso   1.00
H882   H     0.68972   0.18300   0.64099   0.00000  Uiso   1.00
H883   H     0.67511   0.17542   0.59535   0.00000  Uiso   1.00
H884   H     0.98511   0.09943   0.60437   0.00000  Uiso   1.00
H885   H     0.95614   0.13331   0.64484   0.00000  Uiso   1.00
H886   H     0.99911   0.10772   0.65062   0.00000  Uiso   1.00
H887   H     0.68343   0.19391   0.71538   0.00000  Uiso   1.00
H888   H     0.98473   0.13969   0.78465   0.00000  Uiso   1.00
H889   H     0.87471   0.00273   0.71613   0.00000  Uiso   1.00
H890   H     0.79061   0.33225   0.78416   0.00000  Uiso   1.00
H891   H     0.82419   0.18205   0.59939   0.00000  Uiso   1.00
H892   H     0.90469   0.08892   0.59653   0.00000  Uiso   1.00
H893   H     0.89333   0.07671   0.96674   0.00000  Uiso   1.00
O894   O     0.83333   0.16667   0.75000   0.00000  Uiso   1.00
O895   O     0.82360   0.12393   0.66625   0.00000  Uiso   1.00
O896   O     0.79354   0.20646   0.83749   0.00000  Uiso   1.00
O897   O     0.87755   0.17493   0.65877   0.00000  Uiso   1.00
O898   O     0.83865   0.16135   0.83749   0.00000  Uiso   1.00
O899   O     0.86564   0.16714   0.89952   0.00000  Uiso   1.00
O900   O     0.76153   0.18311   0.58403   0.00000  Uiso   1.00
O901   O     0.84515   0.08101   0.77821   0.00000  Uiso   1.00
O902   O     0.81247   0.26136   0.76767   0.00000  Uiso   1.00
O903   O     0.74119   0.13251   0.73607   0.00000  Uiso   1.00
O904   O     0.93452   0.19179   0.71806   0.00000  Uiso   1.00
O905   O     0.73656   0.18960   0.77820   0.00000  Uiso   1.00
O906   O     0.92106   0.15277   0.76768   0.00000  Uiso   1.00
O907   O     0.80467   0.06903   0.73607   0.00000  Uiso   1.00
O908   O     0.87104   0.25527   0.71806   0.00000  Uiso   1.00
Zn909  Zn    0.85910   0.14090   0.78278   0.00000  Uiso   1.00
Zn910  Zn    0.80125   0.12378   0.72258   0.00000  Uiso   1.00
Zn911  Zn    0.87833   0.19664   0.71188   0.00000  Uiso   1.00
Zn912  Zn    0.79465   0.20535   0.78277   0.00000  Uiso   1.00
C913   C     0.05248   0.49323   0.75874   0.00000  Uiso   1.00
C914   C     0.18642   0.45438   0.96266   0.00000  Uiso   1.00
C915   C     0.20676   0.43429   0.98271   0.00000  Uiso   1.00
C916   C     0.28105   0.50691   0.74122   0.00000  Uiso   1.00
C917   C     0.20236   0.44583   0.52254   0.00000  Uiso   1.00
C918   C     0.17451   0.47627   0.54347   0.00000  Uiso   1.00
C919   C     0.22530   0.42685   0.54178   0.00000  Uiso   1.00
C920   C     0.22141   0.43808   0.58157   0.00000  Uiso   1.00
C921   C     0.17401   0.48935   0.58287   0.00000  Uiso   1.00
C922   C     0.32703   0.50971   0.73776   0.00000  Uiso   1.00
C923   C     0.00709   0.49078   0.76210   0.00000  Uiso   1.00
C924   C     0.09732   0.54691   0.92069   0.00000  Uiso   1.00
C925   C     0.18088   0.65547   0.73815   0.00000  Uiso   1.00
C926   C     0.15149   0.34541   0.76208   0.00000  Uiso   1.00
C927   C     0.15591   0.38944   0.75888   0.00000  Uiso   1.00
C928   C     0.17684   0.61100   0.74136   0.00000  Uiso   1.00
C929   C     0.18817   0.47851   0.64411   0.00000  Uiso   1.00
C930   C     0.14561   0.52122   0.85618   0.00000  Uiso   1.00
C931   C     0.13396   0.52731   0.89951   0.00000  Uiso   1.00
C932   C     0.19606   0.46953   0.60188   0.00000  Uiso   1.00
C933   C     0.08439   0.54992   0.96155   0.00000  Uiso   1.00
C934   C     0.22992   0.53510   0.90302   0.00000  Uiso   1.00
C935   C     0.15829   0.51151   0.91989   0.00000  Uiso   1.00
C936   C     0.27449   0.52395   0.87901   0.00000  Uiso   1.00
C937   C     0.06532   0.48026   0.59337   0.00000  Uiso   1.00
C938   C     0.02057   0.49343   0.61528   0.00000  Uiso   1.00
C939   C     0.32166   0.45603   0.62961   0.00000  Uiso   1.00
C940   C     0.14178   0.50898   0.96098   0.00000  Uiso   1.00
C941   C     0.10618   0.53102   0.98183   0.00000  Uiso   1.00
C942   C     0.16019   0.48622   0.98199   0.00000  Uiso   1.00
C943   C     0.14955   0.49329   0.52379   0.00000  Uiso   1.00
C944   C     0.11303   0.51508   0.54385   0.00000  Uiso   1.00
C945   C     0.09207   0.53343   0.52269   0.00000  Uiso   1.00
H946   H     0.06420   0.54954   0.53861   0.00000  Uiso   1.00
H947   H     0.05650   0.56605   0.97730   0.00000  Uiso   1.00
H948   H     0.07855   0.55992   0.90566   0.00000  Uiso   1.00
H949   H     0.18982   0.44277   0.93221   0.00000  Uiso   1.00
H950   H     0.23041   0.54340   0.93424   0.00000  Uiso   1.00
H951   H     0.22317   0.56275   0.89155   0.00000  Uiso   1.00
H952   H     0.27518   0.51624   0.84756   0.00000  Uiso   1.00
H953   H     0.29925   0.55083   0.88169   0.00000  Uiso   1.00
H954   H     0.28237   0.49659   0.88986   0.00000  Uiso   1.00
H955   H     0.07664   0.46377   0.61303   0.00000  Uiso   1.00
H956   H     0.06254   0.45734   0.56747   0.00000  Uiso   1.00
H957   H     0.24582   0.40297   0.52613   0.00000  Uiso   1.00
H958   H     0.02305   0.51633   0.64099   0.00000  Uiso   1.00
H959   H     0.00844   0.50875   0.59535   0.00000  Uiso   1.00
H960   H     0.31844   0.43276   0.60437   0.00000  Uiso   1.00
H961   H     0.28948   0.46664   0.64484   0.00000  Uiso   1.00
H962   H     0.33245   0.44105   0.65062   0.00000  Uiso   1.00
H963   H     0.01676   0.52725   0.71538   0.00000  Uiso   1.00
H964   H     0.31807   0.47302   0.78465   0.00000  Uiso   1.00
H965   H     0.20804   0.33606   0.71613   0.00000  Uiso   1.00
H966   H     0.12394   0.66559   0.78416   0.00000  Uiso   1.00
H967   H     0.15752   0.51539   0.59939   0.00000  Uiso   1.00
H968   H     0.23802   0.42225   0.59653   0.00000  Uiso   1.00
H969   H     0.22666   0.41005   0.96674   0.00000  Uiso   1.00
O970   O     0.16667   0.50000   0.75000   0.00000  Uiso   1.00
O971   O     0.15693   0.45726   0.66625   0.00000  Uiso   1.00
O972   O     0.12687   0.53979   0.83749   0.00000  Uiso   1.00
O973   O     0.21088   0.50826   0.65877   0.00000  Uiso   1.00
O974   O     0.17198   0.49468   0.83749   0.00000  Uiso   1.00
O975   O     0.19897   0.50047   0.89952   0.00000  Uiso   1.00
O976   O     0.09486   0.51645   0.58403   0.00000  Uiso   1.00
O977   O     0.17849   0.41434   0.77821   0.00000  Uiso   1.00
O978   O     0.14581   0.59469   0.76767   0.00000  Uiso   1.00
O979   O     0.07452   0.46584   0.73607   0.00000  Uiso   1.00
O980   O     0.26785   0.52512   0.71806   0.00000  Uiso   1.00
O981   O     0.06990   0.52293   0.77820   0.00000  Uiso   1.00
O982   O     0.25440   0.48610   0.76768   0.00000  Uiso   1.00
O983   O     0.13800   0.40236   0.73607   0.00000  Uiso   1.00
O984   O     0.20437   0.58860   0.71806   0.00000  Uiso   1.00
Zn985  Zn    0.19244   0.47423   0.78278   0.00000  Uiso   1.00
Zn986  Zn    0.13459   0.45711   0.72258   0.00000  Uiso   1.00
Zn987  Zn    0.21166   0.52997   0.71188   0.00000  Uiso   1.00
Zn988  Zn    0.12798   0.53868   0.78277   0.00000  Uiso   1.00
C989   C     0.38581   0.49323   0.75874   0.00000  Uiso   1.00
C990   C     0.51976   0.45438   0.96266   0.00000  Uiso   1.00
C991   C     0.54009   0.43429   0.98271   0.00000  Uiso   1.00
C992   C     0.61438   0.50691   0.74122   0.00000  Uiso   1.00
C993   C     0.53569   0.44583   0.52254   0.00000  Uiso   1.00
C994   C     0.50784   0.47627   0.54347   0.00000  Uiso   1.00
C995   C     0.55863   0.42685   0.54178   0.00000  Uiso   1.00
C996   C     0.55474   0.43808   0.58157   0.00000  Uiso   1.00
C997   C     0.50734   0.48935   0.58287   0.00000  Uiso   1.00
C998   C     0.66037   0.50971   0.73776   0.00000  Uiso   1.00
C999   C     0.34043   0.49078   0.76210   0.00000  Uiso   1.00
C1000  C     0.43065   0.54691   0.92069   0.00000  Uiso   1.00
C1001  C     0.51421   0.65547   0.73815   0.00000  Uiso   1.00
C1002  C     0.48483   0.34541   0.76208   0.00000  Uiso   1.00
C1003  C     0.48924   0.38944   0.75888   0.00000  Uiso   1.00
C1004  C     0.51018   0.61100   0.74136   0.00000  Uiso   1.00
C1005  C     0.52150   0.47851   0.64411   0.00000  Uiso   1.00
C1006  C     0.47895   0.52122   0.85618   0.00000  Uiso   1.00
C1007  C     0.46729   0.52731   0.89951   0.00000  Uiso   1.00
C1008  C     0.52939   0.46953   0.60188   0.00000  Uiso   1.00
C1009  C     0.41772   0.54992   0.96155   0.00000  Uiso   1.00
C1010  C     0.56326   0.53510   0.90302   0.00000  Uiso   1.00
C1011  C     0.49162   0.51151   0.91989   0.00000  Uiso   1.00
C1012  C     0.60783   0.52395   0.87901   0.00000  Uiso   1.00
C1013  C     0.39866   0.48026   0.59337   0.00000  Uiso   1.00
C1014  C     0.35391   0.49343   0.61528   0.00000  Uiso   1.00
C1015  C     0.65499   0.45603   0.62961   0.00000  Uiso   1.00
C1016  C     0.47512   0.50898   0.96098   0.00000  Uiso   1.00
C1017  C     0.43951   0.53102   0.98183   0.00000  Uiso   1.00
C1018  C     0.49352   0.48622   0.98199   0.00000  Uiso   1.00
C1019  C     0.48288   0.49329   0.52379   0.00000  Uiso   1.00
C1020  C     0.44636   0.51508   0.54385   0.00000  Uiso   1.00
C1021  C     0.42541   0.53343   0.52269   0.00000  Uiso   1.00
H1022  H     0.39753   0.54954   0.53861   0.00000  Uiso   1.00
H1023  H     0.38984   0.56605   0.97730   0.00000  Uiso   1.00
H1024  H     0.41188   0.55992   0.90566   0.00000  Uiso   1.00
H1025  H     0.52315   0.44277   0.93221   0.00000  Uiso   1.00
H1026  H     0.56375   0.54340   0.93424   0.00000  Uiso   1.00
H1027  H     0.55650   0.56275   0.89155   0.00000  Uiso   1.00
H1028  H     0.60851   0.51624   0.84756   0.00000  Uiso   1.00
H1029  H     0.63258   0.55083   0.88169   0.00000  Uiso   1.00
H1030  H     0.61570   0.49659   0.88986   0.00000  Uiso   1.00
H1031  H     0.40998   0.46377   0.61303   0.00000  Uiso   1.00
H1032  H     0.39587   0.45734   0.56747   0.00000  Uiso   1.00
H1033  H     0.57915   0.40297   0.52613   0.00000  Uiso   1.00
H1034  H     0.35638   0.51633   0.64099   0.00000  Uiso   1.00
H1035  H     0.34178   0.50875   0.59535   0.00000  Uiso   1.00
H1036  H     0.65177   0.43276   0.60437   0.00000  Uiso   1.00
H1037  H     0.62281   0.46664   0.64484   0.00000  Uiso   1.00
H1038  H     0.66578   0.44105   0.65062   0.00000  Uiso   1.00
H1039  H     0.35009   0.52725   0.71538   0.00000  Uiso   1.00
H1040  H     0.65140   0.47302   0.78465   0.00000  Uiso   1.00
H1041  H     0.54138   0.33606   0.71613   0.00000  Uiso   1.00
H1042  H     0.45727   0.66559   0.78416   0.00000  Uiso   1.00
H1043  H     0.49086   0.51539   0.59939   0.00000  Uiso   1.00
H1044  H     0.57135   0.42225   0.59653   0.00000  Uiso   1.00
H1045  H     0.56000   0.41005   0.96674   0.00000  Uiso   1.00
O1046  O     0.50000   0.50000   0.75000   0.00000  Uiso   1.00
O1047  O     0.49027   0.45726   0.66625   0.00000  Uiso   1.00
O1048  O     0.46020   0.53979   0.83749   0.00000  Uiso   1.00
O1049  O     0.54421   0.50826   0.65877   0.00000  Uiso   1.00
O1050  O     0.50532   0.49468   0.83749   0.00000  Uiso   1.00
O1051  O     0.53230   0.50047   0.89952   0.00000  Uiso   1.00
O1052  O     0.42819   0.51645   0.58403   0.00000  Uiso   1.00
O1053  O     0.51182   0.41434   0.77821   0.00000  Uiso   1.00
O1054  O     0.47914   0.59469   0.76767   0.00000  Uiso   1.00
O1055  O     0.40785   0.46584   0.73607   0.00000  Uiso   1.00
O1056  O     0.60119   0.52512   0.71806   0.00000  Uiso   1.00
O1057  O     0.40323   0.52293   0.77820   0.00000  Uiso   1.00
O1058  O     0.58773   0.48610   0.76768   0.00000  Uiso   1.00
O1059  O     0.47133   0.40236   0.73607   0.00000  Uiso   1.00
O1060  O     0.53771   0.58860   0.71806   0.00000  Uiso   1.00
Zn1061 Zn    0.52577   0.47423   0.78278   0.00000  Uiso   1.00
Zn1062 Zn    0.46792   0.45711   0.72258   0.00000  Uiso   1.00
Zn1063 Zn    0.54500   0.52997   0.71188   0.00000  Uiso   1.00
Zn1064 Zn    0.46131   0.53868   0.78277   0.00000  Uiso   1.00
C1065  C     0.71914   0.49323   0.75874   0.00000  Uiso   1.00
C1066  C     0.85309   0.45438   0.96266   0.00000  Uiso   1.00
C1067  C     0.87343   0.43429   0.98271   0.00000  Uiso   1.00
C1068  C     0.94771   0.50691   0.74122   0.00000  Uiso   1.00
C1069  C     0.86902   0.44583   0.52254   0.00000  Uiso   1.00
C1070  C     0.84118   0.47627   0.54347   0.00000  Uiso   1.00
C1071  C     0.89196   0.42685   0.54178   0.00000  Uiso   1.00
C1072  C     0.88807   0.43808   0.58157   0.00000  Uiso   1.00
C1073  C     0.84067   0.48935   0.58287   0.00000  Uiso   1.00
C1074  C     0.99370   0.50971   0.73776   0.00000  Uiso   1.00
C1075  C     0.67376   0.49078   0.76210   0.00000  Uiso   1.00
C1076  C     0.76398   0.54691   0.92069   0.00000  Uiso   1.00
C1077  C     0.84755   0.65547   0.73815   0.00000  Uiso   1.00
C1078  C     0.81816   0.34541   0.76208   0.00000  Uiso   1.00
C1079  C     0.82258   0.38944   0.75888   0.00000  Uiso   1.00
C1080  C     0.84351   0.61100   0.74136   0.00000  Uiso   1.00
C1081  C     0.85483   0.47851   0.64411   0.00000  Uiso   1.00
C1082  C     0.81228   0.52122   0.85618   0.00000  Uiso   1.00
C1083  C     0.80063   0.52731   0.89951   0.00000  Uiso   1.00
C1084  C     0.86272   0.46953   0.60188   0.00000  Uiso   1.00
C1085  C     0.75106   0.54992   0.96155   0.00000  Uiso   1.00
C1086  C     0.89659   0.53510   0.90302   0.00000  Uiso   1.00
C1087  C     0.82495   0.51151   0.91989   0.00000  Uiso   1.00
C1088  C     0.94116   0.52395   0.87901   0.00000  Uiso   1.00
C1089  C     0.73199   0.48026   0.59337   0.00000  Uiso   1.00
C1090  C     0.68724   0.49343   0.61528   0.00000  Uiso   1.00
C1091  C     0.98832   0.45603   0.62961   0.00000  Uiso   1.00
C1092  C     0.80845   0.50898   0.96098   0.00000  Uiso   1.00
C1093  C     0.77285   0.53102   0.98183   0.00000  Uiso   1.00
C1094  C     0.82685   0.48622   0.98199   0.00000  Uiso   1.00
C1095  C     0.81621   0.49329   0.52379   0.00000  Uiso   1.00
C1096  C     0.77969   0.51508   0.54385   0.00000  Uiso   1.00
C1097  C     0.75874   0.53343   0.52269   0.00000  Uiso   1.00
H1098  H     0.73087   0.54954   0.53861   0.00000  Uiso   1.00
H1099  H     0.72317   0.56605   0.97730   0.00000  Uiso   1.00
H1100  H     0.74521   0.55992   0.90566   0.00000  Uiso   1.00
H1101  H     0.85649   0.44277   0.93221   0.00000  Uiso   1.00
H1102  H     0.89708   0.54340   0.93424   0.00000  Uiso   1.00
H1103  H     0.88984   0.56275   0.89155   0.00000  Uiso   1.00
H1104  H     0.94184   0.51624   0.84756   0.00000  Uiso   1.00
H1105  H     0.96592   0.55083   0.88169   0.00000  Uiso   1.00
H1106  H     0.94903   0.49659   0.88986   0.00000  Uiso   1.00
H1107  H     0.74331   0.46377   0.61303   0.00000  Uiso   1.00
H1108  H     0.72920   0.45734   0.56747   0.00000  Uiso   1.00
H1109  H     0.91249   0.40297   0.52613   0.00000  Uiso   1.00
H1110  H     0.68972   0.51633   0.64099   0.00000  Uiso   1.00
H1111  H     0.67511   0.50875   0.59535   0.00000  Uiso   1.00
H1112  H     0.98511   0.43276   0.60437   0.00000  Uiso   1.00
H1113  H     0.95614   0.46664   0.64484   0.00000  Uiso   1.00
H1114  H     0.99911   0.44105   0.65062   0.00000  Uiso   1.00
H1115  H     0.68343   0.52725   0.71538   0.00000  Uiso   1.00
H1116  H     0.98473   0.47302   0.78465   0.00000  Uiso   1.00
H1117  H     0.87471   0.33606   0.71613   0.00000  Uiso   1.00
H1118  H     0.79061   0.66559   0.78416   0.00000  Uiso   1.00
H1119  H     0.82419   0.51539   0.59939   0.00000  Uiso   1.00
H1120  H     0.90469   0.42225   0.59653   0.00000  Uiso   1.00
H1121  H     0.89333   0.41005   0.96674   0.00000  Uiso   1.00
O1122  O     0.83333   0.50000   0.75000   0.00000  Uiso   1.00
O1123  O     0.82360   0.45726   0.66625   0.00000  Uiso   1.00
O1124  O     0.79354   0.53979   0.83749   0.00000  Uiso   1.00
O1125  O     0.87755   0.50826   0.65877   0.00000  Uiso   1.00
O1126  O     0.83865   0.49468   0.83749   0.00000  Uiso   1.00
O1127  O     0.86564   0.50047   0.89952   0.00000  Uiso   1.00
O1128  O     0.76153   0.51645   0.58403   0.00000  Uiso   1.00
O1129  O     0.84515   0.41434   0.77821   0.00000  Uiso   1.00
O1130  O     0.81247   0.59469   0.76767   0.00000  Uiso   1.00
O1131  O     0.74119   0.46584   0.73607   0.00000  Uiso   1.00
O1132  O     0.93452   0.52512   0.71806   0.00000  Uiso   1.00
O1133  O     0.73656   0.52293   0.77820   0.00000  Uiso   1.00
O1134  O     0.92106   0.48610   0.76768   0.00000  Uiso   1.00
O1135  O     0.80467   0.40236   0.73607   0.00000  Uiso   1.00
O1136  O     0.87104   0.58860   0.71806   0.00000  Uiso   1.00
Zn1137 Zn    0.85910   0.47423   0.78278   0.00000  Uiso   1.00
Zn1138 Zn    0.80125   0.45711   0.72258   0.00000  Uiso   1.00
Zn1139 Zn    0.87833   0.52997   0.71188   0.00000  Uiso   1.00
Zn1140 Zn    0.79465   0.53868   0.78277   0.00000  Uiso   1.00
C1141  C     0.05248   0.82656   0.75874   0.00000  Uiso   1.00
C1142  C     0.18642   0.78771   0.96266   0.00000  Uiso   1.00
C1143  C     0.20676   0.76763   0.98271   0.00000  Uiso   1.00
C1144  C     0.28105   0.84024   0.74122   0.00000  Uiso   1.00
C1145  C     0.20236   0.77917   0.52254   0.00000  Uiso   1.00
C1146  C     0.17451   0.80960   0.54347   0.00000  Uiso   1.00
C1147  C     0.22530   0.76018   0.54178   0.00000  Uiso   1.00
C1148  C     0.22141   0.77141   0.58157   0.00000  Uiso   1.00
C1149  C     0.17401   0.82269   0.58287   0.00000  Uiso   1.00
C1150  C     0.32703   0.84304   0.73776   0.00000  Uiso   1.00
C1151  C     0.00709   0.82411   0.76210   0.00000  Uiso   1.00
C1152  C     0.09732   0.88024   0.92069   0.00000  Uiso   1.00
C1153  C     0.18088   0.98881   0.73815   0.00000  Uiso   1.00
C1154  C     0.15149   0.67875   0.76208   0.00000  Uiso   1.00
C1155  C     0.15591   0.72277   0.75888   0.00000  Uiso   1.00
C1156  C     0.17684   0.94433   0.74136   0.00000  Uiso   1.00
C1157  C     0.18817   0.81184   0.64411   0.00000  Uiso   1.00
C1158  C     0.14561   0.85455   0.85618   0.00000  Uiso   1.00
C1159  C     0.13396   0.86064   0.89951   0.00000  Uiso   1.00
C1160  C     0.19606   0.80286   0.60188   0.00000  Uiso   1.00
C1161  C     0.08439   0.88325   0.96155   0.00000  Uiso   1.00
C1162  C     0.22992   0.86843   0.90302   0.00000  Uiso   1.00
C1163  C     0.15829   0.84484   0.91989   0.00000  Uiso   1.00
C1164  C     0.27449   0.85728   0.87901   0.00000  Uiso   1.00
C1165  C     0.06532   0.81359   0.59337   0.00000  Uiso   1.00
C1166  C     0.02057   0.82676   0.61528   0.00000  Uiso   1.00
C1167  C     0.32166   0.78937   0.62961   0.00000  Uiso   1.00
C1168  C     0.14178   0.84232   0.96098   0.00000  Uiso   1.00
C1169  C     0.10618   0.86435   0.98183   0.00000  Uiso   1.00
C1170  C     0.16019   0.81955   0.98199   0.00000  Uiso   1.00
C1171  C     0.14955   0.82663   0.52379   0.00000  Uiso   1.00
C1172  C     0.11303   0.84841   0.54385   0.00000  Uiso   1.00
C1173  C     0.09207   0.86676   0.52269   0.00000  Uiso   1.00
H1174  H     0.06420   0.88287   0.53861   0.00000  Uiso   1.00
H1175  H     0.05650   0.89938   0.97730   0.00000  Uiso   1.00
H1176  H     0.07855   0.89325   0.90566   0.00000  Uiso   1.00
H1177  H     0.18982   0.77610   0.93221   0.00000  Uiso   1.00
H1178  H     0.23041   0.87673   0.93424   0.00000  Uiso   1.00
H1179  H     0.22317   0.89608   0.89155   0.00000  Uiso   1.00
H1180  H     0.27518   0.84957   0.84756   0.00000  Uiso   1.00
H1181  H     0.29925   0.88416   0.88169   0.00000  Uiso   1.00
H1182  H     0.28237   0.82992   0.88986   0.00000  Uiso   1.00
H1183  H     0.07664   0.79710   0.61303   0.00000  Uiso   1.00
H1184  H     0.06254   0.79068   0.56747   0.00000  Uiso   1.00
H1185  H     0.24582   0.73630   0.52613   0.00000  Uiso   1.00
H1186  H     0.02305   0.84967   0.64099   0.00000  Uiso   1.00
H1187  H     0.00844   0.84209   0.59535   0.00000  Uiso   1.00
H1188  H     0.31844   0.76609   0.60437   0.00000  Uiso   1.00
H1189  H     0.28948   0.79997   0.64484   0.00000  Uiso   1.00
H1190  H     0.33245   0.77439   0.65062   0.00000  Uiso   1.00
H1191  H     0.01676   0.86058   0.71538   0.00000  Uiso   1.00
H1192  H     0.31807   0.80636   0.78465   0.00000  Uiso   1.00
H1193  H     0.20804   0.66940   0.71613   0.00000  Uiso   1.00
H1194  H     0.12394   0.99892   0.78416   0.00000  Uiso   1.00
H1195  H     0.15752   0.84872   0.59939   0.00000  Uiso   1.00
H1196  H     0.23802   0.75558   0.59653   0.00000  Uiso   1.00
H1197  H     0.22666   0.74338   0.96674   0.00000  Uiso   1.00
O1198  O     0.16667   0.83333   0.75000   0.00000  Uiso   1.00
O1199  O     0.15693   0.79060   0.66625   0.00000  Uiso   1.00
O1200  O     0.12687   0.87313   0.83749   0.00000  Uiso   1.00
O1201  O     0.21088   0.84159   0.65877   0.00000  Uiso   1.00
O1202  O     0.17198   0.82802   0.83749   0.00000  Uiso   1.00
O1203  O     0.19897   0.83380   0.89952   0.00000  Uiso   1.00
O1204  O     0.09486   0.84978   0.58403   0.00000  Uiso   1.00
O1205  O     0.17849   0.74768   0.77821   0.00000  Uiso   1.00
O1206  O     0.14581   0.92803   0.76767   0.00000  Uiso   1.00
O1207  O     0.07452   0.79917   0.73607   0.00000  Uiso   1.00
O1208  O     0.26785   0.85845   0.71806   0.00000  Uiso   1.00
O1209  O     0.06990   0.85627   0.77820   0.00000  Uiso   1.00
O1210  O     0.25440   0.81944   0.76768   0.00000  Uiso   1.00
O1211  O     0.13800   0.73570   0.73607   0.00000  Uiso   1.00
O1212  O     0.20437   0.92193   0.71806   0.00000  Uiso   1.00
Zn1213 Zn    0.19244   0.80756   0.78278   0.00000  Uiso   1.00
Zn1214 Zn    0.13459   0.79044   0.72258   0.00000  Uiso   1.00
Zn1215 Zn    0.21166   0.86331   0.71188   0.00000  Uiso   1.00
Zn1216 Zn    0.12798   0.87202   0.78277   0.00000  Uiso   1.00
C1217  C     0.38581   0.82656   0.75874   0.00000  Uiso   1.00
C1218  C     0.51976   0.78771   0.96266   0.00000  Uiso   1.00
C1219  C     0.54009   0.76763   0.98271   0.00000  Uiso   1.00
C1220  C     0.61438   0.84024   0.74122   0.00000  Uiso   1.00
C1221  C     0.53569   0.77917   0.52254   0.00000  Uiso   1.00
C1222  C     0.50784   0.80960   0.54347   0.00000  Uiso   1.00
C1223  C     0.55863   0.76018   0.54178   0.00000  Uiso   1.00
C1224  C     0.55474   0.77141   0.58157   0.00000  Uiso   1.00
C1225  C     0.50734   0.82269   0.58287   0.00000  Uiso   1.00
C1226  C     0.66037   0.84304   0.73776   0.00000  Uiso   1.00
C1227  C     0.34043   0.82411   0.76210   0.00000  Uiso   1.00
C1228  C     0.43065   0.88024   0.92069   0.00000  Uiso   1.00
C1229  C     0.51421   0.98881   0.73815   0.00000  Uiso   1.00
C1230  C     0.48483   0.67875   0.76208   0.00000  Uiso   1.00
C1231  C     0.48924   0.72277   0.75888   0.00000  Uiso   1.00
C1232  C     0.51018   0.94433   0.74136   0.00000  Uiso   1.00
C1233  C     0.52150   0.81184   0.64411   0.00000  Uiso   1.00
C1234  C     0.47895   0.85455   0.85618   0.00000  Uiso   1.00
C1235  C     0.46729   0.86064   0.89951   0.00000  Uiso   1.00
C1236  C     0.52939   0.80286   0.60188   0.00000  Uiso   1.00
C1237  C     0.41772   0.88325   0.96155   0.00000  Uiso   1.00
C1238  C     0.56326   0.86843   0.90302   0.00000  Uiso   1.00
C1239  C     0.49162   0.84484   0.91989   0.00000  Uiso   1.00
C1240  C     0.60783   0.85728   0.87901   0.00000  Uiso   1.00
C1241  C     0.39866   0.81359   0.59337   0.00000  Uiso   1.00
C1242  C     0.35391   0.82676   0.61528   0.00000  Uiso   1.00
C1243  C     0.65499   0.78937   0.62961   0.00000  Uiso   1.00
C1244  C     0.47512   0.84232   0.96098   0.00000  Uiso   1.00
C1245  C     0.43951   0.86435   0.98183   0.00000  Uiso   1.00
C1246  C     0.49352   0.81955   0.98199   0.00000  Uiso   1.00
C1247  C     0.48288   0.82663   0.52379   0.00000  Uiso   1.00
C1248  C     0.44636   0.84841   0.54385   0.00000  Uiso   1.00
C1249  C     0.42541   0.86676   0.52269   0.00000  Uiso   1.00
H1250  H     0.39753   0.88287   0.53861   0.00000  Uiso   1.00
H1251  H     0.38984   0.89938   0.97730   0.00000  Uiso   1.00
H1252  H     0.41188   0.89325   0.90566   0.00000  Uiso   1.00
H1253  H     0.52315   0.77610   0.93221   0.00000  Uiso   1.00
H1254  H     0.56375   0.87673   0.93424   0.00000  Uiso   1.00
H1255  H     0.55650   0.89608   0.89155   0.00000  Uiso   1.00
H1256  H     0.60851   0.84957   0.84756   0.00000  Uiso   1.00
H1257  H     0.63258   0.88416   0.88169   0.00000  Uiso   1.00
H1258  H     0.61570   0.82992   0.88986   0.00000  Uiso   1.00
H1259  H     0.40998   0.79710   0.61303   0.00000  Uiso   1.00
H1260  H     0.39587   0.79068   0.56747   0.00000  Uiso   1.00
H1261  H     0.57915   0.73630   0.52613   0.00000  Uiso   1.00
H1262  H     0.35638   0.84967   0.64099   0.00000  Uiso   1.00
H1263  H     0.34178   0.84209   0.59535   0.00000  Uiso   1.00
H1264  H     0.65177   0.76609   0.60437   0.00000  Uiso   1.00
H1265  H     0.62281   0.79997   0.64484   0.00000  Uiso   1.00
H1266  H     0.66578   0.77439   0.65062   0.00000  Uiso   1.00
H1267  H     0.35009   0.86058   0.71538   0.00000  Uiso   1.00
H1268  H     0.65140   0.80636   0.78465   0.00000  Uiso   1.00
H1269  H     0.54138   0.66940   0.71613   0.00000  Uiso   1.00
H1270  H     0.45727   0.99892   0.78416   0.00000  Uiso   1.00
H1271  H     0.49086   0.84872   0.59939   0.00000  Uiso   1.00
H1272  H     0.57135   0.75558   0.59653   0.00000  Uiso   1.00
H1273  H     0.56000   0.74338   0.96674   0.00000  Uiso   1.00
O1274  O     0.50000   0.83333   0.75000   0.00000  Uiso   1.00
O1275  O     0.49027   0.79060   0.66625   0.00000  Uiso   1.00
O1276  O     0.46020   0.87313   0.83749   0.00000  Uiso   1.00
O1277  O     0.54421   0.84159   0.65877   0.00000  Uiso   1.00
O1278  O     0.50532   0.82802   0.83749   0.00000  Uiso   1.00
O1279  O     0.53230   0.83380   0.89952   0.00000  Uiso   1.00
O1280  O     0.42819   0.84978   0.58403   0.00000  Uiso   1.00
O1281  O     0.51182   0.74768   0.77821   0.00000  Uiso   1.00
O1282  O     0.47914   0.92803   0.76767   0.00000  Uiso   1.00
O1283  O     0.40785   0.79917   0.73607   0.00000  Uiso   1.00
O1284  O     0.60119   0.85845   0.71806   0.00000  Uiso   1.00
O1285  O     0.40323   0.85627   0.77820   0.00000  Uiso   1.00
O1286  O     0.58773   0.81944   0.76768   0.00000  Uiso   1.00
O1287  O     0.47133   0.73570   0.73607   0.00000  Uiso   1.00
O1288  O     0.53771   0.92193   0.71806   0.00000  Uiso   1.00
Zn1289 Zn    0.52577   0.80756   0.78278   0.00000  Uiso   1.00
Zn1290 Zn    0.46792   0.79044   0.72258   0.00000  Uiso   1.00
Zn1291 Zn    0.54500   0.86331   0.71188   0.00000  Uiso   1.00
Zn1292 Zn    0.46131   0.87202   0.78277   0.00000  Uiso   1.00
C1293  C     0.71914   0.82656   0.75874   0.00000  Uiso   1.00
C1294  C     0.85309   0.78771   0.96266   0.00000  Uiso   1.00
C1295  C     0.87343   0.76763   0.98271   0.00000  Uiso   1.00
C1296  C     0.94771   0.84024   0.74122   0.00000  Uiso   1.00
C1297  C     0.86902   0.77917   0.52254   0.00000  Uiso   1.00
C1298  C     0.84118   0.80960   0.54347   0.00000  Uiso   1.00
C1299  C     0.89196   0.76018   0.54178   0.00000  Uiso   1.00
C1300  C     0.88807   0.77141   0.58157   0.00000  Uiso   1.00
C1301  C     0.84067   0.82269   0.58287   0.00000  Uiso   1.00
C1302  C     0.99370   0.84304   0.73776   0.00000  Uiso   1.00
C1303  C     0.67376   0.82411   0.76210   0.00000  Uiso   1.00
C1304  C     0.76398   0.88024   0.92069   0.00000  Uiso   1.00
C1305  C     0.84755   0.98881   0.73815   0.00000  Uiso   1.00
C1306  C     0.81816   0.67875   0.76208   0.00000  Uiso   1.00
C1307  C     0.82258   0.72277   0.75888   0.00000  Uiso   1.00
C1308  C     0.84351   0.94433   0.74136   0.00000  Uiso   1.00
C1309  C     0.85483   0.81184   0.64411   0.00000  Uiso   1.00
C1310  C     0.81228   0.85455   0.85618   0.00000  Uiso   1.00
C1311  C     0.80063   0.86064   0.89951   0.00000  Uiso   1.00
C1312  C     0.86272   0.80286   0.60188   0.00000  Uiso   1.00
C1313  C     0.75106   0.88325   0.96155   0.00000  Uiso   1.00
C1314  C     0.89659   0.86843   0.90302   0.00000  Uiso   1.00
C1315  C     0.82495   0.84484   0.91989   0.00000  Uiso   1.00
C1316  C     0.94116   0.85728   0.87901   0.00000  Uiso   1.00
C1317  C     0.73199   0.81359   0.59337   0.00000  Uiso   1.00
C1318  C     0.68724   0.82676   0.61528   0.00000  Uiso   1.00
C1319  C     0.98832   0.78937   0.62961   0.00000  Uiso   1.00
C1320  C     0.80845   0.84232   0.96098   0.00000  Uiso   1.00
C1321  C     0.77285   0.86435   0.98183   0.00000  Uiso   1.00
C1322  C     0.82685   0.81955   0.98199   0.00000  Uiso   1.00
C1323  C     0.81621   0.82663   0.52379   0.00000  Uiso   1.00
C1324  C     0.77969   0.84841   0.54385   0.00000  Uiso   1.00
C1325  C     0.75874   0.86676   0.52269   0.00000  Uiso   1.00
H1326  H     0.73087   0.88287   0.53861   0.00000  Uiso   1.00
H1327  H     0.72317   0.89938   0.97730   0.00000  Uiso   1.00
H1328  H     0.74521   0.89325   0.90566   0.00000  Uiso   1.00
H1329  H     0.85649   0.77610   0.93221   0.00000  Uiso   1.00
H1330  H     0.89708   0.87673   0.93424   0.00000  Uiso   1.00
H1331  H     0.88984   0.89608   0.89155   0.00000  Uiso   1.00
H1332  H     0.94184   0.84957   0.84756   0.00000  Uiso   1.00
H1333  H     0.96592   0.88416   0.88169   0.00000  Uiso   1.00
H1334  H     0.94903   0.82992   0.88986   0.00000  Uiso   1.00
H1335  H     0.74331   0.79710   0.61303   0.00000  Uiso   1.00
H1336  H     0.72920   0.79068   0.56747   0.00000  Uiso   1.00
H1337  H     0.91249   0.73630   0.52613   0.00000  Uiso   1.00
H1338  H     0.68972   0.84967   0.64099   0.00000  Uiso   1.00
H1339  H     0.67511   0.84209   0.59535   0.00000  Uiso   1.00
H1340  H     0.98511   0.76609   0.60437   0.00000  Uiso   1.00
H1341  H     0.95614   0.79997   0.64484   0.00000  Uiso   1.00
H1342  H     0.99911   0.77439   0.65062   0.00000  Uiso   1.00
H1343  H     0.68343   0.86058   0.71538   0.00000  Uiso   1.00
H1344  H     0.98473   0.80636   0.78465   0.00000  Uiso   1.00
H1345  H     0.87471   0.66940   0.71613   0.00000  Uiso   1.00
H1346  H     0.79061   0.99892   0.78416   0.00000  Uiso   1.00
H1347  H     0.82419   0.84872   0.59939   0.00000  Uiso   1.00
H1348  H     0.90469   0.75558   0.59653   0.00000  Uiso   1.00
H1349  H     0.89333   0.74338   0.96674   0.00000  Uiso   1.00
O1350  O     0.83333   0.83333   0.75000   0.00000  Uiso   1.00
O1351  O     0.82360   0.79060   0.66625   0.00000  Uiso   1.00
O1352  O     0.79354   0.87313   0.83749   0.00000  Uiso   1.00
O1353  O     0.87755   0.84159   0.65877   0.00000  Uiso   1.00
O1354  O     0.83865   0.82802   0.83749   0.00000  Uiso   1.00
O1355  O     0.86564   0.83380   0.89952   0.00000  Uiso   1.00
O1356  O     0.76153   0.84978   0.58403   0.00000  Uiso   1.00
O1357  O     0.84515   0.74768   0.77821   0.00000  Uiso   1.00
O1358  O     0.81247   0.92803   0.76767   0.00000  Uiso   1.00
O1359  O     0.74119   0.79917   0.73607   0.00000  Uiso   1.00
O1360  O     0.93452   0.85845   0.71806   0.00000  Uiso   1.00
O1361  O     0.73656   0.85627   0.77820   0.00000  Uiso   1.00
O1362  O     0.92106   0.81944   0.76768   0.00000  Uiso   1.00
O1363  O     0.80467   0.73570   0.73607   0.00000  Uiso   1.00
O1364  O     0.87104   0.92193   0.71806   0.00000  Uiso   1.00
Zn1365 Zn    0.85910   0.80756   0.78278   0.00000  Uiso   1.00
Zn1366 Zn    0.80125   0.79044   0.72258   0.00000  Uiso   1.00
Zn1367 Zn    0.87833   0.86331   0.71188   0.00000  Uiso   1.00
Zn1368 Zn    0.79465   0.87202   0.78277   0.00000  Uiso   1.00
loop_
_geom_bond_atom_site_label_1
_geom_bond_atom_site_label_2
_geom_bond_distance
_geom_bond_site_symmetry_2
_ccdc_geom_bond_type
C1     C11     1.436   .     S
C1     O69     1.270   .     A
C1     O67     1.269   .     A
C2     C30     1.412   .     A
C2     C3      1.385   .     A
C2     H37     1.079   .     S
C3     H57     1.084   .     S
C3     C689    1.390   .     S
C4     O70     1.279   .     A
C4     O68     1.282   .     A
C4     C10     1.454   .     S
C5     C7      1.403   .     A
C5     C6      1.422   .     A
C5     C687    1.390   1_554 S
C6     C9      1.408   .     A
C6     C31     1.428   .     A
C7     C8      1.390   .     A
C7     H45     1.084   .     S
C8     H56     1.083   .     S
C8     C20     1.394   .     A
C9     H55     1.078   .     S
C9     C20     1.393   .     A
C10    C87     1.334   .     S
C10    H127    1.087   .     S
C11    C162    1.334   1_455 S
C11    H204    1.086   1_455 S
C12    H36     1.083   .     S
C12    C21     1.391   .     A
C12    C19     1.401   .     A
C13    C16     1.452   .     S
C13    C242    1.332   .     S
C13    H281    1.088   .     S
C14    C15     1.436   .     S
C14    C469    1.332   1_545 S
C14    H510    1.086   1_545 S
C15    O71     1.276   .     A
C15    O65     1.276   .     A
C16    O72     1.270   .     A
C16    O66     1.271   .     A
C17    C20     1.449   .     S
C17    O61     1.274   .     A
C17    O59     1.271   .     A
C18    C19     1.475   .     S
C18    O62     1.284   .     A
C18    O60     1.283   .     A
C19    C23     1.409   .     A
C21    C29     1.401   .     A
C21    H35     1.084   .     S
C22    H38     1.114   .     S
C22    O63     1.412   .     S
C22    C24     1.521   .     S
C22    H39     1.115   .     S
C23    O63     1.384   .     S
C23    C28     1.420   .     A
C24    H42     1.111   .     S
C24    H40     1.111   .     S
C24    H41     1.110   .     S
C25    H43     1.111   .     S
C25    H44     1.119   .     S
C25    C26     1.530   .     S
C25    O64     1.418   .     S
C26    H47     1.111   .     S
C26    H46     1.111   .     S
C26    C179    1.526   1_455 S
C27    H48     1.111   .     S
C27    H50     1.111   .     S
C27    H49     1.110   .     S
C27    C102    1.526   .     S
C28    C29     1.415   .     A
C28    C30     1.423   .     A
C29    C717    1.392   .     S
C30    C715    1.424   .     S
C31    C32     1.427   .     A
C31    C714    1.424   1_554 S
C32    O64     1.382   .     S
C32    C33     1.394   .     A
C33    H34     1.084   .     S
C33    C713    1.392   1_554 S
H51    C162    1.087   1_455 S
H52    C87     1.086   .     S
H53    C469    1.088   1_545 S
H54    C242    1.086   .     S
O58    Zn76    1.932   .     S
O58    Zn75    1.935   .     S
O58    Zn74    1.940   .     S
O58    Zn73    1.960   .     S
O59    Zn74    1.932   .     S
O60    Zn76    1.941   .     S
O61    Zn75    1.934   .     S
O62    Zn73    1.927   .     S
O65    Zn73    1.928   .     S
O66    Zn76    1.932   .     S
O67    Zn74    1.925   .     S
O68    Zn75    1.934   .     S
O69    Zn76    1.929   .     S
O70    Zn73    1.922   .     S
O71    Zn74    1.938   .     S
O72    Zn75    1.931   .     S
C77    C87     1.436   .     S
C77    O145    1.270   .     A
C77    O143    1.269   .     A
C78    C106    1.412   .     A
C78    C79     1.385   .     A
C78    H113    1.079   .     S
C79    H133    1.084   .     S
C79    C765    1.390   .     S
C80    O146    1.279   .     A
C80    O144    1.282   .     A
C80    C86     1.454   .     S
C81    C83     1.403   .     A
C81    C82     1.422   .     A
C81    C763    1.390   1_554 S
C82    C85     1.408   .     A
C82    C107    1.428   .     A
C83    C84     1.390   .     A
C83    H121    1.084   .     S
C84    H132    1.083   .     S
C84    C96     1.394   .     A
C85    H131    1.078   .     S
C85    C96     1.393   .     A
C86    C163    1.334   .     S
C86    H203    1.087   .     S
C88    H112    1.083   .     S
C88    C97     1.391   .     A
C88    C95     1.401   .     A
C89    C92     1.452   .     S
C89    C318    1.332   .     S
C89    H357    1.088   .     S
C90    C91     1.436   .     S
C90    C545    1.332   1_545 S
C90    H586    1.086   1_545 S
C91    O147    1.276   .     A
C91    O141    1.276   .     A
C92    O148    1.270   .     A
C92    O142    1.271   .     A
C93    C96     1.449   .     S
C93    O137    1.274   .     A
C93    O135    1.271   .     A
C94    C95     1.475   .     S
C94    O138    1.284   .     A
C94    O136    1.283   .     A
C95    C99     1.409   .     A
C97    C105    1.401   .     A
C97    H111    1.084   .     S
C98    H114    1.114   .     S
C98    O139    1.412   .     S
C98    C100    1.521   .     S
C98    H115    1.115   .     S
C99    O139    1.384   .     S
C99    C104    1.420   .     A
C100   H118    1.111   .     S
C100   H116    1.111   .     S
C100   H117    1.110   .     S
C101   H119    1.111   .     S
C101   H120    1.119   .     S
C101   C102    1.530   .     S
C101   O140    1.418   .     S
C102   H123    1.111   .     S
C102   H122    1.111   .     S
C103   H124    1.111   .     S
C103   H126    1.111   .     S
C103   H125    1.110   .     S
C103   C178    1.526   .     S
C104   C105    1.415   .     A
C104   C106    1.423   .     A
C105   C793    1.392   .     S
C106   C791    1.424   .     S
C107   C108    1.427   .     A
C107   C790    1.424   1_554 S
C108   O140    1.382   .     S
C108   C109    1.394   .     A
C109   H110    1.084   .     S
C109   C789    1.392   1_554 S
H128   C163    1.086   .     S
H129   C545    1.088   1_545 S
H130   C318    1.086   .     S
O134   Zn152   1.932   .     S
O134   Zn151   1.935   .     S
O134   Zn150   1.940   .     S
O134   Zn149   1.960   .     S
O135   Zn150   1.932   .     S
O136   Zn152   1.941   .     S
O137   Zn151   1.934   .     S
O138   Zn149   1.927   .     S
O141   Zn149   1.928   .     S
O142   Zn152   1.932   .     S
O143   Zn150   1.925   .     S
O144   Zn151   1.934   .     S
O145   Zn152   1.929   .     S
O146   Zn149   1.922   .     S
O147   Zn150   1.938   .     S
O148   Zn151   1.931   .     S
C153   C163    1.436   .     S
C153   O221    1.270   .     A
C153   O219    1.269   .     A
C154   C182    1.412   .     A
C154   C155    1.385   .     A
C154   H189    1.079   .     S
C155   H209    1.084   .     S
C155   C841    1.390   .     S
C156   O222    1.279   .     A
C156   O220    1.282   .     A
C156   C162    1.454   .     S
C157   C159    1.403   .     A
C157   C158    1.422   .     A
C157   C839    1.390   1_554 S
C158   C161    1.408   .     A
C158   C183    1.428   .     A
C159   C160    1.390   .     A
C159   H197    1.084   .     S
C160   H208    1.083   .     S
C160   C172    1.394   .     A
C161   H207    1.078   .     S
C161   C172    1.393   .     A
C162   C11     1.334   1_655 S
C162   H51     1.087   1_655 S
C164   H188    1.083   .     S
C164   C173    1.391   .     A
C164   C171    1.401   .     A
C165   C168    1.452   .     S
C165   C394    1.332   .     S
C165   H433    1.088   .     S
C166   C167    1.436   .     S
C166   C621    1.332   1_545 S
C166   H662    1.086   1_545 S
C167   O223    1.276   .     A
C167   O217    1.276   .     A
C168   O224    1.270   .     A
C168   O218    1.271   .     A
C169   C172    1.449   .     S
C169   O213    1.274   .     A
C169   O211    1.271   .     A
C170   C171    1.475   .     S
C170   O214    1.284   .     A
C170   O212    1.283   .     A
C171   C175    1.409   .     A
C173   C181    1.401   .     A
C173   H187    1.084   .     S
C174   H190    1.114   .     S
C174   O215    1.412   .     S
C174   C176    1.521   .     S
C174   H191    1.115   .     S
C175   O215    1.384   .     S
C175   C180    1.420   .     A
C176   H194    1.111   .     S
C176   H192    1.111   .     S
C176   H193    1.110   .     S
C177   H195    1.111   .     S
C177   H196    1.119   .     S
C177   C178    1.530   .     S
C177   O216    1.418   .     S
C178   H199    1.111   .     S
C178   H198    1.111   .     S
C179   H200    1.111   .     S
C179   H202    1.111   .     S
C179   H201    1.110   .     S
C179   C26     1.526   1_655 S
C180   C181    1.415   .     A
C180   C182    1.423   .     A
C181   C869    1.392   .     S
C182   C867    1.424   .     S
C183   C184    1.427   .     A
C183   C866    1.424   1_554 S
C184   O216    1.382   .     S
C184   C185    1.394   .     A
C185   H186    1.084   .     S
C185   C865    1.392   1_554 S
H204   C11     1.086   1_655 S
H205   C621    1.088   1_545 S
H206   C394    1.086   .     S
O210   Zn228   1.932   .     S
O210   Zn227   1.935   .     S
O210   Zn226   1.940   .     S
O210   Zn225   1.960   .     S
O211   Zn226   1.932   .     S
O212   Zn228   1.941   .     S
O213   Zn227   1.934   .     S
O214   Zn225   1.927   .     S
O217   Zn225   1.928   .     S
O218   Zn228   1.932   .     S
O219   Zn226   1.925   .     S
O220   Zn227   1.934   .     S
O221   Zn228   1.929   .     S
O222   Zn225   1.922   .     S
O223   Zn226   1.938   .     S
O224   Zn227   1.931   .     S
C229   C239    1.436   .     S
C229   O297    1.270   .     A
C229   O295    1.269   .     A
C230   C258    1.412   .     A
C230   C231    1.385   .     A
C230   H265    1.079   .     S
C231   H285    1.084   .     S
C231   C917    1.390   .     S
C232   O298    1.279   .     A
C232   O296    1.282   .     A
C232   C238    1.454   .     S
C233   C235    1.403   .     A
C233   C234    1.422   .     A
C233   C915    1.390   1_554 S
C234   C237    1.408   .     A
C234   C259    1.428   .     A
C235   C236    1.390   .     A
C235   H273    1.084   .     S
C236   H284    1.083   .     S
C236   C248    1.394   .     A
C237   H283    1.078   .     S
C237   C248    1.393   .     A
C238   C315    1.334   .     S
C238   H355    1.087   .     S
C239   C390    1.334   1_455 S
C239   H432    1.086   1_455 S
C240   H264    1.083   .     S
C240   C249    1.391   .     A
C240   C247    1.401   .     A
C241   C244    1.452   .     S
C241   C470    1.332   .     S
C241   H509    1.088   .     S
C242   C243    1.436   .     S
C243   O299    1.276   .     A
C243   O293    1.276   .     A
C244   O300    1.270   .     A
C244   O294    1.271   .     A
C245   C248    1.449   .     S
C245   O289    1.274   .     A
C245   O287    1.271   .     A
C246   C247    1.475   .     S
C246   O290    1.284   .     A
C246   O288    1.283   .     A
C247   C251    1.409   .     A
C249   C257    1.401   .     A
C249   H263    1.084   .     S
C250   H266    1.114   .     S
C250   O291    1.412   .     S
C250   C252    1.521   .     S
C250   H267    1.115   .     S
C251   O291    1.384   .     S
C251   C256    1.420   .     A
C252   H270    1.111   .     S
C252   H268    1.111   .     S
C252   H269    1.110   .     S
C253   H271    1.111   .     S
C253   H272    1.119   .     S
C253   C254    1.530   .     S
C253   O292    1.418   .     S
C254   H275    1.111   .     S
C254   H274    1.111   .     S
C254   C407    1.526   1_455 S
C255   H276    1.111   .     S
C255   H278    1.111   .     S
C255   H277    1.110   .     S
C255   C330    1.526   .     S
C256   C257    1.415   .     A
C256   C258    1.423   .     A
C257   C945    1.392   .     S
C258   C943    1.424   .     S
C259   C260    1.427   .     A
C259   C942    1.424   1_554 S
C260   O292    1.382   .     S
C260   C261    1.394   .     A
C261   H262    1.084   .     S
C261   C941    1.392   1_554 S
H279   C390    1.087   1_455 S
H280   C315    1.086   .     S
H282   C470    1.086   .     S
O286   Zn304   1.932   .     S
O286   Zn303   1.935   .     S
O286   Zn302   1.940   .     S
O286   Zn301   1.960   .     S
O287   Zn302   1.932   .     S
O288   Zn304   1.941   .     S
O289   Zn303   1.934   .     S
O290   Zn301   1.927   .     S
O293   Zn301   1.928   .     S
O294   Zn304   1.932   .     S
O295   Zn302   1.925   .     S
O296   Zn303   1.934   .     S
O297   Zn304   1.929   .     S
O298   Zn301   1.922   .     S
O299   Zn302   1.938   .     S
O300   Zn303   1.931   .     S
C305   C315    1.436   .     S
C305   O373    1.270   .     A
C305   O371    1.269   .     A
C306   C334    1.412   .     A
C306   C307    1.385   .     A
C306   H341    1.079   .     S
C307   H361    1.084   .     S
C307   C993    1.390   .     S
C308   O374    1.279   .     A
C308   O372    1.282   .     A
C308   C314    1.454   .     S
C309   C311    1.403   .     A
C309   C310    1.422   .     A
C309   C991    1.390   1_554 S
C310   C313    1.408   .     A
C310   C335    1.428   .     A
C311   C312    1.390   .     A
C311   H349    1.084   .     S
C312   H360    1.083   .     S
C312   C324    1.394   .     A
C313   H359    1.078   .     S
C313   C324    1.393   .     A
C314   C391    1.334   .     S
C314   H431    1.087   .     S
C316   H340    1.083   .     S
C316   C325    1.391   .     A
C316   C323    1.401   .     A
C317   C320    1.452   .     S
C317   C546    1.332   .     S
C317   H585    1.088   .     S
C318   C319    1.436   .     S
C319   O375    1.276   .     A
C319   O369    1.276   .     A
C320   O376    1.270   .     A
C320   O370    1.271   .     A
C321   C324    1.449   .     S
C321   O365    1.274   .     A
C321   O363    1.271   .     A
C322   C323    1.475   .     S
C322   O366    1.284   .     A
C322   O364    1.283   .     A
C323   C327    1.409   .     A
C325   C333    1.401   .     A
C325   H339    1.084   .     S
C326   H342    1.114   .     S
C326   O367    1.412   .     S
C326   C328    1.521   .     S
C326   H343    1.115   .     S
C327   O367    1.384   .     S
C327   C332    1.420   .     A
C328   H346    1.111   .     S
C328   H344    1.111   .     S
C328   H345    1.110   .     S
C329   H347    1.111   .     S
C329   H348    1.119   .     S
C329   C330    1.530   .     S
C329   O368    1.418   .     S
C330   H351    1.111   .     S
C330   H350    1.111   .     S
C331   H352    1.111   .     S
C331   H354    1.111   .     S
C331   H353    1.110   .     S
C331   C406    1.526   .     S
C332   C333    1.415   .     A
C332   C334    1.423   .     A
C333   C1021   1.392   .     S
C334   C1019   1.424   .     S
C335   C336    1.427   .     A
C335   C1018   1.424   1_554 S
C336   O368    1.382   .     S
C336   C337    1.394   .     A
C337   H338    1.084   .     S
C337   C1017   1.392   1_554 S
H356   C391    1.086   .     S
H358   C546    1.086   .     S
O362   Zn380   1.932   .     S
O362   Zn379   1.935   .     S
O362   Zn378   1.940   .     S
O362   Zn377   1.960   .     S
O363   Zn378   1.932   .     S
O364   Zn380   1.941   .     S
O365   Zn379   1.934   .     S
O366   Zn377   1.927   .     S
O369   Zn377   1.928   .     S
O370   Zn380   1.932   .     S
O371   Zn378   1.925   .     S
O372   Zn379   1.934   .     S
O373   Zn380   1.929   .     S
O374   Zn377   1.922   .     S
O375   Zn378   1.938   .     S
O376   Zn379   1.931   .     S
C381   C391    1.436   .     S
C381   O449    1.270   .     A
C381   O447    1.269   .     A
C382   C410    1.412   .     A
C382   C383    1.385   .     A
C382   H417    1.079   .     S
C383   H437    1.084   .     S
C383   C1069   1.390   .     S
C384   O450    1.279   .     A
C384   O448    1.282   .     A
C384   C390    1.454   .     S
C385   C387    1.403   .     A
C385   C386    1.422   .     A
C385   C1067   1.390   1_554 S
C386   C389    1.408   .     A
C386   C411    1.428   .     A
C387   C388    1.390   .     A
C387   H425    1.084   .     S
C388   H436    1.083   .     S
C388   C400    1.394   .     A
C389   H435    1.078   .     S
C389   C400    1.393   .     A
C390   C239    1.334   1_655 S
C390   H279    1.087   1_655 S
C392   H416    1.083   .     S
C392   C401    1.391   .     A
C392   C399    1.401   .     A
C393   C396    1.452   .     S
C393   C622    1.332   .     S
C393   H661    1.088   .     S
C394   C395    1.436   .     S
C395   O451    1.276   .     A
C395   O445    1.276   .     A
C396   O452    1.270   .     A
C396   O446    1.271   .     A
C397   C400    1.449   .     S
C397   O441    1.274   .     A
C397   O439    1.271   .     A
C398   C399    1.475   .     S
C398   O442    1.284   .     A
C398   O440    1.283   .     A
C399   C403    1.409   .     A
C401   C409    1.401   .     A
C401   H415    1.084   .     S
C402   H418    1.114   .     S
C402   O443    1.412   .     S
C402   C404    1.521   .     S
C402   H419    1.115   .     S
C403   O443    1.384   .     S
C403   C408    1.420   .     A
C404   H422    1.111   .     S
C404   H420    1.111   .     S
C404   H421    1.110   .     S
C405   H423    1.111   .     S
C405   H424    1.119   .     S
C405   C406    1.530   .     S
C405   O444    1.418   .     S
C406   H427    1.111   .     S
C406   H426    1.111   .     S
C407   H428    1.111   .     S
C407   H430    1.111   .     S
C407   H429    1.110   .     S
C407   C254    1.526   1_655 S
C408   C409    1.415   .     A
C408   C410    1.423   .     A
C409   C1097   1.392   .     S
C410   C1095   1.424   .     S
C411   C412    1.427   .     A
C411   C1094   1.424   1_554 S
C412   O444    1.382   .     S
C412   C413    1.394   .     A
C413   H414    1.084   .     S
C413   C1093   1.392   1_554 S
H432   C239    1.086   1_655 S
H434   C622    1.086   .     S
O438   Zn456   1.932   .     S
O438   Zn455   1.935   .     S
O438   Zn454   1.940   .     S
O438   Zn453   1.960   .     S
O439   Zn454   1.932   .     S
O440   Zn456   1.941   .     S
O441   Zn455   1.934   .     S
O442   Zn453   1.927   .     S
O445   Zn453   1.928   .     S
O446   Zn456   1.932   .     S
O447   Zn454   1.925   .     S
O448   Zn455   1.934   .     S
O449   Zn456   1.929   .     S
O450   Zn453   1.922   .     S
O451   Zn454   1.938   .     S
O452   Zn455   1.931   .     S
C457   C467    1.436   .     S
C457   O525    1.270   .     A
C457   O523    1.269   .     A
C458   C486    1.412   .     A
C458   C459    1.385   .     A
C458   H493    1.079   .     S
C459   H513    1.084   .     S
C459   C1145   1.390   .     S
C460   O526    1.279   .     A
C460   O524    1.282   .     A
C460   C466    1.454   .     S
C461   C463    1.403   .     A
C461   C462    1.422   .     A
C461   C1143   1.390   1_554 S
C462   C465    1.408   .     A
C462   C487    1.428   .     A
C463   C464    1.390   .     A
C463   H501    1.084   .     S
C464   H512    1.083   .     S
C464   C476    1.394   .     A
C465   H511    1.078   .     S
C465   C476    1.393   .     A
C466   C543    1.334   .     S
C466   H583    1.087   .     S
C467   C618    1.334   1_455 S
C467   H660    1.086   1_455 S
C468   H492    1.083   .     S
C468   C477    1.391   .     A
C468   C475    1.401   .     A
C469   C472    1.452   .     S
C469   C14     1.332   1_565 S
C469   H53     1.088   1_565 S
C470   C471    1.436   .     S
C471   O527    1.276   .     A
C471   O521    1.276   .     A
C472   O528    1.270   .     A
C472   O522    1.271   .     A
C473   C476    1.449   .     S
C473   O517    1.274   .     A
C473   O515    1.271   .     A
C474   C475    1.475   .     S
C474   O518    1.284   .     A
C474   O516    1.283   .     A
C475   C479    1.409   .     A
C477   C485    1.401   .     A
C477   H491    1.084   .     S
C478   H494    1.114   .     S
C478   O519    1.412   .     S
C478   C480    1.521   .     S
C478   H495    1.115   .     S
C479   O519    1.384   .     S
C479   C484    1.420   .     A
C480   H498    1.111   .     S
C480   H496    1.111   .     S
C480   H497    1.110   .     S
C481   H499    1.111   .     S
C481   H500    1.119   .     S
C481   C482    1.530   .     S
C481   O520    1.418   .     S
C482   H503    1.111   .     S
C482   H502    1.111   .     S
C482   C635    1.526   1_455 S
C483   H504    1.111   .     S
C483   H506    1.111   .     S
C483   H505    1.110   .     S
C483   C558    1.526   .     S
C484   C485    1.415   .     A
C484   C486    1.423   .     A
C485   C1173   1.392   .     S
C486   C1171   1.424   .     S
C487   C488    1.427   .     A
C487   C1170   1.424   1_554 S
C488   O520    1.382   .     S
C488   C489    1.394   .     A
C489   H490    1.084   .     S
C489   C1169   1.392   1_554 S
H507   C618    1.087   1_455 S
H508   C543    1.086   .     S
H510   C14     1.086   1_565 S
O514   Zn532   1.932   .     S
O514   Zn531   1.935   .     S
O514   Zn530   1.940   .     S
O514   Zn529   1.960   .     S
O515   Zn530   1.932   .     S
O516   Zn532   1.941   .     S
O517   Zn531   1.934   .     S
O518   Zn529   1.927   .     S
O521   Zn529   1.928   .     S
O522   Zn532   1.932   .     S
O523   Zn530   1.925   .     S
O524   Zn531   1.934   .     S
O525   Zn532   1.929   .     S
O526   Zn529   1.922   .     S
O527   Zn530   1.938   .     S
O528   Zn531   1.931   .     S
C533   C543    1.436   .     S
C533   O601    1.270   .     A
C533   O599    1.269   .     A
C534   C562    1.412   .     A
C534   C535    1.385   .     A
C534   H569    1.079   .     S
C535   H589    1.084   .     S
C535   C1221   1.390   .     S
C536   O602    1.279   .     A
C536   O600    1.282   .     A
C536   C542    1.454   .     S
C537   C539    1.403   .     A
C537   C538    1.422   .     A
C537   C1219   1.390   1_554 S
C538   C541    1.408   .     A
C538   C563    1.428   .     A
C539   C540    1.390   .     A
C539   H577    1.084   .     S
C540   H588    1.083   .     S
C540   C552    1.394   .     A
C541   H587    1.078   .     S
C541   C552    1.393   .     A
C542   C619    1.334   .     S
C542   H659    1.087   .     S
C544   H568    1.083   .     S
C544   C553    1.391   .     A
C544   C551    1.401   .     A
C545   C548    1.452   .     S
C545   C90     1.332   1_565 S
C545   H129    1.088   1_565 S
C546   C547    1.436   .     S
C547   O603    1.276   .     A
C547   O597    1.276   .     A
C548   O604    1.270   .     A
C548   O598    1.271   .     A
C549   C552    1.449   .     S
C549   O593    1.274   .     A
C549   O591    1.271   .     A
C550   C551    1.475   .     S
C550   O594    1.284   .     A
C550   O592    1.283   .     A
C551   C555    1.409   .     A
C553   C561    1.401   .     A
C553   H567    1.084   .     S
C554   H570    1.114   .     S
C554   O595    1.412   .     S
C554   C556    1.521   .     S
C554   H571    1.115   .     S
C555   O595    1.384   .     S
C555   C560    1.420   .     A
C556   H574    1.111   .     S
C556   H572    1.111   .     S
C556   H573    1.110   .     S
C557   H575    1.111   .     S
C557   H576    1.119   .     S
C557   C558    1.530   .     S
C557   O596    1.418   .     S
C558   H579    1.111   .     S
C558   H578    1.111   .     S
C559   H580    1.111   .     S
C559   H582    1.111   .     S
C559   H581    1.110   .     S
C559   C634    1.526   .     S
C560   C561    1.415   .     A
C560   C562    1.423   .     A
C561   C1249   1.392   .     S
C562   C1247   1.424   .     S
C563   C564    1.427   .     A
C563   C1246   1.424   1_554 S
C564   O596    1.382   .     S
C564   C565    1.394   .     A
C565   H566    1.084   .     S
C565   C1245   1.392   1_554 S
H584   C619    1.086   .     S
H586   C90     1.086   1_565 S
O590   Zn608   1.932   .     S
O590   Zn607   1.935   .     S
O590   Zn606   1.940   .     S
O590   Zn605   1.960   .     S
O591   Zn606   1.932   .     S
O592   Zn608   1.941   .     S
O593   Zn607   1.934   .     S
O594   Zn605   1.927   .     S
O597   Zn605   1.928   .     S
O598   Zn608   1.932   .     S
O599   Zn606   1.925   .     S
O600   Zn607   1.934   .     S
O601   Zn608   1.929   .     S
O602   Zn605   1.922   .     S
O603   Zn606   1.938   .     S
O604   Zn607   1.931   .     S
C609   C619    1.436   .     S
C609   O677    1.270   .     A
C609   O675    1.269   .     A
C610   C638    1.412   .     A
C610   C611    1.385   .     A
C610   H645    1.079   .     S
C611   H665    1.084   .     S
C611   C1297   1.390   .     S
C612   O678    1.279   .     A
C612   O676    1.282   .     A
C612   C618    1.454   .     S
C613   C615    1.403   .     A
C613   C614    1.422   .     A
C613   C1295   1.390   1_554 S
C614   C617    1.408   .     A
C614   C639    1.428   .     A
C615   C616    1.390   .     A
C615   H653    1.084   .     S
C616   H664    1.083   .     S
C616   C628    1.394   .     A
C617   H663    1.078   .     S
C617   C628    1.393   .     A
C618   C467    1.334   1_655 S
C618   H507    1.087   1_655 S
C620   H644    1.083   .     S
C620   C629    1.391   .     A
C620   C627    1.401   .     A
C621   C624    1.452   .     S
C621   C166    1.332   1_565 S
C621   H205    1.088   1_565 S
C622   C623    1.436   .     S
C623   O679    1.276   .     A
C623   O673    1.276   .     A
C624   O680    1.270   .     A
C624   O674    1.271   .     A
C625   C628    1.449   .     S
C625   O669    1.274   .     A
C625   O667    1.271   .     A
C626   C627    1.475   .     S
C626   O670    1.284   .     A
C626   O668    1.283   .     A
C627   C631    1.409   .     A
C629   C637    1.401   .     A
C629   H643    1.084   .     S
C630   H646    1.114   .     S
C630   O671    1.412   .     S
C630   C632    1.521   .     S
C630   H647    1.115   .     S
C631   O671    1.384   .     S
C631   C636    1.420   .     A
C632   H650    1.111   .     S
C632   H648    1.111   .     S
C632   H649    1.110   .     S
C633   H651    1.111   .     S
C633   H652    1.119   .     S
C633   C634    1.530   .     S
C633   O672    1.418   .     S
C634   H655    1.111   .     S
C634   H654    1.111   .     S
C635   H656    1.111   .     S
C635   H658    1.111   .     S
C635   H657    1.110   .     S
C635   C482    1.526   1_655 S
C636   C637    1.415   .     A
C636   C638    1.423   .     A
C637   C1325   1.392   .     S
C638   C1323   1.424   .     S
C639   C640    1.427   .     A
C639   C1322   1.424   1_554 S
C640   O672    1.382   .     S
C640   C641    1.394   .     A
C641   H642    1.084   .     S
C641   C1321   1.392   1_554 S
H660   C467    1.086   1_655 S
H662   C166    1.086   1_565 S
O666   Zn684   1.932   .     S
O666   Zn683   1.935   .     S
O666   Zn682   1.940   .     S
O666   Zn681   1.960   .     S
O667   Zn682   1.932   .     S
O668   Zn684   1.941   .     S
O669   Zn683   1.934   .     S
O670   Zn681   1.927   .     S
O673   Zn681   1.928   .     S
O674   Zn684   1.932   .     S
O675   Zn682   1.925   .     S
O676   Zn683   1.934   .     S
O677   Zn684   1.929   .     S
O678   Zn681   1.922   .     S
O679   Zn682   1.938   .     S
O680   Zn683   1.931   .     S
C685   C695    1.436   .     S
C685   O753    1.270   .     A
C685   O751    1.269   .     A
C686   C714    1.412   .     A
C686   C687    1.385   .     A
C686   H721    1.079   .     S
C687   H741    1.084   .     S
C687   C5      1.390   1_556 S
C688   O754    1.279   .     A
C688   O752    1.282   .     A
C688   C694    1.454   .     S
C689   C691    1.403   .     A
C689   C690    1.422   .     A
C690   C693    1.408   .     A
C690   C715    1.428   .     A
C691   C692    1.390   .     A
C691   H729    1.084   .     S
C692   H740    1.083   .     S
C692   C704    1.394   .     A
C693   H739    1.078   .     S
C693   C704    1.393   .     A
C694   C771    1.334   .     S
C694   H811    1.087   .     S
C695   C846    1.334   1_455 S
C695   H888    1.086   1_455 S
C696   H720    1.083   .     S
C696   C705    1.391   .     A
C696   C703    1.401   .     A
C697   C700    1.452   .     S
C697   C926    1.332   .     S
C697   H965    1.088   .     S
C698   C699    1.436   .     S
C698   C1153   1.332   1_545 S
C698   H1194   1.086   1_545 S
C699   O755    1.276   .     A
C699   O749    1.276   .     A
C700   O756    1.270   .     A
C700   O750    1.271   .     A
C701   C704    1.449   .     S
C701   O745    1.274   .     A
C701   O743    1.271   .     A
C702   C703    1.475   .     S
C702   O746    1.284   .     A
C702   O744    1.283   .     A
C703   C707    1.409   .     A
C705   C713    1.401   .     A
C705   H719    1.084   .     S
C706   H722    1.114   .     S
C706   O747    1.412   .     S
C706   C708    1.521   .     S
C706   H723    1.115   .     S
C707   O747    1.384   .     S
C707   C712    1.420   .     A
C708   H726    1.111   .     S
C708   H724    1.111   .     S
C708   H725    1.110   .     S
C709   H727    1.111   .     S
C709   H728    1.119   .     S
C709   C710    1.530   .     S
C709   O748    1.418   .     S
C710   H731    1.111   .     S
C710   H730    1.111   .     S
C710   C863    1.526   1_455 S
C711   H732    1.111   .     S
C711   H734    1.111   .     S
C711   H733    1.110   .     S
C711   C786    1.526   .     S
C712   C713    1.415   .     A
C712   C714    1.423   .     A
C713   C33     1.392   1_556 S
C714   C31     1.424   1_556 S
C715   C716    1.427   .     A
C716   O748    1.382   .     S
C716   C717    1.394   .     A
C717   H718    1.084   .     S
H735   C846    1.087   1_455 S
H736   C771    1.086   .     S
H737   C1153   1.088   1_545 S
H738   C926    1.086   .     S
O742   Zn760   1.932   .     S
O742   Zn759   1.935   .     S
O742   Zn758   1.940   .     S
O742   Zn757   1.960   .     S
O743   Zn758   1.932   .     S
O744   Zn760   1.941   .     S
O745   Zn759   1.934   .     S
O746   Zn757   1.927   .     S
O749   Zn757   1.928   .     S
O750   Zn760   1.932   .     S
O751   Zn758   1.925   .     S
O752   Zn759   1.934   .     S
O753   Zn760   1.929   .     S
O754   Zn757   1.922   .     S
O755   Zn758   1.938   .     S
O756   Zn759   1.931   .     S
C761   C771    1.436   .     S
C761   O829    1.270   .     A
C761   O827    1.269   .     A
C762   C790    1.412   .     A
C762   C763    1.385   .     A
C762   H797    1.079   .     S
C763   H817    1.084   .     S
C763   C81     1.390   1_556 S
C764   O830    1.279   .     A
C764   O828    1.282   .     A
C764   C770    1.454   .     S
C765   C767    1.403   .     A
C765   C766    1.422   .     A
C766   C769    1.408   .     A
C766   C791    1.428   .     A
C767   C768    1.390   .     A
C767   H805    1.084   .     S
C768   H816    1.083   .     S
C768   C780    1.394   .     A
C769   H815    1.078   .     S
C769   C780    1.393   .     A
C770   C847    1.334   .     S
C770   H887    1.087   .     S
C772   H796    1.083   .     S
C772   C781    1.391   .     A
C772   C779    1.401   .     A
C773   C776    1.452   .     S
C773   C1002   1.332   .     S
C773   H1041   1.088   .     S
C774   C775    1.436   .     S
C774   C1229   1.332   1_545 S
C774   H1270   1.086   1_545 S
C775   O831    1.276   .     A
C775   O825    1.276   .     A
C776   O832    1.270   .     A
C776   O826    1.271   .     A
C777   C780    1.449   .     S
C777   O821    1.274   .     A
C777   O819    1.271   .     A
C778   C779    1.475   .     S
C778   O822    1.284   .     A
C778   O820    1.283   .     A
C779   C783    1.409   .     A
C781   C789    1.401   .     A
C781   H795    1.084   .     S
C782   H798    1.114   .     S
C782   O823    1.412   .     S
C782   C784    1.521   .     S
C782   H799    1.115   .     S
C783   O823    1.384   .     S
C783   C788    1.420   .     A
C784   H802    1.111   .     S
C784   H800    1.111   .     S
C784   H801    1.110   .     S
C785   H803    1.111   .     S
C785   H804    1.119   .     S
C785   C786    1.530   .     S
C785   O824    1.418   .     S
C786   H807    1.111   .     S
C786   H806    1.111   .     S
C787   H808    1.111   .     S
C787   H810    1.111   .     S
C787   H809    1.110   .     S
C787   C862    1.526   .     S
C788   C789    1.415   .     A
C788   C790    1.423   .     A
C789   C109    1.392   1_556 S
C790   C107    1.424   1_556 S
C791   C792    1.427   .     A
C792   O824    1.382   .     S
C792   C793    1.394   .     A
C793   H794    1.084   .     S
H812   C847    1.086   .     S
H813   C1229   1.088   1_545 S
H814   C1002   1.086   .     S
O818   Zn836   1.932   .     S
O818   Zn835   1.935   .     S
O818   Zn834   1.940   .     S
O818   Zn833   1.960   .     S
O819   Zn834   1.932   .     S
O820   Zn836   1.941   .     S
O821   Zn835   1.934   .     S
O822   Zn833   1.927   .     S
O825   Zn833   1.928   .     S
O826   Zn836   1.932   .     S
O827   Zn834   1.925   .     S
O828   Zn835   1.934   .     S
O829   Zn836   1.929   .     S
O830   Zn833   1.922   .     S
O831   Zn834   1.938   .     S
O832   Zn835   1.931   .     S
C837   C847    1.436   .     S
C837   O905    1.270   .     A
C837   O903    1.269   .     A
C838   C866    1.412   .     A
C838   C839    1.385   .     A
C838   H873    1.079   .     S
C839   H893    1.084   .     S
C839   C157    1.390   1_556 S
C840   O906    1.279   .     A
C840   O904    1.282   .     A
C840   C846    1.454   .     S
C841   C843    1.403   .     A
C841   C842    1.422   .     A
C842   C845    1.408   .     A
C842   C867    1.428   .     A
C843   C844    1.390   .     A
C843   H881    1.084   .     S
C844   H892    1.083   .     S
C844   C856    1.394   .     A
C845   H891    1.078   .     S
C845   C856    1.393   .     A
C846   C695    1.334   1_655 S
C846   H735    1.087   1_655 S
C848   H872    1.083   .     S
C848   C857    1.391   .     A
C848   C855    1.401   .     A
C849   C852    1.452   .     S
C849   C1078   1.332   .     S
C849   H1117   1.088   .     S
C850   C851    1.436   .     S
C850   C1305   1.332   1_545 S
C850   H1346   1.086   1_545 S
C851   O907    1.276   .     A
C851   O901    1.276   .     A
C852   O908    1.270   .     A
C852   O902    1.271   .     A
C853   C856    1.449   .     S
C853   O897    1.274   .     A
C853   O895    1.271   .     A
C854   C855    1.475   .     S
C854   O898    1.284   .     A
C854   O896    1.283   .     A
C855   C859    1.409   .     A
C857   C865    1.401   .     A
C857   H871    1.084   .     S
C858   H874    1.114   .     S
C858   O899    1.412   .     S
C858   C860    1.521   .     S
C858   H875    1.115   .     S
C859   O899    1.384   .     S
C859   C864    1.420   .     A
C860   H878    1.111   .     S
C860   H876    1.111   .     S
C860   H877    1.110   .     S
C861   H879    1.111   .     S
C861   H880    1.119   .     S
C861   C862    1.530   .     S
C861   O900    1.418   .     S
C862   H883    1.111   .     S
C862   H882    1.111   .     S
C863   H884    1.111   .     S
C863   H886    1.111   .     S
C863   H885    1.110   .     S
C863   C710    1.526   1_655 S
C864   C865    1.415   .     A
C864   C866    1.423   .     A
C865   C185    1.392   1_556 S
C866   C183    1.424   1_556 S
C867   C868    1.427   .     A
C868   O900    1.382   .     S
C868   C869    1.394   .     A
C869   H870    1.084   .     S
H888   C695    1.086   1_655 S
H889   C1305   1.088   1_545 S
H890   C1078   1.086   .     S
O894   Zn912   1.932   .     S
O894   Zn911   1.935   .     S
O894   Zn910   1.940   .     S
O894   Zn909   1.960   .     S
O895   Zn910   1.932   .     S
O896   Zn912   1.941   .     S
O897   Zn911   1.934   .     S
O898   Zn909   1.927   .     S
O901   Zn909   1.928   .     S
O902   Zn912   1.932   .     S
O903   Zn910   1.925   .     S
O904   Zn911   1.934   .     S
O905   Zn912   1.929   .     S
O906   Zn909   1.922   .     S
O907   Zn910   1.938   .     S
O908   Zn911   1.931   .     S
C913   C923    1.436   .     S
C913   O981    1.270   .     A
C913   O979    1.269   .     A
C914   C942    1.412   .     A
C914   C915    1.385   .     A
C914   H949    1.079   .     S
C915   H969    1.084   .     S
C915   C233    1.390   1_556 S
C916   O982    1.279   .     A
C916   O980    1.282   .     A
C916   C922    1.454   .     S
C917   C919    1.403   .     A
C917   C918    1.422   .     A
C918   C921    1.408   .     A
C918   C943    1.428   .     A
C919   C920    1.390   .     A
C919   H957    1.084   .     S
C920   H968    1.083   .     S
C920   C932    1.394   .     A
C921   H967    1.078   .     S
C921   C932    1.393   .     A
C922   C999    1.334   .     S
C922   H1039   1.087   .     S
C923   C1074   1.334   1_455 S
C923   H1116   1.086   1_455 S
C924   H948    1.083   .     S
C924   C933    1.391   .     A
C924   C931    1.401   .     A
C925   C928    1.452   .     S
C925   C1154   1.332   .     S
C925   H1193   1.088   .     S
C926   C927    1.436   .     S
C927   O983    1.276   .     A
C927   O977    1.276   .     A
C928   O984    1.270   .     A
C928   O978    1.271   .     A
C929   C932    1.449   .     S
C929   O973    1.274   .     A
C929   O971    1.271   .     A
C930   C931    1.475   .     S
C930   O974    1.284   .     A
C930   O972    1.283   .     A
C931   C935    1.409   .     A
C933   C941    1.401   .     A
C933   H947    1.084   .     S
C934   H950    1.114   .     S
C934   O975    1.412   .     S
C934   C936    1.521   .     S
C934   H951    1.115   .     S
C935   O975    1.384   .     S
C935   C940    1.420   .     A
C936   H954    1.111   .     S
C936   H952    1.111   .     S
C936   H953    1.110   .     S
C937   H955    1.111   .     S
C937   H956    1.119   .     S
C937   C938    1.530   .     S
C937   O976    1.418   .     S
C938   H959    1.111   .     S
C938   H958    1.111   .     S
C938   C1091   1.526   1_455 S
C939   H960    1.111   .     S
C939   H962    1.111   .     S
C939   H961    1.110   .     S
C939   C1014   1.526   .     S
C940   C941    1.415   .     A
C940   C942    1.423   .     A
C941   C261    1.392   1_556 S
C942   C259    1.424   1_556 S
C943   C944    1.427   .     A
C944   O976    1.382   .     S
C944   C945    1.394   .     A
C945   H946    1.084   .     S
H963   C1074   1.087   1_455 S
H964   C999    1.086   .     S
H966   C1154   1.086   .     S
O970   Zn988   1.932   .     S
O970   Zn987   1.935   .     S
O970   Zn986   1.940   .     S
O970   Zn985   1.960   .     S
O971   Zn986   1.932   .     S
O972   Zn988   1.941   .     S
O973   Zn987   1.934   .     S
O974   Zn985   1.927   .     S
O977   Zn985   1.928   .     S
O978   Zn988   1.932   .     S
O979   Zn986   1.925   .     S
O980   Zn987   1.934   .     S
O981   Zn988   1.929   .     S
O982   Zn985   1.922   .     S
O983   Zn986   1.938   .     S
O984   Zn987   1.931   .     S
C989   C999    1.436   .     S
C989   O1057   1.270   .     A
C989   O1055   1.269   .     A
C990   C1018   1.412   .     A
C990   C991    1.385   .     A
C990   H1025   1.079   .     S
C991   H1045   1.084   .     S
C991   C309    1.390   1_556 S
C992   O1058   1.279   .     A
C992   O1056   1.282   .     A
C992   C998    1.454   .     S
C993   C995    1.403   .     A
C993   C994    1.422   .     A
C994   C997    1.408   .     A
C994   C1019   1.428   .     A
C995   C996    1.390   .     A
C995   H1033   1.084   .     S
C996   H1044   1.083   .     S
C996   C1008   1.394   .     A
C997   H1043   1.078   .     S
C997   C1008   1.393   .     A
C998   C1075   1.334   .     S
C998   H1115   1.087   .     S
C1000  H1024   1.083   .     S
C1000  C1009   1.391   .     A
C1000  C1007   1.401   .     A
C1001  C1004   1.452   .     S
C1001  C1230   1.332   .     S
C1001  H1269   1.088   .     S
C1002  C1003   1.436   .     S
C1003  O1059   1.276   .     A
C1003  O1053   1.276   .     A
C1004  O1060   1.270   .     A
C1004  O1054   1.271   .     A
C1005  C1008   1.449   .     S
C1005  O1049   1.274   .     A
C1005  O1047   1.271   .     A
C1006  C1007   1.475   .     S
C1006  O1050   1.284   .     A
C1006  O1048   1.283   .     A
C1007  C1011   1.409   .     A
C1009  C1017   1.401   .     A
C1009  H1023   1.084   .     S
C1010  H1026   1.114   .     S
C1010  O1051   1.412   .     S
C1010  C1012   1.521   .     S
C1010  H1027   1.115   .     S
C1011  O1051   1.384   .     S
C1011  C1016   1.420   .     A
C1012  H1030   1.111   .     S
C1012  H1028   1.111   .     S
C1012  H1029   1.110   .     S
C1013  H1031   1.111   .     S
C1013  H1032   1.119   .     S
C1013  C1014   1.530   .     S
C1013  O1052   1.418   .     S
C1014  H1035   1.111   .     S
C1014  H1034   1.111   .     S
C1015  H1036   1.111   .     S
C1015  H1038   1.111   .     S
C1015  H1037   1.110   .     S
C1015  C1090   1.526   .     S
C1016  C1017   1.415   .     A
C1016  C1018   1.423   .     A
C1017  C337    1.392   1_556 S
C1018  C335    1.424   1_556 S
C1019  C1020   1.427   .     A
C1020  O1052   1.382   .     S
C1020  C1021   1.394   .     A
C1021  H1022   1.084   .     S
H1040  C1075   1.086   .     S
H1042  C1230   1.086   .     S
O1046  Zn1064  1.932   .     S
O1046  Zn1063  1.935   .     S
O1046  Zn1062  1.940   .     S
O1046  Zn1061  1.960   .     S
O1047  Zn1062  1.932   .     S
O1048  Zn1064  1.941   .     S
O1049  Zn1063  1.934   .     S
O1050  Zn1061  1.927   .     S
O1053  Zn1061  1.928   .     S
O1054  Zn1064  1.932   .     S
O1055  Zn1062  1.925   .     S
O1056  Zn1063  1.934   .     S
O1057  Zn1064  1.929   .     S
O1058  Zn1061  1.922   .     S
O1059  Zn1062  1.938   .     S
O1060  Zn1063  1.931   .     S
C1065  C1075   1.436   .     S
C1065  O1133   1.270   .     A
C1065  O1131   1.269   .     A
C1066  C1094   1.412   .     A
C1066  C1067   1.385   .     A
C1066  H1101   1.079   .     S
C1067  H1121   1.084   .     S
C1067  C385    1.390   1_556 S
C1068  O1134   1.279   .     A
C1068  O1132   1.282   .     A
C1068  C1074   1.454   .     S
C1069  C1071   1.403   .     A
C1069  C1070   1.422   .     A
C1070  C1073   1.408   .     A
C1070  C1095   1.428   .     A
C1071  C1072   1.390   .     A
C1071  H1109   1.084   .     S
C1072  H1120   1.083   .     S
C1072  C1084   1.394   .     A
C1073  H1119   1.078   .     S
C1073  C1084   1.393   .     A
C1074  C923    1.334   1_655 S
C1074  H963    1.087   1_655 S
C1076  H1100   1.083   .     S
C1076  C1085   1.391   .     A
C1076  C1083   1.401   .     A
C1077  C1080   1.452   .     S
C1077  C1306   1.332   .     S
C1077  H1345   1.088   .     S
C1078  C1079   1.436   .     S
C1079  O1135   1.276   .     A
C1079  O1129   1.276   .     A
C1080  O1136   1.270   .     A
C1080  O1130   1.271   .     A
C1081  C1084   1.449   .     S
C1081  O1125   1.274   .     A
C1081  O1123   1.271   .     A
C1082  C1083   1.475   .     S
C1082  O1126   1.284   .     A
C1082  O1124   1.283   .     A
C1083  C1087   1.409   .     A
C1085  C1093   1.401   .     A
C1085  H1099   1.084   .     S
C1086  H1102   1.114   .     S
C1086  O1127   1.412   .     S
C1086  C1088   1.521   .     S
C1086  H1103   1.115   .     S
C1087  O1127   1.384   .     S
C1087  C1092   1.420   .     A
C1088  H1106   1.111   .     S
C1088  H1104   1.111   .     S
C1088  H1105   1.110   .     S
C1089  H1107   1.111   .     S
C1089  H1108   1.119   .     S
C1089  C1090   1.530   .     S
C1089  O1128   1.418   .     S
C1090  H1111   1.111   .     S
C1090  H1110   1.111   .     S
C1091  H1112   1.111   .     S
C1091  H1114   1.111   .     S
C1091  H1113   1.110   .     S
C1091  C938    1.526   1_655 S
C1092  C1093   1.415   .     A
C1092  C1094   1.423   .     A
C1093  C413    1.392   1_556 S
C1094  C411    1.424   1_556 S
C1095  C1096   1.427   .     A
C1096  O1128   1.382   .     S
C1096  C1097   1.394   .     A
C1097  H1098   1.084   .     S
H1116  C923    1.086   1_655 S
H1118  C1306   1.086   .     S
O1122  Zn1140  1.932   .     S
O1122  Zn1139  1.935   .     S
O1122  Zn1138  1.940   .     S
O1122  Zn1137  1.960   .     S
O1123  Zn1138  1.932   .     S
O1124  Zn1140  1.941   .     S
O1125  Zn1139  1.934   .     S
O1126  Zn1137  1.927   .     S
O1129  Zn1137  1.928   .     S
O1130  Zn1140  1.932   .     S
O1131  Zn1138  1.925   .     S
O1132  Zn1139  1.934   .     S
O1133  Zn1140  1.929   .     S
O1134  Zn1137  1.922   .     S
O1135  Zn1138  1.938   .     S
O1136  Zn1139  1.931   .     S
C1141  C1151   1.436   .     S
C1141  O1209   1.270   .     A
C1141  O1207   1.269   .     A
C1142  C1170   1.412   .     A
C1142  C1143   1.385   .     A
C1142  H1177   1.079   .     S
C1143  H1197   1.084   .     S
C1143  C461    1.390   1_556 S
C1144  O1210   1.279   .     A
C1144  O1208   1.282   .     A
C1144  C1150   1.454   .     S
C1145  C1147   1.403   .     A
C1145  C1146   1.422   .     A
C1146  C1149   1.408   .     A
C1146  C1171   1.428   .     A
C1147  C1148   1.390   .     A
C1147  H1185   1.084   .     S
C1148  H1196   1.083   .     S
C1148  C1160   1.394   .     A
C1149  H1195   1.078   .     S
C1149  C1160   1.393   .     A
C1150  C1227   1.334   .     S
C1150  H1267   1.087   .     S
C1151  C1302   1.334   1_455 S
C1151  H1344   1.086   1_455 S
C1152  H1176   1.083   .     S
C1152  C1161   1.391   .     A
C1152  C1159   1.401   .     A
C1153  C1156   1.452   .     S
C1153  C698    1.332   1_565 S
C1153  H737    1.088   1_565 S
C1154  C1155   1.436   .     S
C1155  O1211   1.276   .     A
C1155  O1205   1.276   .     A
C1156  O1212   1.270   .     A
C1156  O1206   1.271   .     A
C1157  C1160   1.449   .     S
C1157  O1201   1.274   .     A
C1157  O1199   1.271   .     A
C1158  C1159   1.475   .     S
C1158  O1202   1.284   .     A
C1158  O1200   1.283   .     A
C1159  C1163   1.409   .     A
C1161  C1169   1.401   .     A
C1161  H1175   1.084   .     S
C1162  H1178   1.114   .     S
C1162  O1203   1.412   .     S
C1162  C1164   1.521   .     S
C1162  H1179   1.115   .     S
C1163  O1203   1.384   .     S
C1163  C1168   1.420   .     A
C1164  H1182   1.111   .     S
C1164  H1180   1.111   .     S
C1164  H1181   1.110   .     S
C1165  H1183   1.111   .     S
C1165  H1184   1.119   .     S
C1165  C1166   1.530   .     S
C1165  O1204   1.418   .     S
C1166  H1187   1.111   .     S
C1166  H1186   1.111   .     S
C1166  C1319   1.526   1_455 S
C1167  H1188   1.111   .     S
C1167  H1190   1.111   .     S
C1167  H1189   1.110   .     S
C1167  C1242   1.526   .     S
C1168  C1169   1.415   .     A
C1168  C1170   1.423   .     A
C1169  C489    1.392   1_556 S
C1170  C487    1.424   1_556 S
C1171  C1172   1.427   .     A
C1172  O1204   1.382   .     S
C1172  C1173   1.394   .     A
C1173  H1174   1.084   .     S
H1191  C1302   1.087   1_455 S
H1192  C1227   1.086   .     S
H1194  C698    1.086   1_565 S
O1198  Zn1216  1.932   .     S
O1198  Zn1215  1.935   .     S
O1198  Zn1214  1.940   .     S
O1198  Zn1213  1.960   .     S
O1199  Zn1214  1.932   .     S
O1200  Zn1216  1.941   .     S
O1201  Zn1215  1.934   .     S
O1202  Zn1213  1.927   .     S
O1205  Zn1213  1.928   .     S
O1206  Zn1216  1.932   .     S
O1207  Zn1214  1.925   .     S
O1208  Zn1215  1.934   .     S
O1209  Zn1216  1.929   .     S
O1210  Zn1213  1.922   .     S
O1211  Zn1214  1.938   .     S
O1212  Zn1215  1.931   .     S
C1217  C1227   1.436   .     S
C1217  O1285   1.270   .     A
C1217  O1283   1.269   .     A
C1218  C1246   1.412   .     A
C1218  C1219   1.385   .     A
C1218  H1253   1.079   .     S
C1219  H1273   1.084   .     S
C1219  C537    1.390   1_556 S
C1220  O1286   1.279   .     A
C1220  O1284   1.282   .     A
C1220  C1226   1.454   .     S
C1221  C1223   1.403   .     A
C1221  C1222   1.422   .     A
C1222  C1225   1.408   .     A
C1222  C1247   1.428   .     A
C1223  C1224   1.390   .     A
C1223  H1261   1.084   .     S
C1224  H1272   1.083   .     S
C1224  C1236   1.394   .     A
C1225  H1271   1.078   .     S
C1225  C1236   1.393   .     A
C1226  C1303   1.334   .     S
C1226  H1343   1.087   .     S
C1228  H1252   1.083   .     S
C1228  C1237   1.391   .     A
C1228  C1235   1.401   .     A
C1229  C1232   1.452   .     S
C1229  C774    1.332   1_565 S
C1229  H813    1.088   1_565 S
C1230  C1231   1.436   .     S
C1231  O1287   1.276   .     A
C1231  O1281   1.276   .     A
C1232  O1288   1.270   .     A
C1232  O1282   1.271   .     A
C1233  C1236   1.449   .     S
C1233  O1277   1.274   .     A
C1233  O1275   1.271   .     A
C1234  C1235   1.475   .     S
C1234  O1278   1.284   .     A
C1234  O1276   1.283   .     A
C1235  C1239   1.409   .     A
C1237  C1245   1.401   .     A
C1237  H1251   1.084   .     S
C1238  H1254   1.114   .     S
C1238  O1279   1.412   .     S
C1238  C1240   1.521   .     S
C1238  H1255   1.115   .     S
C1239  O1279   1.384   .     S
C1239  C1244   1.420   .     A
C1240  H1258   1.111   .     S
C1240  H1256   1.111   .     S
C1240  H1257   1.110   .     S
C1241  H1259   1.111   .     S
C1241  H1260   1.119   .     S
C1241  C1242   1.530   .     S
C1241  O1280   1.418   .     S
C1242  H1263   1.111   .     S
C1242  H1262   1.111   .     S
C1243  H1264   1.111   .     S
C1243  H1266   1.111   .     S
C1243  H1265   1.110   .     S
C1243  C1318   1.526   .     S
C1244  C1245   1.415   .     A
C1244  C1246   1.423   .     A
C1245  C565    1.392   1_556 S
C1246  C563    1.424   1_556 S
C1247  C1248   1.427   .     A
C1248  O1280   1.382   .     S
C1248  C1249   1.394   .     A
C1249  H1250   1.084   .     S
H1268  C1303   1.086   .     S
H1270  C774    1.086   1_565 S
O1274  Zn1292  1.932   .     S
O1274  Zn1291  1.935   .     S
O1274  Zn1290  1.940   .     S
O1274  Zn1289  1.960   .     S
O1275  Zn1290  1.932   .     S
O1276  Zn1292  1.941   .     S
O1277  Zn1291  1.934   .     S
O1278  Zn1289  1.927   .     S
O1281  Zn1289  1.928   .     S
O1282  Zn1292  1.932   .     S
O1283  Zn1290  1.925   .     S
O1284  Zn1291  1.934   .     S
O1285  Zn1292  1.929   .     S
O1286  Zn1289  1.922   .     S
O1287  Zn1290  1.938   .     S
O1288  Zn1291  1.931   .     S
C1293  C1303   1.436   .     S
C1293  O1361   1.270   .     A
C1293  O1359   1.269   .     A
C1294  C1322   1.412   .     A
C1294  C1295   1.385   .     A
C1294  H1329   1.079   .     S
C1295  H1349   1.084   .     S
C1295  C613    1.390   1_556 S
C1296  O1362   1.279   .     A
C1296  O1360   1.282   .     A
C1296  C1302   1.454   .     S
C1297  C1299   1.403   .     A
C1297  C1298   1.422   .     A
C1298  C1301   1.408   .     A
C1298  C1323   1.428   .     A
C1299  C1300   1.390   .     A
C1299  H1337   1.084   .     S
C1300  H1348   1.083   .     S
C1300  C1312   1.394   .     A
C1301  H1347   1.078   .     S
C1301  C1312   1.393   .     A
C1302  C1151   1.334   1_655 S
C1302  H1191   1.087   1_655 S
C1304  H1328   1.083   .     S
C1304  C1313   1.391   .     A
C1304  C1311   1.401   .     A
C1305  C1308   1.452   .     S
C1305  C850    1.332   1_565 S
C1305  H889    1.088   1_565 S
C1306  C1307   1.436   .     S
C1307  O1363   1.276   .     A
C1307  O1357   1.276   .     A
C1308  O1364   1.270   .     A
C1308  O1358   1.271   .     A
C1309  C1312   1.449   .     S
C1309  O1353   1.274   .     A
C1309  O1351   1.271   .     A
C1310  C1311   1.475   .     S
C1310  O1354   1.284   .     A
C1310  O1352   1.283   .     A
C1311  C1315   1.409   .     A
C1313  C1321   1.401   .     A
C1313  H1327   1.084   .     S
C1314  H1330   1.114   .     S
C1314  O1355   1.412   .     S
C1314  C1316   1.521   .     S
C1314  H1331   1.115   .     S
C1315  O1355   1.384   .     S
C1315  C1320   1.420   .     A
C1316  H1334   1.111   .     S
C1316  H1332   1.111   .     S
C1316  H1333   1.110   .     S
C1317  H1335   1.111   .     S
C1317  H1336   1.119   .     S
C1317  C1318   1.530   .     S
C1317  O1356   1.418   .     S
C1318  H1339   1.111   .     S
C1318  H1338   1.111   .     S
C1319  H1340   1.111   .     S
C1319  H1342   1.111   .     S
C1319  H1341   1.110   .     S
C1319  C1166   1.526   1_655 S
C1320  C1321   1.415   .     A
C1320  C1322   1.423   .     A
C1321  C641    1.392   1_556 S
C1322  C639    1.424   1_556 S
C1323  C1324   1.427   .     A
C1324  O1356   1.382   .     S
C1324  C1325   1.394   .     A
C1325  H1326   1.084   .     S
H1344  C1151   1.086   1_655 S
H1346  C850    1.086   1_565 S
O1350  Zn1368  1.932   .     S
O1350  Zn1367  1.935   .     S
O1350  Zn1366  1.940   .     S
O1350  Zn1365  1.960   .     S
O1351  Zn1366  1.932   .     S
O1352  Zn1368  1.941   .     S
O1353  Zn1367  1.934   .     S
O1354  Zn1365  1.927   .     S
O1357  Zn1365  1.928   .     S
O1358  Zn1368  1.932   .     S
O1359  Zn1366  1.925   .     S
O1360  Zn1367  1.934   .     S
O1361  Zn1368  1.929   .     S
O1362  Zn1365  1.922   .     S
O1363  Zn1366  1.938   .     S
O1364  Zn1367  1.931   .     S
