data_str_m1_o1_o17_pcu_sym.156
_audit_creation_date              2020-01-03
_audit_creation_method            'Materials Studio'
_symmetry_space_group_name_H-M    'P1'
_symmetry_Int_Tables_number       1
_symmetry_cell_setting            triclinic
loop_
_symmetry_equiv_pos_as_xyz
  x,y,z
_cell_length_a                    37.5930
_cell_length_b                    37.6267
_cell_length_c                    34.9195
_cell_angle_alpha                 90.0479
_cell_angle_beta                  90.0065
_cell_angle_gamma                 90.0045
loop_
_atom_site_label
_atom_site_type_symbol
_atom_site_fract_x
_atom_site_fract_y
_atom_site_fract_z
_atom_site_U_iso_or_equiv
_atom_site_adp_type
_atom_site_occupancy
C1     C     0.48996   0.28101   0.41875   0.00000  Uiso   1.00
C2     C     0.49744   0.21802   0.58157   0.00000  Uiso   1.00
C3     C     0.21847   0.49103   0.41859   0.00000  Uiso   1.00
C4     C     0.28216   0.49794   0.58177   0.00000  Uiso   1.00
C5     C     0.01132   0.22017   0.41865   0.00000  Uiso   1.00
C6     C     0.00337   0.28254   0.58187   0.00000  Uiso   1.00
C7     C     0.28044   0.00924   0.41868   0.00000  Uiso   1.00
C8     C     0.21739   0.00136   0.58201   0.00000  Uiso   1.00
C9     C     0.23948   0.03052   0.91862   0.00000  Uiso   1.00
C10    C     0.24780   0.46763   0.08166   0.00000  Uiso   1.00
C11    C     0.46953   0.24036   0.91874   0.00000  Uiso   1.00
C12    C     0.03248   0.24855   0.08202   0.00000  Uiso   1.00
C13    C     0.25983   0.46930   0.91855   0.00000  Uiso   1.00
C14    C     0.25244   0.03224   0.08170   0.00000  Uiso   1.00
C15    C     0.03137   0.25908   0.91866   0.00000  Uiso   1.00
C16    C     0.46773   0.25205   0.08184   0.00000  Uiso   1.00
C17    C     0.00027   0.25044   0.39838   0.00000  Uiso   1.00
C18    C     0.00015   0.25022   0.60168   0.00000  Uiso   1.00
C19    C     0.24954   0.00008   0.39831   0.00000  Uiso   1.00
C20    C     0.24986   0.49986   0.60189   0.00000  Uiso   1.00
C21    C     0.24985   0.49998   0.89831   0.00000  Uiso   1.00
C22    C     0.25005   0.49996   0.10165   0.00000  Uiso   1.00
C23    C     0.00034   0.24991   0.89836   0.00000  Uiso   1.00
C24    C     0.00005   0.25009   0.10192   0.00000  Uiso   1.00
C25    C     0.00546   0.18647   0.47931   0.00000  Uiso   1.00
C26    C     0.49573   0.31474   0.51968   0.00000  Uiso   1.00
C27    C     0.31368   0.00357   0.47961   0.00000  Uiso   1.00
C28    C     0.18532   0.49396   0.51959   0.00000  Uiso   1.00
C29    C     0.49589   0.31464   0.47980   0.00000  Uiso   1.00
C30    C     0.00584   0.18620   0.51910   0.00000  Uiso   1.00
C31    C     0.18528   0.49611   0.47995   0.00000  Uiso   1.00
C32    C     0.31390   0.00502   0.51924   0.00000  Uiso   1.00
C33    C     0.25446   0.43589   0.97947   0.00000  Uiso   1.00
C34    C     0.24430   0.06415   0.01942   0.00000  Uiso   1.00
C35    C     0.06450   0.25391   0.98002   0.00000  Uiso   1.00
C36    C     0.43593   0.24479   0.01931   0.00000  Uiso   1.00
C37    C     0.24513   0.06404   0.97961   0.00000  Uiso   1.00
C38    C     0.25543   0.43572   0.01927   0.00000  Uiso   1.00
C39    C     0.43609   0.24616   0.97969   0.00000  Uiso   1.00
C40    C     0.06450   0.25594   0.01967   0.00000  Uiso   1.00
C41    C     0.24979   0.00002   0.35574   0.00000  Uiso   1.00
C42    C     0.25001   0.49997   0.64438   0.00000  Uiso   1.00
C43    C     0.00004   0.25021   0.35575   0.00000  Uiso   1.00
C44    C     0.00002   0.25007   0.64432   0.00000  Uiso   1.00
C45    C     0.00015   0.24999   0.85576   0.00000  Uiso   1.00
C46    C     0.49997   0.25001   0.14440   0.00000  Uiso   1.00
C47    C     0.24998   0.00001   0.85573   0.00000  Uiso   1.00
C48    C     0.25001   0.49999   0.14431   0.00000  Uiso   1.00
C49    C     0.18008   0.06975   0.25040   0.00000  Uiso   1.00
C50    C     0.32040   0.43021   0.75008   0.00000  Uiso   1.00
C51    C     0.43021   0.18009   0.25031   0.00000  Uiso   1.00
C52    C     0.06983   0.32035   0.75012   0.00000  Uiso   1.00
C53    C     0.31992   0.43023   0.25042   0.00000  Uiso   1.00
C54    C     0.17961   0.06981   0.75006   0.00000  Uiso   1.00
C55    C     0.06979   0.31990   0.25035   0.00000  Uiso   1.00
C56    C     0.43022   0.17959   0.75004   0.00000  Uiso   1.00
C57    C     0.18029   0.43001   0.75041   0.00000  Uiso   1.00
C58    C     0.31975   0.07043   0.25005   0.00000  Uiso   1.00
C59    C     0.43010   0.31979   0.75038   0.00000  Uiso   1.00
C60    C     0.07039   0.18018   0.25007   0.00000  Uiso   1.00
C61    C     0.31975   0.06993   0.75038   0.00000  Uiso   1.00
C62    C     0.18022   0.42960   0.25002   0.00000  Uiso   1.00
C63    C     0.06991   0.18023   0.75041   0.00000  Uiso   1.00
C64    C     0.42962   0.31981   0.25005   0.00000  Uiso   1.00
C65    C     0.12548   0.40053   0.22244   0.00000  Uiso   1.00
C66    C     0.37573   0.09607   0.77882   0.00000  Uiso   1.00
C67    C     0.09873   0.12471   0.22296   0.00000  Uiso   1.00
C68    C     0.40446   0.37620   0.77830   0.00000  Uiso   1.00
C69    C     0.37435   0.09951   0.22238   0.00000  Uiso   1.00
C70    C     0.12446   0.40373   0.77909   0.00000  Uiso   1.00
C71    C     0.40125   0.37514   0.22295   0.00000  Uiso   1.00
C72    C     0.09571   0.12402   0.77830   0.00000  Uiso   1.00
C73    C     0.12093   0.09613   0.77675   0.00000  Uiso   1.00
C74    C     0.37499   0.40201   0.22334   0.00000  Uiso   1.00
C75    C     0.09656   0.37844   0.77733   0.00000  Uiso   1.00
C76    C     0.40124   0.12572   0.22244   0.00000  Uiso   1.00
C77    C     0.37910   0.40401   0.77659   0.00000  Uiso   1.00
C78    C     0.12507   0.09792   0.22325   0.00000  Uiso   1.00
C79    C     0.40358   0.12141   0.77717   0.00000  Uiso   1.00
C80    C     0.09865   0.37426   0.22254   0.00000  Uiso   1.00
C81    C     0.37573   0.15034   0.72232   0.00000  Uiso   1.00
C82    C     0.12597   0.34587   0.27853   0.00000  Uiso   1.00
C83    C     0.34888   0.37492   0.72294   0.00000  Uiso   1.00
C84    C     0.15417   0.12589   0.27858   0.00000  Uiso   1.00
C85    C     0.12514   0.34877   0.72313   0.00000  Uiso   1.00
C86    C     0.37395   0.15427   0.27846   0.00000  Uiso   1.00
C87    C     0.15131   0.12522   0.72302   0.00000  Uiso   1.00
C88    C     0.34585   0.37404   0.27838   0.00000  Uiso   1.00
C89    C     0.37109   0.34615   0.27671   0.00000  Uiso   1.00
C90    C     0.12504   0.15207   0.72340   0.00000  Uiso   1.00
C91    C     0.34618   0.12883   0.27696   0.00000  Uiso   1.00
C92    C     0.15188   0.37513   0.72310   0.00000  Uiso   1.00
C93    C     0.12895   0.15379   0.27669   0.00000  Uiso   1.00
C94    C     0.37508   0.34801   0.72329   0.00000  Uiso   1.00
C95    C     0.15374   0.37131   0.27692   0.00000  Uiso   1.00
C96    C     0.34876   0.12420   0.72249   0.00000  Uiso   1.00
C97    C     0.00588   0.21877   0.45899   0.00000  Uiso   1.00
C98    C     0.49972   0.28292   0.54095   0.00000  Uiso   1.00
C99    C     0.28145   0.00431   0.45901   0.00000  Uiso   1.00
C100   C     0.21710   0.49816   0.54117   0.00000  Uiso   1.00
C101   C     0.49554   0.28240   0.45917   0.00000  Uiso   1.00
C102   C     0.00164   0.21789   0.54068   0.00000  Uiso   1.00
C103   C     0.21744   0.49571   0.45905   0.00000  Uiso   1.00
C104   C     0.28219   0.00129   0.54096   0.00000  Uiso   1.00
C105   C     0.25470   0.46810   0.95897   0.00000  Uiso   1.00
C106   C     0.24860   0.03243   0.04080   0.00000  Uiso   1.00
C107   C     0.03235   0.25442   0.95913   0.00000  Uiso   1.00
C108   C     0.46765   0.24873   0.04103   0.00000  Uiso   1.00
C109   C     0.24479   0.03180   0.95905   0.00000  Uiso   1.00
C110   C     0.25129   0.46743   0.04076   0.00000  Uiso   1.00
C111   C     0.46836   0.24555   0.95905   0.00000  Uiso   1.00
C112   C     0.03273   0.25184   0.04120   0.00000  Uiso   1.00
C113   C     0.09806   0.34752   0.25089   0.00000  Uiso   1.00
C114   C     0.40256   0.15039   0.75075   0.00000  Uiso   1.00
C115   C     0.15238   0.09785   0.25127   0.00000  Uiso   1.00
C116   C     0.34946   0.40244   0.75069   0.00000  Uiso   1.00
C117   C     0.40188   0.15251   0.25087   0.00000  Uiso   1.00
C118   C     0.09770   0.34930   0.75103   0.00000  Uiso   1.00
C119   C     0.34765   0.40213   0.25125   0.00000  Uiso   1.00
C120   C     0.15061   0.09761   0.75061   0.00000  Uiso   1.00
C121   C     0.09760   0.15211   0.75120   0.00000  Uiso   1.00
C122   C     0.40066   0.34765   0.25059   0.00000  Uiso   1.00
C123   C     0.15224   0.40217   0.75128   0.00000  Uiso   1.00
C124   C     0.34736   0.09964   0.25073   0.00000  Uiso   1.00
C125   C     0.40248   0.34798   0.75121   0.00000  Uiso   1.00
C126   C     0.09937   0.15232   0.25068   0.00000  Uiso   1.00
C127   C     0.34797   0.09761   0.75100   0.00000  Uiso   1.00
C128   C     0.15255   0.40041   0.25067   0.00000  Uiso   1.00
C129   C     0.00072   0.25055   0.47960   0.00000  Uiso   1.00
C130   C     0.00070   0.25046   0.52051   0.00000  Uiso   1.00
C131   C     0.24948   0.49997   0.47977   0.00000  Uiso   1.00
C132   C     0.24958   0.49988   0.52055   0.00000  Uiso   1.00
C133   C     0.24980   0.49995   0.97953   0.00000  Uiso   1.00
C134   C     0.24988   0.49993   0.02046   0.00000  Uiso   1.00
C135   C     0.00031   0.25013   0.97983   0.00000  Uiso   1.00
C136   C     0.00024   0.25020   0.02060   0.00000  Uiso   1.00
O137   O     0.25000  -0.00000   0.25000   0.00000  Uiso   1.00
O138   O     0.25000   0.00000   0.75000   0.00000  Uiso   1.00
O139   O     0.00000   0.25000   0.25000   0.00000  Uiso   1.00
O140   O     0.00000   0.25000   0.75000   0.00000  Uiso   1.00
O141   O     0.25000   0.46964   0.33755   0.00000  Uiso   1.00
O142   O     0.25000   0.03036   0.66245   0.00000  Uiso   1.00
O143   O     0.03037   0.25000   0.33755   0.00000  Uiso   1.00
O144   O     0.46964   0.25000   0.66245   0.00000  Uiso   1.00
O145   O     0.25000   0.03036   0.33755   0.00000  Uiso   1.00
O146   O     0.25000   0.46964   0.66245   0.00000  Uiso   1.00
O147   O     0.46964   0.25000   0.33755   0.00000  Uiso   1.00
O148   O     0.03037   0.25000   0.66245   0.00000  Uiso   1.00
O149   O     0.00000   0.21964   0.83755   0.00000  Uiso   1.00
O150   O     0.00000   0.28037   0.16245   0.00000  Uiso   1.00
O151   O     0.28037   0.00000   0.83755   0.00000  Uiso   1.00
O152   O     0.21964   0.00000   0.16245   0.00000  Uiso   1.00
O153   O     0.00000   0.28037   0.83755   0.00000  Uiso   1.00
O154   O     0.00000   0.21964   0.16245   0.00000  Uiso   1.00
O155   O     0.21964   0.00000   0.83755   0.00000  Uiso   1.00
O156   O     0.28037   0.00000   0.16245   0.00000  Uiso   1.00
O157   O     0.20725   0.07307   0.27302   0.00000  Uiso   1.00
O158   O     0.29276   0.42693   0.72698   0.00000  Uiso   1.00
O159   O     0.42693   0.20724   0.27302   0.00000  Uiso   1.00
O160   O     0.07308   0.29276   0.72698   0.00000  Uiso   1.00
O161   O     0.29276   0.42693   0.27302   0.00000  Uiso   1.00
O162   O     0.20725   0.07307   0.72698   0.00000  Uiso   1.00
O163   O     0.07308   0.29276   0.27302   0.00000  Uiso   1.00
O164   O     0.42693   0.20724   0.72698   0.00000  Uiso   1.00
O165   O     0.20725   0.42693   0.72698   0.00000  Uiso   1.00
O166   O     0.29276   0.07307   0.27302   0.00000  Uiso   1.00
O167   O     0.42693   0.29275   0.72698   0.00000  Uiso   1.00
O168   O     0.07308   0.20725   0.27302   0.00000  Uiso   1.00
O169   O     0.29276   0.07307   0.72698   0.00000  Uiso   1.00
O170   O     0.20725   0.42693   0.27302   0.00000  Uiso   1.00
O171   O     0.07308   0.20725   0.72698   0.00000  Uiso   1.00
O172   O     0.42693   0.29275   0.27302   0.00000  Uiso   1.00
O173   O     0.45725   0.32307   0.77302   0.00000  Uiso   1.00
O174   O     0.04276   0.17693   0.22698   0.00000  Uiso   1.00
O175   O     0.17693   0.45725   0.77302   0.00000  Uiso   1.00
O176   O     0.32308   0.04275   0.22698   0.00000  Uiso   1.00
O177   O     0.04276   0.17693   0.77302   0.00000  Uiso   1.00
O178   O     0.45725   0.32307   0.22698   0.00000  Uiso   1.00
O179   O     0.32308   0.04275   0.77302   0.00000  Uiso   1.00
O180   O     0.17693   0.45725   0.22698   0.00000  Uiso   1.00
O181   O     0.45725   0.17692   0.22698   0.00000  Uiso   1.00
O182   O     0.04276   0.32308   0.77302   0.00000  Uiso   1.00
O183   O     0.17693   0.04275   0.22698   0.00000  Uiso   1.00
O184   O     0.32308   0.45725   0.77302   0.00000  Uiso   1.00
O185   O     0.04276   0.32308   0.22698   0.00000  Uiso   1.00
O186   O     0.45725   0.17692   0.77302   0.00000  Uiso   1.00
O187   O     0.32308   0.45725   0.22698   0.00000  Uiso   1.00
O188   O     0.17693   0.04275   0.77302   0.00000  Uiso   1.00
Zn189  Zn    0.20660  -0.00000   0.21735   0.00000  Uiso   1.00
Zn190  Zn    0.29341  -0.00000   0.78265   0.00000  Uiso   1.00
Zn191  Zn    0.00000   0.20660   0.21735   0.00000  Uiso   1.00
Zn192  Zn    0.00000   0.29341   0.78265   0.00000  Uiso   1.00
Zn193  Zn    0.29341  -0.00000   0.21735   0.00000  Uiso   1.00
Zn194  Zn    0.20660  -0.00000   0.78265   0.00000  Uiso   1.00
Zn195  Zn    0.00000   0.29341   0.21735   0.00000  Uiso   1.00
Zn196  Zn    0.00000   0.20660   0.78265   0.00000  Uiso   1.00
Zn197  Zn    0.45660   0.25000   0.71735   0.00000  Uiso   1.00
Zn198  Zn    0.04341   0.25000   0.28265   0.00000  Uiso   1.00
Zn199  Zn    0.25000   0.45660   0.71735   0.00000  Uiso   1.00
Zn200  Zn    0.25000   0.04340   0.28265   0.00000  Uiso   1.00
Zn201  Zn    0.04341   0.25000   0.71735   0.00000  Uiso   1.00
Zn202  Zn    0.45660   0.25000   0.28265   0.00000  Uiso   1.00
Zn203  Zn    0.25000   0.04340   0.71735   0.00000  Uiso   1.00
Zn204  Zn    0.25000   0.45660   0.28265   0.00000  Uiso   1.00
O205   O     0.00472   0.15372   0.46121   0.00000  Uiso   1.00
C206   C     0.47230   0.14911   0.44142   0.00000  Uiso   1.00
H207   H     0.47594   0.12677   0.42097   0.00000  Uiso   1.00
H208   H     0.46433   0.17253   0.42410   0.00000  Uiso   1.00
C209   C     0.44260   0.13996   0.46921   0.00000  Uiso   1.00
H210   H     0.44976   0.11470   0.48373   0.00000  Uiso   1.00
H211   H     0.43945   0.16139   0.49089   0.00000  Uiso   1.00
C212   C     0.40774   0.13589   0.44786   0.00000  Uiso   1.00
H213   H     0.40271   0.15942   0.42930   0.00000  Uiso   1.00
H214   H     0.38538   0.13379   0.46839   0.00000  Uiso   1.00
H215   H     0.40898   0.11140   0.43016   0.00000  Uiso   1.00
O216   O     0.49445   0.34757   0.53699   0.00000  Uiso   1.00
C217   C     0.46096   0.35261   0.55377   0.00000  Uiso   1.00
H218   H     0.46528   0.36830   0.58041   0.00000  Uiso   1.00
H219   H     0.44705   0.32758   0.56265   0.00000  Uiso   1.00
C220   C     0.43779   0.37328   0.52616   0.00000  Uiso   1.00
H221   H     0.45348   0.39476   0.51224   0.00000  Uiso   1.00
H222   H     0.42738   0.35506   0.50363   0.00000  Uiso   1.00
C223   C     0.40741   0.38917   0.54844   0.00000  Uiso   1.00
H224   H     0.39230   0.36724   0.56213   0.00000  Uiso   1.00
H225   H     0.38974   0.40365   0.52915   0.00000  Uiso   1.00
H226   H     0.41752   0.40817   0.57034   0.00000  Uiso   1.00
O227   O     0.34642   0.00124   0.46160   0.00000  Uiso   1.00
C228   C     0.35016   0.46772   0.44386   0.00000  Uiso   1.00
H229   H     0.37321   0.46938   0.42402   0.00000  Uiso   1.00
H230   H     0.32681   0.46005   0.42617   0.00000  Uiso   1.00
C231   C     0.35728   0.43905   0.47357   0.00000  Uiso   1.00
H232   H     0.38212   0.44634   0.48888   0.00000  Uiso   1.00
H233   H     0.33493   0.43743   0.49435   0.00000  Uiso   1.00
C234   C     0.36119   0.40312   0.45438   0.00000  Uiso   1.00
H235   H     0.33884   0.39840   0.43403   0.00000  Uiso   1.00
H236   H     0.36058   0.38168   0.47617   0.00000  Uiso   1.00
H237   H     0.38701   0.40233   0.43892   0.00000  Uiso   1.00
O238   O     0.15257   0.49070   0.53688   0.00000  Uiso   1.00
C239   C     0.14898   0.45651   0.55237   0.00000  Uiso   1.00
H240   H     0.13478   0.45952   0.58009   0.00000  Uiso   1.00
H241   H     0.17465   0.44270   0.55904   0.00000  Uiso   1.00
C242   C     0.12709   0.43398   0.52506   0.00000  Uiso   1.00
H243   H     0.10521   0.45002   0.51231   0.00000  Uiso   1.00
H244   H     0.14445   0.42392   0.50160   0.00000  Uiso   1.00
C245   C     0.11165   0.40331   0.54727   0.00000  Uiso   1.00
H246   H     0.13399   0.38809   0.56014   0.00000  Uiso   1.00
H247   H     0.09655   0.38571   0.52835   0.00000  Uiso   1.00
H248   H     0.09325   0.41320   0.56993   0.00000  Uiso   1.00
O249   O     0.49650   0.34748   0.46197   0.00000  Uiso   1.00
C250   C     0.02914   0.35249   0.44278   0.00000  Uiso   1.00
H251   H     0.02595   0.37573   0.42352   0.00000  Uiso   1.00
H252   H     0.03673   0.32969   0.42431   0.00000  Uiso   1.00
C253   C     0.05892   0.35999   0.47119   0.00000  Uiso   1.00
H254   H     0.05193   0.38434   0.48753   0.00000  Uiso   1.00
H255   H     0.06210   0.33732   0.49129   0.00000  Uiso   1.00
C256   C     0.09377   0.36521   0.45021   0.00000  Uiso   1.00
H257   H     0.09833   0.34324   0.42942   0.00000  Uiso   1.00
H258   H     0.11623   0.36518   0.47072   0.00000  Uiso   1.00
H259   H     0.09293   0.39108   0.43506   0.00000  Uiso   1.00
O260   O     0.00734   0.15328   0.53600   0.00000  Uiso   1.00
C261   C     0.04059   0.14857   0.55337   0.00000  Uiso   1.00
H262   H     0.03590   0.13351   0.58027   0.00000  Uiso   1.00
H263   H     0.05449   0.17370   0.56184   0.00000  Uiso   1.00
C264   C     0.06397   0.12726   0.52653   0.00000  Uiso   1.00
H265   H     0.04818   0.10603   0.51224   0.00000  Uiso   1.00
H266   H     0.07527   0.14515   0.50423   0.00000  Uiso   1.00
C267   C     0.09341   0.11083   0.54974   0.00000  Uiso   1.00
H268   H     0.10849   0.13247   0.56407   0.00000  Uiso   1.00
H269   H     0.11137   0.09607   0.53102   0.00000  Uiso   1.00
H270   H     0.08234   0.09202   0.57129   0.00000  Uiso   1.00
O271   O     0.15239   0.49851   0.46226   0.00000  Uiso   1.00
C272   C     0.14853   0.03202   0.44458   0.00000  Uiso   1.00
H273   H     0.12528   0.03039   0.42500   0.00000  Uiso   1.00
H274   H     0.17170   0.03960   0.42659   0.00000  Uiso   1.00
C275   C     0.14181   0.06078   0.47433   0.00000  Uiso   1.00
H276   H     0.11696   0.05380   0.48972   0.00000  Uiso   1.00
H277   H     0.16426   0.06210   0.49502   0.00000  Uiso   1.00
C278   C     0.13830   0.09681   0.45524   0.00000  Uiso   1.00
H279   H     0.16059   0.10127   0.43483   0.00000  Uiso   1.00
H280   H     0.13929   0.11820   0.47707   0.00000  Uiso   1.00
H281   H     0.11247   0.09802   0.43991   0.00000  Uiso   1.00
O282   O     0.34682   0.00674   0.53630   0.00000  Uiso   1.00
C283   C     0.35230   0.04092   0.55104   0.00000  Uiso   1.00
H284   H     0.36721   0.03778   0.57828   0.00000  Uiso   1.00
H285   H     0.32741   0.05580   0.55836   0.00000  Uiso   1.00
C286   C     0.37428   0.06192   0.52248   0.00000  Uiso   1.00
H287   H     0.39545   0.04490   0.50980   0.00000  Uiso   1.00
H288   H     0.35680   0.07180   0.49911   0.00000  Uiso   1.00
C289   C     0.39093   0.09266   0.54327   0.00000  Uiso   1.00
H290   H     0.36921   0.10840   0.55657   0.00000  Uiso   1.00
H291   H     0.40546   0.10962   0.52336   0.00000  Uiso   1.00
H292   H     0.40991   0.08296   0.56540   0.00000  Uiso   1.00
O293   O     0.25269   0.40318   0.96142   0.00000  Uiso   1.00
C294   C     0.21915   0.39887   0.94381   0.00000  Uiso   1.00
H295   H     0.22086   0.37525   0.92482   0.00000  Uiso   1.00
H296   H     0.21157   0.42164   0.92531   0.00000  Uiso   1.00
C297   C     0.19035   0.39269   0.97377   0.00000  Uiso   1.00
H298   H     0.19802   0.36891   0.99067   0.00000  Uiso   1.00
H299   H     0.18808   0.41606   0.99310   0.00000  Uiso   1.00
C300   C     0.15461   0.38698   0.95470   0.00000  Uiso   1.00
H301   H     0.14954   0.40799   0.93292   0.00000  Uiso   1.00
H302   H     0.13300   0.38837   0.97623   0.00000  Uiso   1.00
H303   H     0.15447   0.36033   0.94105   0.00000  Uiso   1.00
O304   O     0.24227   0.09697   0.03655   0.00000  Uiso   1.00
C305   C     0.20883   0.10120   0.05365   0.00000  Uiso   1.00
H306   H     0.21322   0.11549   0.08112   0.00000  Uiso   1.00
H307   H     0.19477   0.07588   0.06105   0.00000  Uiso   1.00
C308   C     0.18577   0.12329   0.02728   0.00000  Uiso   1.00
H309   H     0.20179   0.14471   0.01370   0.00000  Uiso   1.00
H310   H     0.17448   0.10600   0.00441   0.00000  Uiso   1.00
C311   C     0.15633   0.13946   0.05078   0.00000  Uiso   1.00
H312   H     0.14099   0.11766   0.06436   0.00000  Uiso   1.00
H313   H     0.13863   0.15482   0.03238   0.00000  Uiso   1.00
H314   H     0.16742   0.15768   0.07287   0.00000  Uiso   1.00
O315   O     0.09732   0.25104   0.96232   0.00000  Uiso   1.00
C316   C     0.10083   0.21728   0.94505   0.00000  Uiso   1.00
H317   H     0.12417   0.21841   0.92558   0.00000  Uiso   1.00
H318   H     0.07762   0.20975   0.92707   0.00000  Uiso   1.00
C319   C     0.10715   0.18886   0.97523   0.00000  Uiso   1.00
H320   H     0.13177   0.19612   0.99089   0.00000  Uiso   1.00
H321   H     0.08443   0.18772   0.99558   0.00000  Uiso   1.00
C322   C     0.11102   0.15261   0.95669   0.00000  Uiso   1.00
H323   H     0.08897   0.14781   0.93604   0.00000  Uiso   1.00
H324   H     0.10989   0.13154   0.97882   0.00000  Uiso   1.00
H325   H     0.13703   0.15134   0.94175   0.00000  Uiso   1.00
O326   O     0.40306   0.24244   0.03643   0.00000  Uiso   1.00
C327   C     0.39854   0.20840   0.05192   0.00000  Uiso   1.00
H328   H     0.38392   0.21178   0.07932   0.00000  Uiso   1.00
H329   H     0.42381   0.19415   0.05915   0.00000  Uiso   1.00
C330   C     0.37669   0.18631   0.02419   0.00000  Uiso   1.00
H331   H     0.35529   0.20272   0.01111   0.00000  Uiso   1.00
H332   H     0.39420   0.17595   0.00105   0.00000  Uiso   1.00
C333   C     0.36044   0.15596   0.04606   0.00000  Uiso   1.00
H334   H     0.38233   0.14045   0.05929   0.00000  Uiso   1.00
H335   H     0.34547   0.13864   0.02684   0.00000  Uiso   1.00
H336   H     0.34184   0.16611   0.06832   0.00000  Uiso   1.00
O337   O     0.24630   0.09686   0.96176   0.00000  Uiso   1.00
C338   C     0.27909   0.10137   0.94269   0.00000  Uiso   1.00
H339   H     0.27613   0.12427   0.92291   0.00000  Uiso   1.00
H340   H     0.28679   0.07824   0.92476   0.00000  Uiso   1.00
C341   C     0.30862   0.10929   0.97120   0.00000  Uiso   1.00
H342   H     0.30152   0.13407   0.98669   0.00000  Uiso   1.00
H343   H     0.31137   0.08711   0.99199   0.00000  Uiso   1.00
C344   C     0.34377   0.11375   0.95053   0.00000  Uiso   1.00
H345   H     0.34848   0.09118   0.93055   0.00000  Uiso   1.00
H346   H     0.36598   0.11423   0.97136   0.00000  Uiso   1.00
H347   H     0.34324   0.13916   0.93450   0.00000  Uiso   1.00
O348   O     0.25742   0.40290   0.03636   0.00000  Uiso   1.00
C349   C     0.29124   0.39820   0.05234   0.00000  Uiso   1.00
H350   H     0.28746   0.38330   0.07950   0.00000  Uiso   1.00
H351   H     0.30544   0.42336   0.06008   0.00000  Uiso   1.00
C352   C     0.31356   0.37666   0.02465   0.00000  Uiso   1.00
H353   H     0.29722   0.35535   0.01126   0.00000  Uiso   1.00
H354   H     0.32398   0.39437   0.00172   0.00000  Uiso   1.00
C355   C     0.34386   0.36035   0.04661   0.00000  Uiso   1.00
H356   H     0.35965   0.38214   0.05965   0.00000  Uiso   1.00
H357   H     0.36087   0.34507   0.02739   0.00000  Uiso   1.00
H358   H     0.33361   0.34200   0.06904   0.00000  Uiso   1.00
O359   O     0.40325   0.24764   0.96176   0.00000  Uiso   1.00
C360   C     0.39903   0.28044   0.94275   0.00000  Uiso   1.00
H361   H     0.37660   0.27749   0.92226   0.00000  Uiso   1.00
H362   H     0.42258   0.28838   0.92554   0.00000  Uiso   1.00
C363   C     0.39028   0.30968   0.97120   0.00000  Uiso   1.00
H364   H     0.36477   0.30267   0.98533   0.00000  Uiso   1.00
H365   H     0.41164   0.31190   0.99309   0.00000  Uiso   1.00
C366   C     0.38704   0.34509   0.95082   0.00000  Uiso   1.00
H367   H     0.41052   0.34978   0.93209   0.00000  Uiso   1.00
H368   H     0.38586   0.36696   0.97203   0.00000  Uiso   1.00
H369   H     0.36234   0.34505   0.93343   0.00000  Uiso   1.00
O370   O     0.09729   0.25879   0.03691   0.00000  Uiso   1.00
C371   C     0.10117   0.29279   0.05287   0.00000  Uiso   1.00
H372   H     0.11477   0.28935   0.08087   0.00000  Uiso   1.00
H373   H     0.07564   0.30704   0.05908   0.00000  Uiso   1.00
C374   C     0.12399   0.31509   0.02630   0.00000  Uiso   1.00
H375   H     0.14569   0.29872   0.01366   0.00000  Uiso   1.00
H376   H     0.10725   0.32581   0.00272   0.00000  Uiso   1.00
C377   C     0.13981   0.34502   0.04930   0.00000  Uiso   1.00
H378   H     0.11771   0.36015   0.06276   0.00000  Uiso   1.00
H379   H     0.15489   0.36295   0.03084   0.00000  Uiso   1.00
H380   H     0.15817   0.33446   0.07158   0.00000  Uiso   1.00
N381   N     0.12974   0.42149   0.18907   0.00000  Uiso   1.00
H382   H     0.12380   0.40757   0.16478   0.00000  Uiso   1.00
C383   C     0.11658   0.45774   0.18844   0.00000  Uiso   1.00
H384   H     0.09351   0.45988   0.16902   0.00000  Uiso   1.00
H385   H     0.13773   0.47539   0.17670   0.00000  Uiso   1.00
H386   H     0.10923   0.46698   0.21763   0.00000  Uiso   1.00
N387   N     0.37846   0.06663   0.80517   0.00000  Uiso   1.00
H388   H     0.40332   0.05611   0.81023   0.00000  Uiso   1.00
C389   C     0.35394   0.06319   0.83750   0.00000  Uiso   1.00
H390   H     0.36552   0.07478   0.86358   0.00000  Uiso   1.00
H391   H     0.34889   0.03436   0.84278   0.00000  Uiso   1.00
H392   H     0.32792   0.07625   0.83180   0.00000  Uiso   1.00
N393   N     0.07690   0.12807   0.19010   0.00000  Uiso   1.00
H394   H     0.08995   0.12037   0.16599   0.00000  Uiso   1.00
C395   C     0.04047   0.11536   0.19098   0.00000  Uiso   1.00
H396   H     0.03794   0.09093   0.17373   0.00000  Uiso   1.00
H397   H     0.02288   0.13580   0.17783   0.00000  Uiso   1.00
H398   H     0.03133   0.11029   0.22090   0.00000  Uiso   1.00
N399   N     0.43442   0.37997   0.80413   0.00000  Uiso   1.00
H400   H     0.44338   0.40532   0.80962   0.00000  Uiso   1.00
C401   C     0.43971   0.35584   0.83651   0.00000  Uiso   1.00
H402   H     0.43031   0.36800   0.86346   0.00000  Uiso   1.00
H403   H     0.46882   0.35048   0.83973   0.00000  Uiso   1.00
H404   H     0.42587   0.33001   0.83251   0.00000  Uiso   1.00
N405   N     0.36964   0.07892   0.18886   0.00000  Uiso   1.00
H406   H     0.37519   0.09326   0.16483   0.00000  Uiso   1.00
C407   C     0.38295   0.04274   0.18738   0.00000  Uiso   1.00
H408   H     0.40587   0.04104   0.16767   0.00000  Uiso   1.00
H409   H     0.36178   0.02518   0.17553   0.00000  Uiso   1.00
H410   H     0.39055   0.03306   0.21633   0.00000  Uiso   1.00
N411   N     0.12188   0.43300   0.80573   0.00000  Uiso   1.00
H412   H     0.09710   0.44362   0.81102   0.00000  Uiso   1.00
C413   C     0.14693   0.43662   0.83758   0.00000  Uiso   1.00
H414   H     0.13562   0.42565   0.86413   0.00000  Uiso   1.00
H415   H     0.15237   0.46545   0.84236   0.00000  Uiso   1.00
H416   H     0.17271   0.42318   0.83168   0.00000  Uiso   1.00
N417   N     0.42254   0.37125   0.18990   0.00000  Uiso   1.00
H418   H     0.40887   0.37820   0.16595   0.00000  Uiso   1.00
C419   C     0.45886   0.38423   0.18979   0.00000  Uiso   1.00
H420   H     0.46093   0.40822   0.17181   0.00000  Uiso   1.00
H421   H     0.47641   0.36360   0.17693   0.00000  Uiso   1.00
H422   H     0.46837   0.39007   0.21941   0.00000  Uiso   1.00
N423   N     0.06597   0.12058   0.80448   0.00000  Uiso   1.00
H424   H     0.05678   0.09536   0.81018   0.00000  Uiso   1.00
C425   C     0.06120   0.14504   0.83675   0.00000  Uiso   1.00
H426   H     0.07112   0.13321   0.86361   0.00000  Uiso   1.00
H427   H     0.03215   0.15040   0.84045   0.00000  Uiso   1.00
H428   H     0.07492   0.17083   0.83217   0.00000  Uiso   1.00
N429   N     0.11538   0.06705   0.80179   0.00000  Uiso   1.00
H430   H     0.13577   0.06100   0.81948   0.00000  Uiso   1.00
C431   C     0.09632   0.03638   0.78737   0.00000  Uiso   1.00
H432   H     0.08695   0.02063   0.81261   0.00000  Uiso   1.00
H433   H     0.11403   0.01892   0.76968   0.00000  Uiso   1.00
H434   H     0.07276   0.04495   0.77011   0.00000  Uiso   1.00
N435   N     0.37697   0.42935   0.19478   0.00000  Uiso   1.00
H436   H     0.40226   0.43715   0.18692   0.00000  Uiso   1.00
C437   C     0.35224   0.42736   0.16270   0.00000  Uiso   1.00
H438   H     0.34333   0.45472   0.15526   0.00000  Uiso   1.00
H439   H     0.32839   0.41115   0.16978   0.00000  Uiso   1.00
H440   H     0.36538   0.41584   0.13713   0.00000  Uiso   1.00
N441   N     0.06753   0.38330   0.80305   0.00000  Uiso   1.00
H442   H     0.06035   0.36169   0.81878   0.00000  Uiso   1.00
C443   C     0.03737   0.40328   0.78927   0.00000  Uiso   1.00
H444   H     0.02357   0.41540   0.81432   0.00000  Uiso   1.00
H445   H     0.01809   0.38552   0.77457   0.00000  Uiso   1.00
H446   H     0.04571   0.42464   0.76946   0.00000  Uiso   1.00
N447   N     0.42763   0.12475   0.19278   0.00000  Uiso   1.00
H448   H     0.43528   0.09982   0.18342   0.00000  Uiso   1.00
C449   C     0.42493   0.15090   0.16217   0.00000  Uiso   1.00
H450   H     0.45210   0.16013   0.15443   0.00000  Uiso   1.00
H451   H     0.40892   0.17440   0.17098   0.00000  Uiso   1.00
H452   H     0.41275   0.13899   0.13623   0.00000  Uiso   1.00
N453   N     0.38462   0.43323   0.80149   0.00000  Uiso   1.00
H454   H     0.36483   0.43877   0.82021   0.00000  Uiso   1.00
C455   C     0.40364   0.46393   0.78724   0.00000  Uiso   1.00
H456   H     0.41358   0.47916   0.81254   0.00000  Uiso   1.00
H457   H     0.38590   0.48174   0.77046   0.00000  Uiso   1.00
H458   H     0.42669   0.45556   0.76954   0.00000  Uiso   1.00
N459   N     0.12312   0.07048   0.19482   0.00000  Uiso   1.00
H460   H     0.09786   0.06250   0.18709   0.00000  Uiso   1.00
C461   C     0.14774   0.07249   0.16266   0.00000  Uiso   1.00
H462   H     0.15643   0.04512   0.15492   0.00000  Uiso   1.00
H463   H     0.17173   0.08847   0.16976   0.00000  Uiso   1.00
H464   H     0.13457   0.08429   0.13724   0.00000  Uiso   1.00
N465   N     0.43266   0.11649   0.80287   0.00000  Uiso   1.00
H466   H     0.43993   0.13822   0.81833   0.00000  Uiso   1.00
C467   C     0.46286   0.09673   0.78881   0.00000  Uiso   1.00
H468   H     0.47680   0.08444   0.81363   0.00000  Uiso   1.00
H469   H     0.48199   0.11474   0.77426   0.00000  Uiso   1.00
H470   H     0.45462   0.07549   0.76873   0.00000  Uiso   1.00
N471   N     0.07209   0.37524   0.19299   0.00000  Uiso   1.00
H472   H     0.06410   0.40016   0.18399   0.00000  Uiso   1.00
C473   C     0.07478   0.34927   0.16217   0.00000  Uiso   1.00
H474   H     0.04763   0.33989   0.15454   0.00000  Uiso   1.00
H475   H     0.09096   0.32582   0.17074   0.00000  Uiso   1.00
H476   H     0.08677   0.36140   0.13628   0.00000  Uiso   1.00
N477   N     0.38084   0.17038   0.68845   0.00000  Uiso   1.00
H478   H     0.37554   0.15564   0.66456   0.00000  Uiso   1.00
C479   C     0.36769   0.20660   0.68612   0.00000  Uiso   1.00
H480   H     0.34542   0.20822   0.66554   0.00000  Uiso   1.00
H481   H     0.38927   0.22397   0.67483   0.00000  Uiso   1.00
H482   H     0.35919   0.21657   0.71469   0.00000  Uiso   1.00
N483   N     0.12892   0.31628   0.30466   0.00000  Uiso   1.00
H484   H     0.15382   0.30571   0.30938   0.00000  Uiso   1.00
C485   C     0.10467   0.31261   0.33720   0.00000  Uiso   1.00
H486   H     0.11662   0.32368   0.36336   0.00000  Uiso   1.00
H487   H     0.09941   0.28376   0.34207   0.00000  Uiso   1.00
H488   H     0.07873   0.32600   0.33199   0.00000  Uiso   1.00
N489   N     0.32790   0.37898   0.68960   0.00000  Uiso   1.00
H490   H     0.34180   0.37191   0.66584   0.00000  Uiso   1.00
C491   C     0.29148   0.36621   0.68893   0.00000  Uiso   1.00
H492   H     0.28942   0.34246   0.67054   0.00000  Uiso   1.00
H493   H     0.27418   0.38709   0.67615   0.00000  Uiso   1.00
H494   H     0.28164   0.36010   0.71835   0.00000  Uiso   1.00
N495   N     0.18380   0.12936   0.30490   0.00000  Uiso   1.00
H496   H     0.19269   0.15462   0.31094   0.00000  Uiso   1.00
C497   C     0.18903   0.10466   0.33679   0.00000  Uiso   1.00
H498   H     0.17962   0.11630   0.36398   0.00000  Uiso   1.00
H499   H     0.21813   0.09925   0.33998   0.00000  Uiso   1.00
H500   H     0.17518   0.07892   0.33224   0.00000  Uiso   1.00
N501   N     0.12172   0.32677   0.69041   0.00000  Uiso   1.00
H502   H     0.12838   0.33984   0.66587   0.00000  Uiso   1.00
C503   C     0.13490   0.29052   0.69146   0.00000  Uiso   1.00
H504   H     0.15894   0.28800   0.67348   0.00000  Uiso   1.00
H505   H     0.11434   0.27258   0.67902   0.00000  Uiso   1.00
H506   H     0.14075   0.28195   0.72130   0.00000  Uiso   1.00
N507   N     0.37100   0.18401   0.30438   0.00000  Uiso   1.00
H508   H     0.34615   0.19479   0.30876   0.00000  Uiso   1.00
C509   C     0.39494   0.18743   0.33716   0.00000  Uiso   1.00
H510   H     0.38286   0.17583   0.36299   0.00000  Uiso   1.00
H511   H     0.39992   0.21626   0.34261   0.00000  Uiso   1.00
H512   H     0.42105   0.17440   0.33199   0.00000  Uiso   1.00
N513   N     0.17317   0.12182   0.69025   0.00000  Uiso   1.00
H514   H     0.16007   0.12941   0.66608   0.00000  Uiso   1.00
C515   C     0.20955   0.13475   0.69113   0.00000  Uiso   1.00
H516   H     0.21197   0.15919   0.67387   0.00000  Uiso   1.00
H517   H     0.22723   0.11437   0.67797   0.00000  Uiso   1.00
H518   H     0.21865   0.13988   0.72111   0.00000  Uiso   1.00
N519   N     0.31614   0.37054   0.30457   0.00000  Uiso   1.00
H520   H     0.30712   0.34528   0.31038   0.00000  Uiso   1.00
C521   C     0.31134   0.39506   0.33678   0.00000  Uiso   1.00
H522   H     0.32134   0.38329   0.36364   0.00000  Uiso   1.00
H523   H     0.28228   0.40036   0.34051   0.00000  Uiso   1.00
H524   H     0.32498   0.42088   0.33213   0.00000  Uiso   1.00
N525   N     0.36558   0.31670   0.30116   0.00000  Uiso   1.00
H526   H     0.38395   0.31177   0.32127   0.00000  Uiso   1.00
C527   C     0.34598   0.28628   0.28708   0.00000  Uiso   1.00
H528   H     0.33352   0.27301   0.31205   0.00000  Uiso   1.00
H529   H     0.36397   0.26679   0.27308   0.00000  Uiso   1.00
H530   H     0.32486   0.29465   0.26678   0.00000  Uiso   1.00
N531   N     0.12718   0.17962   0.69508   0.00000  Uiso   1.00
H532   H     0.15251   0.18760   0.68755   0.00000  Uiso   1.00
C533   C     0.10274   0.17773   0.66273   0.00000  Uiso   1.00
H534   H     0.09403   0.20512   0.65519   0.00000  Uiso   1.00
H535   H     0.07874   0.16164   0.66957   0.00000  Uiso   1.00
H536   H     0.11606   0.16612   0.63731   0.00000  Uiso   1.00
N537   N     0.31715   0.13377   0.30265   0.00000  Uiso   1.00
H538   H     0.31007   0.11220   0.31844   0.00000  Uiso   1.00
C539   C     0.28682   0.15333   0.28861   0.00000  Uiso   1.00
H540   H     0.27282   0.16548   0.31350   0.00000  Uiso   1.00
H541   H     0.26777   0.13528   0.27399   0.00000  Uiso   1.00
H542   H     0.29498   0.17463   0.26863   0.00000  Uiso   1.00
N543   N     0.17870   0.37382   0.69390   0.00000  Uiso   1.00
H544   H     0.18691   0.34880   0.68539   0.00000  Uiso   1.00
C545   C     0.17605   0.39920   0.66255   0.00000  Uiso   1.00
H546   H     0.20321   0.40854   0.65487   0.00000  Uiso   1.00
H547   H     0.15971   0.42273   0.67052   0.00000  Uiso   1.00
H548   H     0.16429   0.38655   0.63679   0.00000  Uiso   1.00
N549   N     0.13463   0.18314   0.30138   0.00000  Uiso   1.00
H550   H     0.11424   0.18971   0.31921   0.00000  Uiso   1.00
C551   C     0.15466   0.21318   0.28715   0.00000  Uiso   1.00
H552   H     0.16688   0.22667   0.31228   0.00000  Uiso   1.00
H553   H     0.13708   0.23263   0.27258   0.00000  Uiso   1.00
H554   H     0.17604   0.20436   0.26749   0.00000  Uiso   1.00
N555   N     0.37302   0.32059   0.69480   0.00000  Uiso   1.00
H556   H     0.34769   0.31292   0.68691   0.00000  Uiso   1.00
C557   C     0.39777   0.32241   0.66272   0.00000  Uiso   1.00
H558   H     0.40663   0.29501   0.65534   0.00000  Uiso   1.00
H559   H     0.42164   0.33864   0.66972   0.00000  Uiso   1.00
H560   H     0.38463   0.33383   0.63706   0.00000  Uiso   1.00
N561   N     0.18281   0.36651   0.30270   0.00000  Uiso   1.00
H562   H     0.18983   0.38823   0.31836   0.00000  Uiso   1.00
C563   C     0.21319   0.34700   0.28869   0.00000  Uiso   1.00
H564   H     0.22747   0.33521   0.31356   0.00000  Uiso   1.00
H565   H     0.23197   0.36506   0.27370   0.00000  Uiso   1.00
H566   H     0.20510   0.32539   0.26901   0.00000  Uiso   1.00
N567   N     0.32238   0.12512   0.69273   0.00000  Uiso   1.00
H568   H     0.31472   0.15004   0.68340   0.00000  Uiso   1.00
C569   C     0.32500   0.09885   0.66220   0.00000  Uiso   1.00
H570   H     0.29785   0.08920   0.65494   0.00000  Uiso   1.00
H571   H     0.34144   0.07561   0.67087   0.00000  Uiso   1.00
H572   H     0.33663   0.11081   0.63603   0.00000  Uiso   1.00
O573   O     0.47815   0.31011   0.39792   0.00000  Uiso   1.00
C574   C     0.44530   0.32311   0.41223   0.00000  Uiso   1.00
H575   H     0.44842   0.35181   0.41893   0.00000  Uiso   1.00
H576   H     0.43503   0.30917   0.43815   0.00000  Uiso   1.00
C577   C     0.41740   0.32034   0.38152   0.00000  Uiso   1.00
H578   H     0.42861   0.33182   0.35470   0.00000  Uiso   1.00
H579   H     0.41107   0.29182   0.37691   0.00000  Uiso   1.00
C580   C     0.38355   0.34026   0.39289   0.00000  Uiso   1.00
H581   H     0.37921   0.33867   0.42426   0.00000  Uiso   1.00
H582   H     0.35990   0.32823   0.37901   0.00000  Uiso   1.00
H583   H     0.38550   0.36852   0.38377   0.00000  Uiso   1.00
O584   O     0.49331   0.18728   0.60319   0.00000  Uiso   1.00
C585   C     0.46236   0.16830   0.59230   0.00000  Uiso   1.00
H586   H     0.46783   0.13934   0.59569   0.00000  Uiso   1.00
H587   H     0.45429   0.17291   0.56220   0.00000  Uiso   1.00
C588   C     0.43050   0.17797   0.61640   0.00000  Uiso   1.00
H589   H     0.43531   0.16875   0.64615   0.00000  Uiso   1.00
H590   H     0.42662   0.20719   0.61640   0.00000  Uiso   1.00
C591   C     0.39753   0.16041   0.59904   0.00000  Uiso   1.00
H592   H     0.39824   0.16093   0.56738   0.00000  Uiso   1.00
H593   H     0.37312   0.17510   0.60706   0.00000  Uiso   1.00
H594   H     0.39606   0.13235   0.60914   0.00000  Uiso   1.00
O595   O     0.18867   0.48150   0.39731   0.00000  Uiso   1.00
C596   C     0.17390   0.44893   0.41009   0.00000  Uiso   1.00
H597   H     0.14505   0.45308   0.41555   0.00000  Uiso   1.00
H598   H     0.18624   0.43778   0.43659   0.00000  Uiso   1.00
C599   C     0.17706   0.42137   0.37896   0.00000  Uiso   1.00
H600   H     0.16777   0.43331   0.35160   0.00000  Uiso   1.00
H601   H     0.20542   0.41344   0.37639   0.00000  Uiso   1.00
C602   C     0.15464   0.38877   0.38852   0.00000  Uiso   1.00
H603   H     0.15696   0.38231   0.41940   0.00000  Uiso   1.00
H604   H     0.16418   0.36521   0.37266   0.00000  Uiso   1.00
H605   H     0.12643   0.39374   0.38064   0.00000  Uiso   1.00
O606   O     0.31302   0.49512   0.60358   0.00000  Uiso   1.00
C607   C     0.33210   0.46374   0.59442   0.00000  Uiso   1.00
H608   H     0.36109   0.46906   0.59872   0.00000  Uiso   1.00
H609   H     0.32832   0.45512   0.56433   0.00000  Uiso   1.00
C610   C     0.32145   0.43233   0.61907   0.00000  Uiso   1.00
H611   H     0.33087   0.43699   0.64895   0.00000  Uiso   1.00
H612   H     0.29202   0.42937   0.61903   0.00000  Uiso   1.00
C613   C     0.33818   0.39873   0.60213   0.00000  Uiso   1.00
H614   H     0.33876   0.39911   0.57040   0.00000  Uiso   1.00
H615   H     0.32210   0.37495   0.60936   0.00000  Uiso   1.00
H616   H     0.36591   0.39618   0.61304   0.00000  Uiso   1.00
O617   O     0.02351   0.19119   0.39777   0.00000  Uiso   1.00
C618   C     0.05643   0.17841   0.41217   0.00000  Uiso   1.00
H619   H     0.05331   0.14994   0.41983   0.00000  Uiso   1.00
H620   H     0.06705   0.19316   0.43746   0.00000  Uiso   1.00
C621   C     0.08393   0.17999   0.38098   0.00000  Uiso   1.00
H622   H     0.07208   0.16818   0.35462   0.00000  Uiso   1.00
H623   H     0.09075   0.20830   0.37578   0.00000  Uiso   1.00
C624   C     0.11757   0.15957   0.39199   0.00000  Uiso   1.00
H625   H     0.12279   0.16197   0.42317   0.00000  Uiso   1.00
H626   H     0.14103   0.17060   0.37683   0.00000  Uiso   1.00
H627   H     0.11471   0.13110   0.38392   0.00000  Uiso   1.00
O628   O     0.00715   0.31321   0.60370   0.00000  Uiso   1.00
C629   C     0.03917   0.33131   0.59473   0.00000  Uiso   1.00
H630   H     0.03536   0.36005   0.60139   0.00000  Uiso   1.00
H631   H     0.04667   0.32937   0.56417   0.00000  Uiso   1.00
C632   C     0.07071   0.31742   0.61720   0.00000  Uiso   1.00
H633   H     0.06720   0.32476   0.64779   0.00000  Uiso   1.00
H634   H     0.07236   0.28809   0.61468   0.00000  Uiso   1.00
C635   C     0.10472   0.33345   0.60062   0.00000  Uiso   1.00
H636   H     0.10470   0.33289   0.56888   0.00000  Uiso   1.00
H637   H     0.12829   0.31767   0.60940   0.00000  Uiso   1.00
H638   H     0.10712   0.36141   0.61075   0.00000  Uiso   1.00
O639   O     0.31024   0.01914   0.39765   0.00000  Uiso   1.00
C640   C     0.32449   0.05189   0.41072   0.00000  Uiso   1.00
H641   H     0.35332   0.04809   0.41655   0.00000  Uiso   1.00
H642   H     0.31173   0.06289   0.43707   0.00000  Uiso   1.00
C643   C     0.32131   0.07937   0.37958   0.00000  Uiso   1.00
H644   H     0.33096   0.06738   0.35235   0.00000  Uiso   1.00
H645   H     0.29288   0.08694   0.37665   0.00000  Uiso   1.00
C646   C     0.34334   0.11227   0.38921   0.00000  Uiso   1.00
H647   H     0.34249   0.11782   0.42041   0.00000  Uiso   1.00
H648   H     0.33250   0.13604   0.37466   0.00000  Uiso   1.00
H649   H     0.37124   0.10821   0.37962   0.00000  Uiso   1.00
O650   O     0.18664   0.00312   0.60417   0.00000  Uiso   1.00
C651   C     0.16688   0.03430   0.59611   0.00000  Uiso   1.00
H652   H     0.13831   0.02872   0.60198   0.00000  Uiso   1.00
H653   H     0.16893   0.04271   0.56590   0.00000  Uiso   1.00
C654   C     0.17838   0.06580   0.62017   0.00000  Uiso   1.00
H655   H     0.16946   0.06173   0.65025   0.00000  Uiso   1.00
H656   H     0.20774   0.06837   0.61962   0.00000  Uiso   1.00
C657   C     0.16210   0.09953   0.60325   0.00000  Uiso   1.00
H658   H     0.16121   0.09878   0.57157   0.00000  Uiso   1.00
H659   H     0.17891   0.12298   0.60983   0.00000  Uiso   1.00
H660   H     0.13461   0.10285   0.61463   0.00000  Uiso   1.00
O661   O     0.22788   0.05969   0.89772   0.00000  Uiso   1.00
C662   C     0.19508   0.07299   0.91191   0.00000  Uiso   1.00
H663   H     0.19850   0.10157   0.91896   0.00000  Uiso   1.00
H664   H     0.18445   0.05888   0.93756   0.00000  Uiso   1.00
C665   C     0.16735   0.07098   0.88093   0.00000  Uiso   1.00
H666   H     0.17894   0.08241   0.85428   0.00000  Uiso   1.00
H667   H     0.16048   0.04261   0.87616   0.00000  Uiso   1.00
C668   C     0.13384   0.09151   0.89212   0.00000  Uiso   1.00
H669   H     0.12866   0.08895   0.92328   0.00000  Uiso   1.00
H670   H     0.11029   0.08064   0.87701   0.00000  Uiso   1.00
H671   H     0.13681   0.12002   0.88431   0.00000  Uiso   1.00
O672   O     0.24504   0.43684   0.10336   0.00000  Uiso   1.00
C673   C     0.21312   0.41833   0.09510   0.00000  Uiso   1.00
H674   H     0.21693   0.38988   0.10319   0.00000  Uiso   1.00
H675   H     0.20592   0.41886   0.06443   0.00000  Uiso   1.00
C676   C     0.18131   0.43328   0.11639   0.00000  Uiso   1.00
H677   H     0.18437   0.42731   0.14736   0.00000  Uiso   1.00
H678   H     0.17961   0.46250   0.11238   0.00000  Uiso   1.00
C679   C     0.14756   0.41667   0.09997   0.00000  Uiso   1.00
H680   H     0.14777   0.41685   0.06826   0.00000  Uiso   1.00
H681   H     0.12385   0.43212   0.10869   0.00000  Uiso   1.00
H682   H     0.14571   0.38874   0.11027   0.00000  Uiso   1.00
O683   O     0.43995   0.22980   0.89768   0.00000  Uiso   1.00
C684   C     0.42598   0.19709   0.91114   0.00000  Uiso   1.00
H685   H     0.39722   0.20078   0.91743   0.00000  Uiso   1.00
H686   H     0.43922   0.18621   0.93727   0.00000  Uiso   1.00
C687   C     0.42863   0.16958   0.87997   0.00000  Uiso   1.00
H688   H     0.41878   0.18170   0.85293   0.00000  Uiso   1.00
H689   H     0.45695   0.16173   0.87675   0.00000  Uiso   1.00
C690   C     0.40640   0.13689   0.88972   0.00000  Uiso   1.00
H691   H     0.40840   0.13069   0.92070   0.00000  Uiso   1.00
H692   H     0.41627   0.11332   0.87406   0.00000  Uiso   1.00
H693   H     0.37824   0.14160   0.88149   0.00000  Uiso   1.00
O694   O     0.06324   0.24663   0.10409   0.00000  Uiso   1.00
C695   C     0.08260   0.21518   0.09619   0.00000  Uiso   1.00
H696   H     0.11113   0.22024   0.10274   0.00000  Uiso   1.00
H697   H     0.08100   0.20697   0.06588   0.00000  Uiso   1.00
C698   C     0.07008   0.18375   0.11969   0.00000  Uiso   1.00
H699   H     0.07815   0.18771   0.15006   0.00000  Uiso   1.00
H700   H     0.04074   0.18144   0.11811   0.00000  Uiso   1.00
C701   C     0.08650   0.14994   0.10315   0.00000  Uiso   1.00
H702   H     0.08754   0.15048   0.07147   0.00000  Uiso   1.00
H703   H     0.06982   0.12650   0.10998   0.00000  Uiso   1.00
H704   H     0.11396   0.14686   0.11461   0.00000  Uiso   1.00
O705   O     0.27086   0.43993   0.89757   0.00000  Uiso   1.00
C706   C     0.30377   0.42650   0.91127   0.00000  Uiso   1.00
H707   H     0.30050   0.39770   0.91734   0.00000  Uiso   1.00
H708   H     0.31426   0.43985   0.93748   0.00000  Uiso   1.00
C709   C     0.33154   0.42980   0.88049   0.00000  Uiso   1.00
H710   H     0.32036   0.41846   0.85358   0.00000  Uiso   1.00
H711   H     0.33759   0.45842   0.87617   0.00000  Uiso   1.00
C712   C     0.36567   0.41016   0.89151   0.00000  Uiso   1.00
H713   H     0.36962   0.41063   0.92298   0.00000  Uiso   1.00
H714   H     0.38922   0.42320   0.87857   0.00000  Uiso   1.00
H715   H     0.36448   0.38224   0.88110   0.00000  Uiso   1.00
O716   O     0.25597   0.06299   0.10342   0.00000  Uiso   1.00
C717   C     0.28735   0.08179   0.09373   0.00000  Uiso   1.00
H718   H     0.28269   0.11054   0.09948   0.00000  Uiso   1.00
H719   H     0.29495   0.07918   0.06327   0.00000  Uiso   1.00
C720   C     0.31924   0.06953   0.11647   0.00000  Uiso   1.00
H721   H     0.31521   0.07722   0.14687   0.00000  Uiso   1.00
H722   H     0.32202   0.04027   0.11449   0.00000  Uiso   1.00
C723   C     0.35260   0.08672   0.09965   0.00000  Uiso   1.00
H724   H     0.35242   0.08612   0.06795   0.00000  Uiso   1.00
H725   H     0.37677   0.07186   0.10820   0.00000  Uiso   1.00
H726   H     0.35413   0.11474   0.10973   0.00000  Uiso   1.00
O727   O     0.06119   0.26854   0.89741   0.00000  Uiso   1.00
C728   C     0.07630   0.30091   0.91043   0.00000  Uiso   1.00
H729   H     0.10498   0.29633   0.91644   0.00000  Uiso   1.00
H730   H     0.06364   0.31237   0.93660   0.00000  Uiso   1.00
C731   C     0.07424   0.32842   0.87919   0.00000  Uiso   1.00
H732   H     0.08369   0.31630   0.85195   0.00000  Uiso   1.00
H733   H     0.04608   0.33692   0.87621   0.00000  Uiso   1.00
C734   C     0.09725   0.36052   0.88915   0.00000  Uiso   1.00
H735   H     0.09366   0.36776   0.91973   0.00000  Uiso   1.00
H736   H     0.08927   0.38396   0.87213   0.00000  Uiso   1.00
H737   H     0.12568   0.35448   0.88307   0.00000  Uiso   1.00
O738   O     0.43691   0.25479   0.10376   0.00000  Uiso   1.00
C739   C     0.41761   0.28601   0.09460   0.00000  Uiso   1.00
H740   H     0.38875   0.28042   0.09870   0.00000  Uiso   1.00
H741   H     0.42137   0.29466   0.06462   0.00000  Uiso   1.00
C742   C     0.42776   0.31735   0.11952   0.00000  Uiso   1.00
H743   H     0.41768   0.31274   0.14911   0.00000  Uiso   1.00
H744   H     0.45713   0.32023   0.12033   0.00000  Uiso   1.00
C745   C     0.41160   0.35104   0.10223   0.00000  Uiso   1.00
H746   H     0.41148   0.35044   0.07054   0.00000  Uiso   1.00
H747   H     0.42791   0.37466   0.10944   0.00000  Uiso   1.00
H748   H     0.38383   0.35411   0.11282   0.00000  Uiso   1.00
C749   C     0.98996   0.28101   0.41875   0.00000  Uiso   1.00
C750   C     0.99744   0.21802   0.58157   0.00000  Uiso   1.00
C751   C     0.71847   0.49103   0.41859   0.00000  Uiso   1.00
C752   C     0.78216   0.49794   0.58177   0.00000  Uiso   1.00
C753   C     0.51132   0.22017   0.41865   0.00000  Uiso   1.00
C754   C     0.50337   0.28254   0.58187   0.00000  Uiso   1.00
C755   C     0.78044   0.00924   0.41868   0.00000  Uiso   1.00
C756   C     0.71739   0.00136   0.58201   0.00000  Uiso   1.00
C757   C     0.73948   0.03052   0.91862   0.00000  Uiso   1.00
C758   C     0.74780   0.46763   0.08166   0.00000  Uiso   1.00
C759   C     0.96953   0.24036   0.91874   0.00000  Uiso   1.00
C760   C     0.53248   0.24855   0.08202   0.00000  Uiso   1.00
C761   C     0.75983   0.46930   0.91855   0.00000  Uiso   1.00
C762   C     0.75244   0.03224   0.08170   0.00000  Uiso   1.00
C763   C     0.53137   0.25908   0.91866   0.00000  Uiso   1.00
C764   C     0.96773   0.25205   0.08184   0.00000  Uiso   1.00
C765   C     0.50027   0.25044   0.39838   0.00000  Uiso   1.00
C766   C     0.50015   0.25022   0.60168   0.00000  Uiso   1.00
C767   C     0.74954   0.00008   0.39831   0.00000  Uiso   1.00
C768   C     0.74986   0.49986   0.60189   0.00000  Uiso   1.00
C769   C     0.74985   0.49998   0.89831   0.00000  Uiso   1.00
C770   C     0.75005   0.49996   0.10165   0.00000  Uiso   1.00
C771   C     0.50034   0.24991   0.89836   0.00000  Uiso   1.00
C772   C     0.50005   0.25009   0.10192   0.00000  Uiso   1.00
C773   C     0.50546   0.18647   0.47931   0.00000  Uiso   1.00
C774   C     0.99573   0.31474   0.51968   0.00000  Uiso   1.00
C775   C     0.81368   0.00357   0.47961   0.00000  Uiso   1.00
C776   C     0.68532   0.49396   0.51959   0.00000  Uiso   1.00
C777   C     0.99589   0.31464   0.47980   0.00000  Uiso   1.00
C778   C     0.50584   0.18620   0.51910   0.00000  Uiso   1.00
C779   C     0.68528   0.49611   0.47995   0.00000  Uiso   1.00
C780   C     0.81390   0.00502   0.51924   0.00000  Uiso   1.00
C781   C     0.75446   0.43589   0.97947   0.00000  Uiso   1.00
C782   C     0.74430   0.06415   0.01942   0.00000  Uiso   1.00
C783   C     0.56450   0.25391   0.98002   0.00000  Uiso   1.00
C784   C     0.93593   0.24479   0.01931   0.00000  Uiso   1.00
C785   C     0.74513   0.06404   0.97961   0.00000  Uiso   1.00
C786   C     0.75543   0.43572   0.01927   0.00000  Uiso   1.00
C787   C     0.93609   0.24616   0.97969   0.00000  Uiso   1.00
C788   C     0.56450   0.25594   0.01967   0.00000  Uiso   1.00
C789   C     0.74979   0.00002   0.35574   0.00000  Uiso   1.00
C790   C     0.75001   0.49997   0.64438   0.00000  Uiso   1.00
C791   C     0.50004   0.25021   0.35575   0.00000  Uiso   1.00
C792   C     0.50002   0.25007   0.64432   0.00000  Uiso   1.00
C793   C     0.50015   0.24999   0.85576   0.00000  Uiso   1.00
C794   C     0.99997   0.25001   0.14440   0.00000  Uiso   1.00
C795   C     0.74998   0.00001   0.85573   0.00000  Uiso   1.00
C796   C     0.75001   0.49999   0.14431   0.00000  Uiso   1.00
C797   C     0.68008   0.06975   0.25040   0.00000  Uiso   1.00
C798   C     0.82040   0.43021   0.75008   0.00000  Uiso   1.00
C799   C     0.93021   0.18009   0.25031   0.00000  Uiso   1.00
C800   C     0.56983   0.32035   0.75012   0.00000  Uiso   1.00
C801   C     0.81992   0.43023   0.25042   0.00000  Uiso   1.00
C802   C     0.67961   0.06981   0.75006   0.00000  Uiso   1.00
C803   C     0.56979   0.31990   0.25035   0.00000  Uiso   1.00
C804   C     0.93022   0.17959   0.75004   0.00000  Uiso   1.00
C805   C     0.68029   0.43001   0.75041   0.00000  Uiso   1.00
C806   C     0.81975   0.07043   0.25005   0.00000  Uiso   1.00
C807   C     0.93010   0.31979   0.75038   0.00000  Uiso   1.00
C808   C     0.57039   0.18018   0.25007   0.00000  Uiso   1.00
C809   C     0.81975   0.06993   0.75038   0.00000  Uiso   1.00
C810   C     0.68022   0.42960   0.25002   0.00000  Uiso   1.00
C811   C     0.56991   0.18023   0.75041   0.00000  Uiso   1.00
C812   C     0.92962   0.31981   0.25005   0.00000  Uiso   1.00
C813   C     0.62548   0.40053   0.22244   0.00000  Uiso   1.00
C814   C     0.87573   0.09607   0.77882   0.00000  Uiso   1.00
C815   C     0.59873   0.12471   0.22296   0.00000  Uiso   1.00
C816   C     0.90446   0.37620   0.77830   0.00000  Uiso   1.00
C817   C     0.87435   0.09951   0.22238   0.00000  Uiso   1.00
C818   C     0.62446   0.40373   0.77909   0.00000  Uiso   1.00
C819   C     0.90125   0.37514   0.22295   0.00000  Uiso   1.00
C820   C     0.59571   0.12402   0.77830   0.00000  Uiso   1.00
C821   C     0.62093   0.09613   0.77675   0.00000  Uiso   1.00
C822   C     0.87499   0.40201   0.22334   0.00000  Uiso   1.00
C823   C     0.59656   0.37844   0.77733   0.00000  Uiso   1.00
C824   C     0.90124   0.12572   0.22244   0.00000  Uiso   1.00
C825   C     0.87910   0.40401   0.77659   0.00000  Uiso   1.00
C826   C     0.62507   0.09792   0.22325   0.00000  Uiso   1.00
C827   C     0.90358   0.12141   0.77717   0.00000  Uiso   1.00
C828   C     0.59865   0.37426   0.22254   0.00000  Uiso   1.00
C829   C     0.87573   0.15034   0.72232   0.00000  Uiso   1.00
C830   C     0.62597   0.34587   0.27853   0.00000  Uiso   1.00
C831   C     0.84888   0.37492   0.72294   0.00000  Uiso   1.00
C832   C     0.65417   0.12589   0.27858   0.00000  Uiso   1.00
C833   C     0.62514   0.34877   0.72313   0.00000  Uiso   1.00
C834   C     0.87395   0.15427   0.27846   0.00000  Uiso   1.00
C835   C     0.65131   0.12522   0.72302   0.00000  Uiso   1.00
C836   C     0.84585   0.37404   0.27838   0.00000  Uiso   1.00
C837   C     0.87109   0.34615   0.27671   0.00000  Uiso   1.00
C838   C     0.62504   0.15207   0.72340   0.00000  Uiso   1.00
C839   C     0.84618   0.12883   0.27696   0.00000  Uiso   1.00
C840   C     0.65188   0.37513   0.72310   0.00000  Uiso   1.00
C841   C     0.62895   0.15379   0.27669   0.00000  Uiso   1.00
C842   C     0.87508   0.34801   0.72329   0.00000  Uiso   1.00
C843   C     0.65374   0.37131   0.27692   0.00000  Uiso   1.00
C844   C     0.84876   0.12420   0.72249   0.00000  Uiso   1.00
C845   C     0.50588   0.21877   0.45899   0.00000  Uiso   1.00
C846   C     0.99972   0.28292   0.54095   0.00000  Uiso   1.00
C847   C     0.78145   0.00431   0.45901   0.00000  Uiso   1.00
C848   C     0.71710   0.49816   0.54117   0.00000  Uiso   1.00
C849   C     0.99554   0.28240   0.45917   0.00000  Uiso   1.00
C850   C     0.50164   0.21789   0.54068   0.00000  Uiso   1.00
C851   C     0.71744   0.49571   0.45905   0.00000  Uiso   1.00
C852   C     0.78219   0.00129   0.54096   0.00000  Uiso   1.00
C853   C     0.75470   0.46810   0.95897   0.00000  Uiso   1.00
C854   C     0.74860   0.03243   0.04080   0.00000  Uiso   1.00
C855   C     0.53235   0.25442   0.95913   0.00000  Uiso   1.00
C856   C     0.96765   0.24873   0.04103   0.00000  Uiso   1.00
C857   C     0.74479   0.03180   0.95905   0.00000  Uiso   1.00
C858   C     0.75129   0.46743   0.04076   0.00000  Uiso   1.00
C859   C     0.96836   0.24555   0.95905   0.00000  Uiso   1.00
C860   C     0.53273   0.25184   0.04120   0.00000  Uiso   1.00
C861   C     0.59806   0.34752   0.25089   0.00000  Uiso   1.00
C862   C     0.90256   0.15039   0.75075   0.00000  Uiso   1.00
C863   C     0.65238   0.09785   0.25127   0.00000  Uiso   1.00
C864   C     0.84946   0.40244   0.75069   0.00000  Uiso   1.00
C865   C     0.90188   0.15251   0.25087   0.00000  Uiso   1.00
C866   C     0.59770   0.34930   0.75103   0.00000  Uiso   1.00
C867   C     0.84765   0.40213   0.25125   0.00000  Uiso   1.00
C868   C     0.65061   0.09761   0.75061   0.00000  Uiso   1.00
C869   C     0.59760   0.15211   0.75120   0.00000  Uiso   1.00
C870   C     0.90066   0.34765   0.25059   0.00000  Uiso   1.00
C871   C     0.65224   0.40217   0.75128   0.00000  Uiso   1.00
C872   C     0.84736   0.09964   0.25073   0.00000  Uiso   1.00
C873   C     0.90248   0.34798   0.75121   0.00000  Uiso   1.00
C874   C     0.59937   0.15232   0.25068   0.00000  Uiso   1.00
C875   C     0.84797   0.09761   0.75100   0.00000  Uiso   1.00
C876   C     0.65255   0.40041   0.25067   0.00000  Uiso   1.00
C877   C     0.50072   0.25055   0.47960   0.00000  Uiso   1.00
C878   C     0.50070   0.25046   0.52051   0.00000  Uiso   1.00
C879   C     0.74948   0.49997   0.47977   0.00000  Uiso   1.00
C880   C     0.74958   0.49988   0.52055   0.00000  Uiso   1.00
C881   C     0.74980   0.49995   0.97953   0.00000  Uiso   1.00
C882   C     0.74988   0.49993   0.02046   0.00000  Uiso   1.00
C883   C     0.50031   0.25013   0.97983   0.00000  Uiso   1.00
C884   C     0.50024   0.25020   0.02060   0.00000  Uiso   1.00
O885   O     0.75000  -0.00000   0.25000   0.00000  Uiso   1.00
O886   O     0.75000   0.00000   0.75000   0.00000  Uiso   1.00
O887   O     0.50000   0.25000   0.25000   0.00000  Uiso   1.00
O888   O     0.50000   0.25000   0.75000   0.00000  Uiso   1.00
O889   O     0.75000   0.46964   0.33755   0.00000  Uiso   1.00
O890   O     0.75000   0.03036   0.66245   0.00000  Uiso   1.00
O891   O     0.53037   0.25000   0.33755   0.00000  Uiso   1.00
O892   O     0.96964   0.25000   0.66245   0.00000  Uiso   1.00
O893   O     0.75000   0.03036   0.33755   0.00000  Uiso   1.00
O894   O     0.75000   0.46964   0.66245   0.00000  Uiso   1.00
O895   O     0.96964   0.25000   0.33755   0.00000  Uiso   1.00
O896   O     0.53037   0.25000   0.66245   0.00000  Uiso   1.00
O897   O     0.50000   0.21964   0.83755   0.00000  Uiso   1.00
O898   O     0.50000   0.28037   0.16245   0.00000  Uiso   1.00
O899   O     0.78037   0.00000   0.83755   0.00000  Uiso   1.00
O900   O     0.71964   0.00000   0.16245   0.00000  Uiso   1.00
O901   O     0.50000   0.28037   0.83755   0.00000  Uiso   1.00
O902   O     0.50000   0.21964   0.16245   0.00000  Uiso   1.00
O903   O     0.71964   0.00000   0.83755   0.00000  Uiso   1.00
O904   O     0.78037   0.00000   0.16245   0.00000  Uiso   1.00
O905   O     0.70725   0.07307   0.27302   0.00000  Uiso   1.00
O906   O     0.79276   0.42693   0.72698   0.00000  Uiso   1.00
O907   O     0.92693   0.20724   0.27302   0.00000  Uiso   1.00
O908   O     0.57308   0.29276   0.72698   0.00000  Uiso   1.00
O909   O     0.79276   0.42693   0.27302   0.00000  Uiso   1.00
O910   O     0.70725   0.07307   0.72698   0.00000  Uiso   1.00
O911   O     0.57308   0.29276   0.27302   0.00000  Uiso   1.00
O912   O     0.92693   0.20724   0.72698   0.00000  Uiso   1.00
O913   O     0.70725   0.42693   0.72698   0.00000  Uiso   1.00
O914   O     0.79276   0.07307   0.27302   0.00000  Uiso   1.00
O915   O     0.92693   0.29275   0.72698   0.00000  Uiso   1.00
O916   O     0.57308   0.20725   0.27302   0.00000  Uiso   1.00
O917   O     0.79276   0.07307   0.72698   0.00000  Uiso   1.00
O918   O     0.70725   0.42693   0.27302   0.00000  Uiso   1.00
O919   O     0.57308   0.20725   0.72698   0.00000  Uiso   1.00
O920   O     0.92693   0.29275   0.27302   0.00000  Uiso   1.00
O921   O     0.95725   0.32307   0.77302   0.00000  Uiso   1.00
O922   O     0.54276   0.17693   0.22698   0.00000  Uiso   1.00
O923   O     0.67693   0.45725   0.77302   0.00000  Uiso   1.00
O924   O     0.82308   0.04275   0.22698   0.00000  Uiso   1.00
O925   O     0.54276   0.17693   0.77302   0.00000  Uiso   1.00
O926   O     0.95725   0.32307   0.22698   0.00000  Uiso   1.00
O927   O     0.82308   0.04275   0.77302   0.00000  Uiso   1.00
O928   O     0.67693   0.45725   0.22698   0.00000  Uiso   1.00
O929   O     0.95725   0.17692   0.22698   0.00000  Uiso   1.00
O930   O     0.54276   0.32308   0.77302   0.00000  Uiso   1.00
O931   O     0.67693   0.04275   0.22698   0.00000  Uiso   1.00
O932   O     0.82308   0.45725   0.77302   0.00000  Uiso   1.00
O933   O     0.54276   0.32308   0.22698   0.00000  Uiso   1.00
O934   O     0.95725   0.17692   0.77302   0.00000  Uiso   1.00
O935   O     0.82308   0.45725   0.22698   0.00000  Uiso   1.00
O936   O     0.67693   0.04275   0.77302   0.00000  Uiso   1.00
Zn937  Zn    0.70660  -0.00000   0.21735   0.00000  Uiso   1.00
Zn938  Zn    0.79341  -0.00000   0.78265   0.00000  Uiso   1.00
Zn939  Zn    0.50000   0.20660   0.21735   0.00000  Uiso   1.00
Zn940  Zn    0.50000   0.29341   0.78265   0.00000  Uiso   1.00
Zn941  Zn    0.79341  -0.00000   0.21735   0.00000  Uiso   1.00
Zn942  Zn    0.70660  -0.00000   0.78265   0.00000  Uiso   1.00
Zn943  Zn    0.50000   0.29341   0.21735   0.00000  Uiso   1.00
Zn944  Zn    0.50000   0.20660   0.78265   0.00000  Uiso   1.00
Zn945  Zn    0.95660   0.25000   0.71735   0.00000  Uiso   1.00
Zn946  Zn    0.54341   0.25000   0.28265   0.00000  Uiso   1.00
Zn947  Zn    0.75000   0.45660   0.71735   0.00000  Uiso   1.00
Zn948  Zn    0.75000   0.04340   0.28265   0.00000  Uiso   1.00
Zn949  Zn    0.54341   0.25000   0.71735   0.00000  Uiso   1.00
Zn950  Zn    0.95660   0.25000   0.28265   0.00000  Uiso   1.00
Zn951  Zn    0.75000   0.04340   0.71735   0.00000  Uiso   1.00
Zn952  Zn    0.75000   0.45660   0.28265   0.00000  Uiso   1.00
O953   O     0.50472   0.15372   0.46121   0.00000  Uiso   1.00
C954   C     0.97230   0.14911   0.44142   0.00000  Uiso   1.00
H955   H     0.97594   0.12677   0.42097   0.00000  Uiso   1.00
H956   H     0.96433   0.17253   0.42410   0.00000  Uiso   1.00
C957   C     0.94260   0.13996   0.46921   0.00000  Uiso   1.00
H958   H     0.94976   0.11470   0.48373   0.00000  Uiso   1.00
H959   H     0.93945   0.16139   0.49089   0.00000  Uiso   1.00
C960   C     0.90774   0.13589   0.44786   0.00000  Uiso   1.00
H961   H     0.90271   0.15942   0.42930   0.00000  Uiso   1.00
H962   H     0.88538   0.13379   0.46839   0.00000  Uiso   1.00
H963   H     0.90898   0.11140   0.43016   0.00000  Uiso   1.00
O964   O     0.99445   0.34757   0.53699   0.00000  Uiso   1.00
C965   C     0.96096   0.35261   0.55377   0.00000  Uiso   1.00
H966   H     0.96528   0.36830   0.58041   0.00000  Uiso   1.00
H967   H     0.94705   0.32758   0.56265   0.00000  Uiso   1.00
C968   C     0.93779   0.37328   0.52616   0.00000  Uiso   1.00
H969   H     0.95348   0.39476   0.51224   0.00000  Uiso   1.00
H970   H     0.92738   0.35506   0.50363   0.00000  Uiso   1.00
C971   C     0.90741   0.38917   0.54844   0.00000  Uiso   1.00
H972   H     0.89230   0.36724   0.56213   0.00000  Uiso   1.00
H973   H     0.88974   0.40365   0.52915   0.00000  Uiso   1.00
H974   H     0.91752   0.40817   0.57034   0.00000  Uiso   1.00
O975   O     0.84642   0.00124   0.46160   0.00000  Uiso   1.00
C976   C     0.85016   0.46772   0.44386   0.00000  Uiso   1.00
H977   H     0.87321   0.46938   0.42402   0.00000  Uiso   1.00
H978   H     0.82681   0.46005   0.42617   0.00000  Uiso   1.00
C979   C     0.85728   0.43905   0.47357   0.00000  Uiso   1.00
H980   H     0.88212   0.44634   0.48888   0.00000  Uiso   1.00
H981   H     0.83493   0.43743   0.49435   0.00000  Uiso   1.00
C982   C     0.86119   0.40312   0.45438   0.00000  Uiso   1.00
H983   H     0.83884   0.39840   0.43403   0.00000  Uiso   1.00
H984   H     0.86058   0.38168   0.47617   0.00000  Uiso   1.00
H985   H     0.88701   0.40233   0.43892   0.00000  Uiso   1.00
O986   O     0.65257   0.49070   0.53688   0.00000  Uiso   1.00
C987   C     0.64898   0.45651   0.55237   0.00000  Uiso   1.00
H988   H     0.63478   0.45952   0.58009   0.00000  Uiso   1.00
H989   H     0.67465   0.44270   0.55904   0.00000  Uiso   1.00
C990   C     0.62709   0.43398   0.52506   0.00000  Uiso   1.00
H991   H     0.60521   0.45002   0.51231   0.00000  Uiso   1.00
H992   H     0.64445   0.42392   0.50160   0.00000  Uiso   1.00
C993   C     0.61165   0.40331   0.54727   0.00000  Uiso   1.00
H994   H     0.63399   0.38809   0.56014   0.00000  Uiso   1.00
H995   H     0.59655   0.38571   0.52835   0.00000  Uiso   1.00
H996   H     0.59325   0.41320   0.56993   0.00000  Uiso   1.00
O997   O     0.99650   0.34748   0.46197   0.00000  Uiso   1.00
C998   C     0.52914   0.35249   0.44278   0.00000  Uiso   1.00
H999   H     0.52595   0.37573   0.42352   0.00000  Uiso   1.00
H1000  H     0.53673   0.32969   0.42431   0.00000  Uiso   1.00
C1001  C     0.55892   0.35999   0.47119   0.00000  Uiso   1.00
H1002  H     0.55193   0.38434   0.48753   0.00000  Uiso   1.00
H1003  H     0.56210   0.33732   0.49129   0.00000  Uiso   1.00
C1004  C     0.59377   0.36521   0.45021   0.00000  Uiso   1.00
H1005  H     0.59833   0.34324   0.42942   0.00000  Uiso   1.00
H1006  H     0.61623   0.36518   0.47072   0.00000  Uiso   1.00
H1007  H     0.59293   0.39108   0.43506   0.00000  Uiso   1.00
O1008  O     0.50734   0.15328   0.53600   0.00000  Uiso   1.00
C1009  C     0.54059   0.14857   0.55337   0.00000  Uiso   1.00
H1010  H     0.53590   0.13351   0.58027   0.00000  Uiso   1.00
H1011  H     0.55449   0.17370   0.56184   0.00000  Uiso   1.00
C1012  C     0.56397   0.12726   0.52653   0.00000  Uiso   1.00
H1013  H     0.54818   0.10603   0.51224   0.00000  Uiso   1.00
H1014  H     0.57527   0.14515   0.50423   0.00000  Uiso   1.00
C1015  C     0.59341   0.11083   0.54974   0.00000  Uiso   1.00
H1016  H     0.60849   0.13247   0.56407   0.00000  Uiso   1.00
H1017  H     0.61137   0.09607   0.53102   0.00000  Uiso   1.00
H1018  H     0.58234   0.09202   0.57129   0.00000  Uiso   1.00
O1019  O     0.65239   0.49851   0.46226   0.00000  Uiso   1.00
C1020  C     0.64853   0.03202   0.44458   0.00000  Uiso   1.00
H1021  H     0.62528   0.03039   0.42500   0.00000  Uiso   1.00
H1022  H     0.67170   0.03960   0.42659   0.00000  Uiso   1.00
C1023  C     0.64181   0.06078   0.47433   0.00000  Uiso   1.00
H1024  H     0.61696   0.05380   0.48972   0.00000  Uiso   1.00
H1025  H     0.66426   0.06210   0.49502   0.00000  Uiso   1.00
C1026  C     0.63830   0.09681   0.45524   0.00000  Uiso   1.00
H1027  H     0.66059   0.10127   0.43483   0.00000  Uiso   1.00
H1028  H     0.63929   0.11820   0.47707   0.00000  Uiso   1.00
H1029  H     0.61247   0.09802   0.43991   0.00000  Uiso   1.00
O1030  O     0.84682   0.00674   0.53630   0.00000  Uiso   1.00
C1031  C     0.85230   0.04092   0.55104   0.00000  Uiso   1.00
H1032  H     0.86721   0.03778   0.57828   0.00000  Uiso   1.00
H1033  H     0.82741   0.05580   0.55836   0.00000  Uiso   1.00
C1034  C     0.87428   0.06192   0.52248   0.00000  Uiso   1.00
H1035  H     0.89545   0.04490   0.50980   0.00000  Uiso   1.00
H1036  H     0.85680   0.07180   0.49911   0.00000  Uiso   1.00
C1037  C     0.89093   0.09266   0.54327   0.00000  Uiso   1.00
H1038  H     0.86921   0.10840   0.55657   0.00000  Uiso   1.00
H1039  H     0.90546   0.10962   0.52336   0.00000  Uiso   1.00
H1040  H     0.90991   0.08296   0.56540   0.00000  Uiso   1.00
O1041  O     0.75269   0.40318   0.96142   0.00000  Uiso   1.00
C1042  C     0.71915   0.39887   0.94381   0.00000  Uiso   1.00
H1043  H     0.72086   0.37525   0.92482   0.00000  Uiso   1.00
H1044  H     0.71157   0.42164   0.92531   0.00000  Uiso   1.00
C1045  C     0.69035   0.39269   0.97377   0.00000  Uiso   1.00
H1046  H     0.69802   0.36891   0.99067   0.00000  Uiso   1.00
H1047  H     0.68808   0.41606   0.99310   0.00000  Uiso   1.00
C1048  C     0.65461   0.38698   0.95470   0.00000  Uiso   1.00
H1049  H     0.64954   0.40799   0.93292   0.00000  Uiso   1.00
H1050  H     0.63300   0.38837   0.97623   0.00000  Uiso   1.00
H1051  H     0.65447   0.36033   0.94105   0.00000  Uiso   1.00
O1052  O     0.74227   0.09697   0.03655   0.00000  Uiso   1.00
C1053  C     0.70883   0.10120   0.05365   0.00000  Uiso   1.00
H1054  H     0.71322   0.11549   0.08112   0.00000  Uiso   1.00
H1055  H     0.69477   0.07588   0.06105   0.00000  Uiso   1.00
C1056  C     0.68577   0.12329   0.02728   0.00000  Uiso   1.00
H1057  H     0.70179   0.14471   0.01370   0.00000  Uiso   1.00
H1058  H     0.67448   0.10600   0.00441   0.00000  Uiso   1.00
C1059  C     0.65633   0.13946   0.05078   0.00000  Uiso   1.00
H1060  H     0.64099   0.11766   0.06436   0.00000  Uiso   1.00
H1061  H     0.63863   0.15482   0.03238   0.00000  Uiso   1.00
H1062  H     0.66742   0.15768   0.07287   0.00000  Uiso   1.00
O1063  O     0.59732   0.25104   0.96232   0.00000  Uiso   1.00
C1064  C     0.60083   0.21728   0.94505   0.00000  Uiso   1.00
H1065  H     0.62417   0.21841   0.92558   0.00000  Uiso   1.00
H1066  H     0.57762   0.20975   0.92707   0.00000  Uiso   1.00
C1067  C     0.60715   0.18886   0.97523   0.00000  Uiso   1.00
H1068  H     0.63177   0.19612   0.99089   0.00000  Uiso   1.00
H1069  H     0.58443   0.18772   0.99558   0.00000  Uiso   1.00
C1070  C     0.61102   0.15261   0.95669   0.00000  Uiso   1.00
H1071  H     0.58897   0.14781   0.93604   0.00000  Uiso   1.00
H1072  H     0.60989   0.13154   0.97882   0.00000  Uiso   1.00
H1073  H     0.63703   0.15134   0.94175   0.00000  Uiso   1.00
O1074  O     0.90306   0.24244   0.03643   0.00000  Uiso   1.00
C1075  C     0.89854   0.20840   0.05192   0.00000  Uiso   1.00
H1076  H     0.88392   0.21178   0.07932   0.00000  Uiso   1.00
H1077  H     0.92381   0.19415   0.05915   0.00000  Uiso   1.00
C1078  C     0.87669   0.18631   0.02419   0.00000  Uiso   1.00
H1079  H     0.85529   0.20272   0.01111   0.00000  Uiso   1.00
H1080  H     0.89420   0.17595   0.00105   0.00000  Uiso   1.00
C1081  C     0.86044   0.15596   0.04606   0.00000  Uiso   1.00
H1082  H     0.88233   0.14045   0.05929   0.00000  Uiso   1.00
H1083  H     0.84547   0.13864   0.02684   0.00000  Uiso   1.00
H1084  H     0.84184   0.16611   0.06832   0.00000  Uiso   1.00
O1085  O     0.74630   0.09686   0.96176   0.00000  Uiso   1.00
C1086  C     0.77909   0.10137   0.94269   0.00000  Uiso   1.00
H1087  H     0.77613   0.12427   0.92291   0.00000  Uiso   1.00
H1088  H     0.78679   0.07824   0.92476   0.00000  Uiso   1.00
C1089  C     0.80862   0.10929   0.97120   0.00000  Uiso   1.00
H1090  H     0.80152   0.13407   0.98669   0.00000  Uiso   1.00
H1091  H     0.81137   0.08711   0.99199   0.00000  Uiso   1.00
C1092  C     0.84377   0.11375   0.95053   0.00000  Uiso   1.00
H1093  H     0.84848   0.09118   0.93055   0.00000  Uiso   1.00
H1094  H     0.86598   0.11423   0.97136   0.00000  Uiso   1.00
H1095  H     0.84324   0.13916   0.93450   0.00000  Uiso   1.00
O1096  O     0.75742   0.40290   0.03636   0.00000  Uiso   1.00
C1097  C     0.79124   0.39820   0.05234   0.00000  Uiso   1.00
H1098  H     0.78746   0.38330   0.07950   0.00000  Uiso   1.00
H1099  H     0.80544   0.42336   0.06008   0.00000  Uiso   1.00
C1100  C     0.81356   0.37666   0.02465   0.00000  Uiso   1.00
H1101  H     0.79722   0.35535   0.01126   0.00000  Uiso   1.00
H1102  H     0.82398   0.39437   0.00172   0.00000  Uiso   1.00
C1103  C     0.84386   0.36035   0.04661   0.00000  Uiso   1.00
H1104  H     0.85965   0.38214   0.05965   0.00000  Uiso   1.00
H1105  H     0.86087   0.34507   0.02739   0.00000  Uiso   1.00
H1106  H     0.83361   0.34200   0.06904   0.00000  Uiso   1.00
O1107  O     0.90325   0.24764   0.96176   0.00000  Uiso   1.00
C1108  C     0.89903   0.28044   0.94275   0.00000  Uiso   1.00
H1109  H     0.87660   0.27749   0.92226   0.00000  Uiso   1.00
H1110  H     0.92258   0.28838   0.92554   0.00000  Uiso   1.00
C1111  C     0.89028   0.30968   0.97120   0.00000  Uiso   1.00
H1112  H     0.86477   0.30267   0.98533   0.00000  Uiso   1.00
H1113  H     0.91164   0.31190   0.99309   0.00000  Uiso   1.00
C1114  C     0.88704   0.34509   0.95082   0.00000  Uiso   1.00
H1115  H     0.91052   0.34978   0.93209   0.00000  Uiso   1.00
H1116  H     0.88586   0.36696   0.97203   0.00000  Uiso   1.00
H1117  H     0.86234   0.34505   0.93343   0.00000  Uiso   1.00
O1118  O     0.59729   0.25879   0.03691   0.00000  Uiso   1.00
C1119  C     0.60117   0.29279   0.05287   0.00000  Uiso   1.00
H1120  H     0.61477   0.28935   0.08087   0.00000  Uiso   1.00
H1121  H     0.57564   0.30704   0.05908   0.00000  Uiso   1.00
C1122  C     0.62399   0.31509   0.02630   0.00000  Uiso   1.00
H1123  H     0.64569   0.29872   0.01366   0.00000  Uiso   1.00
H1124  H     0.60725   0.32581   0.00272   0.00000  Uiso   1.00
C1125  C     0.63981   0.34502   0.04930   0.00000  Uiso   1.00
H1126  H     0.61771   0.36015   0.06276   0.00000  Uiso   1.00
H1127  H     0.65489   0.36295   0.03084   0.00000  Uiso   1.00
H1128  H     0.65817   0.33446   0.07158   0.00000  Uiso   1.00
N1129  N     0.62974   0.42149   0.18907   0.00000  Uiso   1.00
H1130  H     0.62380   0.40757   0.16478   0.00000  Uiso   1.00
C1131  C     0.61658   0.45774   0.18844   0.00000  Uiso   1.00
H1132  H     0.59351   0.45988   0.16902   0.00000  Uiso   1.00
H1133  H     0.63773   0.47539   0.17670   0.00000  Uiso   1.00
H1134  H     0.60923   0.46698   0.21763   0.00000  Uiso   1.00
N1135  N     0.87846   0.06663   0.80517   0.00000  Uiso   1.00
H1136  H     0.90332   0.05611   0.81023   0.00000  Uiso   1.00
C1137  C     0.85394   0.06319   0.83750   0.00000  Uiso   1.00
H1138  H     0.86552   0.07478   0.86358   0.00000  Uiso   1.00
H1139  H     0.84889   0.03436   0.84278   0.00000  Uiso   1.00
H1140  H     0.82792   0.07625   0.83180   0.00000  Uiso   1.00
N1141  N     0.57690   0.12807   0.19010   0.00000  Uiso   1.00
H1142  H     0.58995   0.12037   0.16599   0.00000  Uiso   1.00
C1143  C     0.54047   0.11536   0.19098   0.00000  Uiso   1.00
H1144  H     0.53794   0.09093   0.17373   0.00000  Uiso   1.00
H1145  H     0.52288   0.13580   0.17783   0.00000  Uiso   1.00
H1146  H     0.53133   0.11029   0.22090   0.00000  Uiso   1.00
N1147  N     0.93442   0.37997   0.80413   0.00000  Uiso   1.00
H1148  H     0.94338   0.40532   0.80962   0.00000  Uiso   1.00
C1149  C     0.93971   0.35584   0.83651   0.00000  Uiso   1.00
H1150  H     0.93031   0.36800   0.86346   0.00000  Uiso   1.00
H1151  H     0.96882   0.35048   0.83973   0.00000  Uiso   1.00
H1152  H     0.92587   0.33001   0.83251   0.00000  Uiso   1.00
N1153  N     0.86964   0.07892   0.18886   0.00000  Uiso   1.00
H1154  H     0.87519   0.09326   0.16483   0.00000  Uiso   1.00
C1155  C     0.88295   0.04274   0.18738   0.00000  Uiso   1.00
H1156  H     0.90587   0.04104   0.16767   0.00000  Uiso   1.00
H1157  H     0.86178   0.02518   0.17553   0.00000  Uiso   1.00
H1158  H     0.89055   0.03306   0.21633   0.00000  Uiso   1.00
N1159  N     0.62188   0.43300   0.80573   0.00000  Uiso   1.00
H1160  H     0.59710   0.44362   0.81102   0.00000  Uiso   1.00
C1161  C     0.64693   0.43662   0.83758   0.00000  Uiso   1.00
H1162  H     0.63562   0.42565   0.86413   0.00000  Uiso   1.00
H1163  H     0.65237   0.46545   0.84236   0.00000  Uiso   1.00
H1164  H     0.67271   0.42318   0.83168   0.00000  Uiso   1.00
N1165  N     0.92254   0.37125   0.18990   0.00000  Uiso   1.00
H1166  H     0.90887   0.37820   0.16595   0.00000  Uiso   1.00
C1167  C     0.95886   0.38423   0.18979   0.00000  Uiso   1.00
H1168  H     0.96093   0.40822   0.17181   0.00000  Uiso   1.00
H1169  H     0.97641   0.36360   0.17693   0.00000  Uiso   1.00
H1170  H     0.96837   0.39007   0.21941   0.00000  Uiso   1.00
N1171  N     0.56597   0.12058   0.80448   0.00000  Uiso   1.00
H1172  H     0.55678   0.09536   0.81018   0.00000  Uiso   1.00
C1173  C     0.56120   0.14504   0.83675   0.00000  Uiso   1.00
H1174  H     0.57112   0.13321   0.86361   0.00000  Uiso   1.00
H1175  H     0.53215   0.15040   0.84045   0.00000  Uiso   1.00
H1176  H     0.57492   0.17083   0.83217   0.00000  Uiso   1.00
N1177  N     0.61538   0.06705   0.80179   0.00000  Uiso   1.00
H1178  H     0.63577   0.06100   0.81948   0.00000  Uiso   1.00
C1179  C     0.59632   0.03638   0.78737   0.00000  Uiso   1.00
H1180  H     0.58695   0.02063   0.81261   0.00000  Uiso   1.00
H1181  H     0.61403   0.01892   0.76968   0.00000  Uiso   1.00
H1182  H     0.57276   0.04495   0.77011   0.00000  Uiso   1.00
N1183  N     0.87697   0.42935   0.19478   0.00000  Uiso   1.00
H1184  H     0.90226   0.43715   0.18692   0.00000  Uiso   1.00
C1185  C     0.85224   0.42736   0.16270   0.00000  Uiso   1.00
H1186  H     0.84333   0.45472   0.15526   0.00000  Uiso   1.00
H1187  H     0.82839   0.41115   0.16978   0.00000  Uiso   1.00
H1188  H     0.86538   0.41584   0.13713   0.00000  Uiso   1.00
N1189  N     0.56753   0.38330   0.80305   0.00000  Uiso   1.00
H1190  H     0.56035   0.36169   0.81878   0.00000  Uiso   1.00
C1191  C     0.53737   0.40328   0.78927   0.00000  Uiso   1.00
H1192  H     0.52357   0.41540   0.81432   0.00000  Uiso   1.00
H1193  H     0.51809   0.38552   0.77457   0.00000  Uiso   1.00
H1194  H     0.54571   0.42464   0.76946   0.00000  Uiso   1.00
N1195  N     0.92763   0.12475   0.19278   0.00000  Uiso   1.00
H1196  H     0.93528   0.09982   0.18342   0.00000  Uiso   1.00
C1197  C     0.92493   0.15090   0.16217   0.00000  Uiso   1.00
H1198  H     0.95210   0.16013   0.15443   0.00000  Uiso   1.00
H1199  H     0.90892   0.17440   0.17098   0.00000  Uiso   1.00
H1200  H     0.91275   0.13899   0.13623   0.00000  Uiso   1.00
N1201  N     0.88462   0.43323   0.80149   0.00000  Uiso   1.00
H1202  H     0.86483   0.43877   0.82021   0.00000  Uiso   1.00
C1203  C     0.90364   0.46393   0.78724   0.00000  Uiso   1.00
H1204  H     0.91358   0.47916   0.81254   0.00000  Uiso   1.00
H1205  H     0.88590   0.48174   0.77046   0.00000  Uiso   1.00
H1206  H     0.92669   0.45556   0.76954   0.00000  Uiso   1.00
N1207  N     0.62312   0.07048   0.19482   0.00000  Uiso   1.00
H1208  H     0.59786   0.06250   0.18709   0.00000  Uiso   1.00
C1209  C     0.64774   0.07249   0.16266   0.00000  Uiso   1.00
H1210  H     0.65643   0.04512   0.15492   0.00000  Uiso   1.00
H1211  H     0.67173   0.08847   0.16976   0.00000  Uiso   1.00
H1212  H     0.63457   0.08429   0.13724   0.00000  Uiso   1.00
N1213  N     0.93266   0.11649   0.80287   0.00000  Uiso   1.00
H1214  H     0.93993   0.13822   0.81833   0.00000  Uiso   1.00
C1215  C     0.96286   0.09673   0.78881   0.00000  Uiso   1.00
H1216  H     0.97680   0.08444   0.81363   0.00000  Uiso   1.00
H1217  H     0.98199   0.11474   0.77426   0.00000  Uiso   1.00
H1218  H     0.95462   0.07549   0.76873   0.00000  Uiso   1.00
N1219  N     0.57209   0.37524   0.19299   0.00000  Uiso   1.00
H1220  H     0.56410   0.40016   0.18399   0.00000  Uiso   1.00
C1221  C     0.57478   0.34927   0.16217   0.00000  Uiso   1.00
H1222  H     0.54763   0.33989   0.15454   0.00000  Uiso   1.00
H1223  H     0.59096   0.32582   0.17074   0.00000  Uiso   1.00
H1224  H     0.58677   0.36140   0.13628   0.00000  Uiso   1.00
N1225  N     0.88084   0.17038   0.68845   0.00000  Uiso   1.00
H1226  H     0.87554   0.15564   0.66456   0.00000  Uiso   1.00
C1227  C     0.86769   0.20660   0.68612   0.00000  Uiso   1.00
H1228  H     0.84542   0.20822   0.66554   0.00000  Uiso   1.00
H1229  H     0.88927   0.22397   0.67483   0.00000  Uiso   1.00
H1230  H     0.85919   0.21657   0.71469   0.00000  Uiso   1.00
N1231  N     0.62892   0.31628   0.30466   0.00000  Uiso   1.00
H1232  H     0.65382   0.30571   0.30938   0.00000  Uiso   1.00
C1233  C     0.60467   0.31261   0.33720   0.00000  Uiso   1.00
H1234  H     0.61662   0.32368   0.36336   0.00000  Uiso   1.00
H1235  H     0.59941   0.28376   0.34207   0.00000  Uiso   1.00
H1236  H     0.57873   0.32600   0.33199   0.00000  Uiso   1.00
N1237  N     0.82790   0.37898   0.68960   0.00000  Uiso   1.00
H1238  H     0.84180   0.37191   0.66584   0.00000  Uiso   1.00
C1239  C     0.79148   0.36621   0.68893   0.00000  Uiso   1.00
H1240  H     0.78942   0.34246   0.67054   0.00000  Uiso   1.00
H1241  H     0.77418   0.38709   0.67615   0.00000  Uiso   1.00
H1242  H     0.78164   0.36010   0.71835   0.00000  Uiso   1.00
N1243  N     0.68380   0.12936   0.30490   0.00000  Uiso   1.00
H1244  H     0.69269   0.15462   0.31094   0.00000  Uiso   1.00
C1245  C     0.68903   0.10466   0.33679   0.00000  Uiso   1.00
H1246  H     0.67962   0.11630   0.36398   0.00000  Uiso   1.00
H1247  H     0.71813   0.09925   0.33998   0.00000  Uiso   1.00
H1248  H     0.67518   0.07892   0.33224   0.00000  Uiso   1.00
N1249  N     0.62172   0.32677   0.69041   0.00000  Uiso   1.00
H1250  H     0.62838   0.33984   0.66587   0.00000  Uiso   1.00
C1251  C     0.63490   0.29052   0.69146   0.00000  Uiso   1.00
H1252  H     0.65894   0.28800   0.67348   0.00000  Uiso   1.00
H1253  H     0.61434   0.27258   0.67902   0.00000  Uiso   1.00
H1254  H     0.64075   0.28195   0.72130   0.00000  Uiso   1.00
N1255  N     0.87100   0.18401   0.30438   0.00000  Uiso   1.00
H1256  H     0.84615   0.19479   0.30876   0.00000  Uiso   1.00
C1257  C     0.89494   0.18743   0.33716   0.00000  Uiso   1.00
H1258  H     0.88286   0.17583   0.36299   0.00000  Uiso   1.00
H1259  H     0.89992   0.21626   0.34261   0.00000  Uiso   1.00
H1260  H     0.92105   0.17440   0.33199   0.00000  Uiso   1.00
N1261  N     0.67317   0.12182   0.69025   0.00000  Uiso   1.00
H1262  H     0.66007   0.12941   0.66608   0.00000  Uiso   1.00
C1263  C     0.70955   0.13475   0.69113   0.00000  Uiso   1.00
H1264  H     0.71197   0.15919   0.67387   0.00000  Uiso   1.00
H1265  H     0.72723   0.11437   0.67797   0.00000  Uiso   1.00
H1266  H     0.71865   0.13988   0.72111   0.00000  Uiso   1.00
N1267  N     0.81614   0.37054   0.30457   0.00000  Uiso   1.00
H1268  H     0.80712   0.34528   0.31038   0.00000  Uiso   1.00
C1269  C     0.81134   0.39506   0.33678   0.00000  Uiso   1.00
H1270  H     0.82134   0.38329   0.36364   0.00000  Uiso   1.00
H1271  H     0.78228   0.40036   0.34051   0.00000  Uiso   1.00
H1272  H     0.82498   0.42088   0.33213   0.00000  Uiso   1.00
N1273  N     0.86558   0.31670   0.30116   0.00000  Uiso   1.00
H1274  H     0.88395   0.31177   0.32127   0.00000  Uiso   1.00
C1275  C     0.84598   0.28628   0.28708   0.00000  Uiso   1.00
H1276  H     0.83352   0.27301   0.31205   0.00000  Uiso   1.00
H1277  H     0.86397   0.26679   0.27308   0.00000  Uiso   1.00
H1278  H     0.82486   0.29465   0.26678   0.00000  Uiso   1.00
N1279  N     0.62718   0.17962   0.69508   0.00000  Uiso   1.00
H1280  H     0.65251   0.18760   0.68755   0.00000  Uiso   1.00
C1281  C     0.60274   0.17773   0.66273   0.00000  Uiso   1.00
H1282  H     0.59403   0.20512   0.65519   0.00000  Uiso   1.00
H1283  H     0.57874   0.16164   0.66957   0.00000  Uiso   1.00
H1284  H     0.61606   0.16612   0.63731   0.00000  Uiso   1.00
N1285  N     0.81715   0.13377   0.30265   0.00000  Uiso   1.00
H1286  H     0.81007   0.11220   0.31844   0.00000  Uiso   1.00
C1287  C     0.78682   0.15333   0.28861   0.00000  Uiso   1.00
H1288  H     0.77282   0.16548   0.31350   0.00000  Uiso   1.00
H1289  H     0.76777   0.13528   0.27399   0.00000  Uiso   1.00
H1290  H     0.79498   0.17463   0.26863   0.00000  Uiso   1.00
N1291  N     0.67870   0.37382   0.69390   0.00000  Uiso   1.00
H1292  H     0.68691   0.34880   0.68539   0.00000  Uiso   1.00
C1293  C     0.67605   0.39920   0.66255   0.00000  Uiso   1.00
H1294  H     0.70321   0.40854   0.65487   0.00000  Uiso   1.00
H1295  H     0.65971   0.42273   0.67052   0.00000  Uiso   1.00
H1296  H     0.66429   0.38655   0.63679   0.00000  Uiso   1.00
N1297  N     0.63463   0.18314   0.30138   0.00000  Uiso   1.00
H1298  H     0.61424   0.18971   0.31921   0.00000  Uiso   1.00
C1299  C     0.65466   0.21318   0.28715   0.00000  Uiso   1.00
H1300  H     0.66688   0.22667   0.31228   0.00000  Uiso   1.00
H1301  H     0.63708   0.23263   0.27258   0.00000  Uiso   1.00
H1302  H     0.67604   0.20436   0.26749   0.00000  Uiso   1.00
N1303  N     0.87302   0.32059   0.69480   0.00000  Uiso   1.00
H1304  H     0.84769   0.31292   0.68691   0.00000  Uiso   1.00
C1305  C     0.89777   0.32241   0.66272   0.00000  Uiso   1.00
H1306  H     0.90663   0.29501   0.65534   0.00000  Uiso   1.00
H1307  H     0.92164   0.33864   0.66972   0.00000  Uiso   1.00
H1308  H     0.88463   0.33383   0.63706   0.00000  Uiso   1.00
N1309  N     0.68281   0.36651   0.30270   0.00000  Uiso   1.00
H1310  H     0.68983   0.38823   0.31836   0.00000  Uiso   1.00
C1311  C     0.71319   0.34700   0.28869   0.00000  Uiso   1.00
H1312  H     0.72747   0.33521   0.31356   0.00000  Uiso   1.00
H1313  H     0.73197   0.36506   0.27370   0.00000  Uiso   1.00
H1314  H     0.70510   0.32539   0.26901   0.00000  Uiso   1.00
N1315  N     0.82238   0.12512   0.69273   0.00000  Uiso   1.00
H1316  H     0.81472   0.15004   0.68340   0.00000  Uiso   1.00
C1317  C     0.82500   0.09885   0.66220   0.00000  Uiso   1.00
H1318  H     0.79785   0.08920   0.65494   0.00000  Uiso   1.00
H1319  H     0.84144   0.07561   0.67087   0.00000  Uiso   1.00
H1320  H     0.83663   0.11081   0.63603   0.00000  Uiso   1.00
O1321  O     0.97815   0.31011   0.39792   0.00000  Uiso   1.00
C1322  C     0.94530   0.32311   0.41223   0.00000  Uiso   1.00
H1323  H     0.94842   0.35181   0.41893   0.00000  Uiso   1.00
H1324  H     0.93503   0.30917   0.43815   0.00000  Uiso   1.00
C1325  C     0.91740   0.32034   0.38152   0.00000  Uiso   1.00
H1326  H     0.92861   0.33182   0.35470   0.00000  Uiso   1.00
H1327  H     0.91107   0.29182   0.37691   0.00000  Uiso   1.00
C1328  C     0.88355   0.34026   0.39289   0.00000  Uiso   1.00
H1329  H     0.87921   0.33867   0.42426   0.00000  Uiso   1.00
H1330  H     0.85990   0.32823   0.37901   0.00000  Uiso   1.00
H1331  H     0.88550   0.36852   0.38377   0.00000  Uiso   1.00
O1332  O     0.99331   0.18728   0.60319   0.00000  Uiso   1.00
C1333  C     0.96236   0.16830   0.59230   0.00000  Uiso   1.00
H1334  H     0.96783   0.13934   0.59569   0.00000  Uiso   1.00
H1335  H     0.95429   0.17291   0.56220   0.00000  Uiso   1.00
C1336  C     0.93050   0.17797   0.61640   0.00000  Uiso   1.00
H1337  H     0.93531   0.16875   0.64615   0.00000  Uiso   1.00
H1338  H     0.92662   0.20719   0.61640   0.00000  Uiso   1.00
C1339  C     0.89753   0.16041   0.59904   0.00000  Uiso   1.00
H1340  H     0.89824   0.16093   0.56738   0.00000  Uiso   1.00
H1341  H     0.87312   0.17510   0.60706   0.00000  Uiso   1.00
H1342  H     0.89606   0.13235   0.60914   0.00000  Uiso   1.00
O1343  O     0.68867   0.48150   0.39731   0.00000  Uiso   1.00
C1344  C     0.67390   0.44893   0.41009   0.00000  Uiso   1.00
H1345  H     0.64505   0.45308   0.41555   0.00000  Uiso   1.00
H1346  H     0.68624   0.43778   0.43659   0.00000  Uiso   1.00
C1347  C     0.67706   0.42137   0.37896   0.00000  Uiso   1.00
H1348  H     0.66777   0.43331   0.35160   0.00000  Uiso   1.00
H1349  H     0.70542   0.41344   0.37639   0.00000  Uiso   1.00
C1350  C     0.65464   0.38877   0.38852   0.00000  Uiso   1.00
H1351  H     0.65696   0.38231   0.41940   0.00000  Uiso   1.00
H1352  H     0.66418   0.36521   0.37266   0.00000  Uiso   1.00
H1353  H     0.62643   0.39374   0.38064   0.00000  Uiso   1.00
O1354  O     0.81302   0.49512   0.60358   0.00000  Uiso   1.00
C1355  C     0.83210   0.46374   0.59442   0.00000  Uiso   1.00
H1356  H     0.86109   0.46906   0.59872   0.00000  Uiso   1.00
H1357  H     0.82832   0.45512   0.56433   0.00000  Uiso   1.00
C1358  C     0.82145   0.43233   0.61907   0.00000  Uiso   1.00
H1359  H     0.83087   0.43699   0.64895   0.00000  Uiso   1.00
H1360  H     0.79202   0.42937   0.61903   0.00000  Uiso   1.00
C1361  C     0.83818   0.39873   0.60213   0.00000  Uiso   1.00
H1362  H     0.83876   0.39911   0.57040   0.00000  Uiso   1.00
H1363  H     0.82210   0.37495   0.60936   0.00000  Uiso   1.00
H1364  H     0.86591   0.39618   0.61304   0.00000  Uiso   1.00
O1365  O     0.52351   0.19119   0.39777   0.00000  Uiso   1.00
C1366  C     0.55643   0.17841   0.41217   0.00000  Uiso   1.00
H1367  H     0.55331   0.14994   0.41983   0.00000  Uiso   1.00
H1368  H     0.56705   0.19316   0.43746   0.00000  Uiso   1.00
C1369  C     0.58393   0.17999   0.38098   0.00000  Uiso   1.00
H1370  H     0.57208   0.16818   0.35462   0.00000  Uiso   1.00
H1371  H     0.59075   0.20830   0.37578   0.00000  Uiso   1.00
C1372  C     0.61757   0.15957   0.39199   0.00000  Uiso   1.00
H1373  H     0.62279   0.16197   0.42317   0.00000  Uiso   1.00
H1374  H     0.64103   0.17060   0.37683   0.00000  Uiso   1.00
H1375  H     0.61471   0.13110   0.38392   0.00000  Uiso   1.00
O1376  O     0.50715   0.31321   0.60370   0.00000  Uiso   1.00
C1377  C     0.53917   0.33131   0.59473   0.00000  Uiso   1.00
H1378  H     0.53536   0.36005   0.60139   0.00000  Uiso   1.00
H1379  H     0.54667   0.32937   0.56417   0.00000  Uiso   1.00
C1380  C     0.57071   0.31742   0.61720   0.00000  Uiso   1.00
H1381  H     0.56720   0.32476   0.64779   0.00000  Uiso   1.00
H1382  H     0.57236   0.28809   0.61468   0.00000  Uiso   1.00
C1383  C     0.60472   0.33345   0.60062   0.00000  Uiso   1.00
H1384  H     0.60470   0.33289   0.56888   0.00000  Uiso   1.00
H1385  H     0.62829   0.31767   0.60940   0.00000  Uiso   1.00
H1386  H     0.60712   0.36141   0.61075   0.00000  Uiso   1.00
O1387  O     0.81024   0.01914   0.39765   0.00000  Uiso   1.00
C1388  C     0.82449   0.05189   0.41072   0.00000  Uiso   1.00
H1389  H     0.85332   0.04809   0.41655   0.00000  Uiso   1.00
H1390  H     0.81173   0.06289   0.43707   0.00000  Uiso   1.00
C1391  C     0.82131   0.07937   0.37958   0.00000  Uiso   1.00
H1392  H     0.83096   0.06738   0.35235   0.00000  Uiso   1.00
H1393  H     0.79288   0.08694   0.37665   0.00000  Uiso   1.00
C1394  C     0.84334   0.11227   0.38921   0.00000  Uiso   1.00
H1395  H     0.84249   0.11782   0.42041   0.00000  Uiso   1.00
H1396  H     0.83250   0.13604   0.37466   0.00000  Uiso   1.00
H1397  H     0.87124   0.10821   0.37962   0.00000  Uiso   1.00
O1398  O     0.68664   0.00312   0.60417   0.00000  Uiso   1.00
C1399  C     0.66688   0.03430   0.59611   0.00000  Uiso   1.00
H1400  H     0.63831   0.02872   0.60198   0.00000  Uiso   1.00
H1401  H     0.66893   0.04271   0.56590   0.00000  Uiso   1.00
C1402  C     0.67838   0.06580   0.62017   0.00000  Uiso   1.00
H1403  H     0.66946   0.06173   0.65025   0.00000  Uiso   1.00
H1404  H     0.70774   0.06837   0.61962   0.00000  Uiso   1.00
C1405  C     0.66210   0.09953   0.60325   0.00000  Uiso   1.00
H1406  H     0.66121   0.09878   0.57157   0.00000  Uiso   1.00
H1407  H     0.67891   0.12298   0.60983   0.00000  Uiso   1.00
H1408  H     0.63461   0.10285   0.61463   0.00000  Uiso   1.00
O1409  O     0.72788   0.05969   0.89772   0.00000  Uiso   1.00
C1410  C     0.69508   0.07299   0.91191   0.00000  Uiso   1.00
H1411  H     0.69850   0.10157   0.91896   0.00000  Uiso   1.00
H1412  H     0.68445   0.05888   0.93756   0.00000  Uiso   1.00
C1413  C     0.66735   0.07098   0.88093   0.00000  Uiso   1.00
H1414  H     0.67894   0.08241   0.85428   0.00000  Uiso   1.00
H1415  H     0.66048   0.04261   0.87616   0.00000  Uiso   1.00
C1416  C     0.63384   0.09151   0.89212   0.00000  Uiso   1.00
H1417  H     0.62866   0.08895   0.92328   0.00000  Uiso   1.00
H1418  H     0.61029   0.08064   0.87701   0.00000  Uiso   1.00
H1419  H     0.63681   0.12002   0.88431   0.00000  Uiso   1.00
O1420  O     0.74504   0.43684   0.10336   0.00000  Uiso   1.00
C1421  C     0.71312   0.41833   0.09510   0.00000  Uiso   1.00
H1422  H     0.71693   0.38988   0.10319   0.00000  Uiso   1.00
H1423  H     0.70592   0.41886   0.06443   0.00000  Uiso   1.00
C1424  C     0.68131   0.43328   0.11639   0.00000  Uiso   1.00
H1425  H     0.68437   0.42731   0.14736   0.00000  Uiso   1.00
H1426  H     0.67961   0.46250   0.11238   0.00000  Uiso   1.00
C1427  C     0.64756   0.41667   0.09997   0.00000  Uiso   1.00
H1428  H     0.64777   0.41685   0.06826   0.00000  Uiso   1.00
H1429  H     0.62385   0.43212   0.10869   0.00000  Uiso   1.00
H1430  H     0.64571   0.38874   0.11027   0.00000  Uiso   1.00
O1431  O     0.93995   0.22980   0.89768   0.00000  Uiso   1.00
C1432  C     0.92598   0.19709   0.91114   0.00000  Uiso   1.00
H1433  H     0.89722   0.20078   0.91743   0.00000  Uiso   1.00
H1434  H     0.93922   0.18621   0.93727   0.00000  Uiso   1.00
C1435  C     0.92863   0.16958   0.87997   0.00000  Uiso   1.00
H1436  H     0.91878   0.18170   0.85293   0.00000  Uiso   1.00
H1437  H     0.95695   0.16173   0.87675   0.00000  Uiso   1.00
C1438  C     0.90640   0.13689   0.88972   0.00000  Uiso   1.00
H1439  H     0.90840   0.13069   0.92070   0.00000  Uiso   1.00
H1440  H     0.91627   0.11332   0.87406   0.00000  Uiso   1.00
H1441  H     0.87824   0.14160   0.88149   0.00000  Uiso   1.00
O1442  O     0.56324   0.24663   0.10409   0.00000  Uiso   1.00
C1443  C     0.58260   0.21518   0.09619   0.00000  Uiso   1.00
H1444  H     0.61113   0.22024   0.10274   0.00000  Uiso   1.00
H1445  H     0.58100   0.20697   0.06588   0.00000  Uiso   1.00
C1446  C     0.57008   0.18375   0.11969   0.00000  Uiso   1.00
H1447  H     0.57815   0.18771   0.15006   0.00000  Uiso   1.00
H1448  H     0.54074   0.18144   0.11811   0.00000  Uiso   1.00
C1449  C     0.58650   0.14994   0.10315   0.00000  Uiso   1.00
H1450  H     0.58754   0.15048   0.07147   0.00000  Uiso   1.00
H1451  H     0.56982   0.12650   0.10998   0.00000  Uiso   1.00
H1452  H     0.61396   0.14686   0.11461   0.00000  Uiso   1.00
O1453  O     0.77086   0.43993   0.89757   0.00000  Uiso   1.00
C1454  C     0.80377   0.42650   0.91127   0.00000  Uiso   1.00
H1455  H     0.80050   0.39770   0.91734   0.00000  Uiso   1.00
H1456  H     0.81426   0.43985   0.93748   0.00000  Uiso   1.00
C1457  C     0.83154   0.42980   0.88049   0.00000  Uiso   1.00
H1458  H     0.82036   0.41846   0.85358   0.00000  Uiso   1.00
H1459  H     0.83759   0.45842   0.87617   0.00000  Uiso   1.00
C1460  C     0.86567   0.41016   0.89151   0.00000  Uiso   1.00
H1461  H     0.86962   0.41063   0.92298   0.00000  Uiso   1.00
H1462  H     0.88922   0.42320   0.87857   0.00000  Uiso   1.00
H1463  H     0.86448   0.38224   0.88110   0.00000  Uiso   1.00
O1464  O     0.75597   0.06299   0.10342   0.00000  Uiso   1.00
C1465  C     0.78735   0.08179   0.09373   0.00000  Uiso   1.00
H1466  H     0.78269   0.11054   0.09948   0.00000  Uiso   1.00
H1467  H     0.79495   0.07918   0.06327   0.00000  Uiso   1.00
C1468  C     0.81924   0.06953   0.11647   0.00000  Uiso   1.00
H1469  H     0.81521   0.07722   0.14687   0.00000  Uiso   1.00
H1470  H     0.82202   0.04027   0.11449   0.00000  Uiso   1.00
C1471  C     0.85260   0.08672   0.09965   0.00000  Uiso   1.00
H1472  H     0.85242   0.08612   0.06795   0.00000  Uiso   1.00
H1473  H     0.87677   0.07186   0.10820   0.00000  Uiso   1.00
H1474  H     0.85413   0.11474   0.10973   0.00000  Uiso   1.00
O1475  O     0.56119   0.26854   0.89741   0.00000  Uiso   1.00
C1476  C     0.57630   0.30091   0.91043   0.00000  Uiso   1.00
H1477  H     0.60498   0.29633   0.91644   0.00000  Uiso   1.00
H1478  H     0.56364   0.31237   0.93660   0.00000  Uiso   1.00
C1479  C     0.57424   0.32842   0.87919   0.00000  Uiso   1.00
H1480  H     0.58369   0.31630   0.85195   0.00000  Uiso   1.00
H1481  H     0.54608   0.33692   0.87621   0.00000  Uiso   1.00
C1482  C     0.59725   0.36052   0.88915   0.00000  Uiso   1.00
H1483  H     0.59366   0.36776   0.91973   0.00000  Uiso   1.00
H1484  H     0.58927   0.38396   0.87213   0.00000  Uiso   1.00
H1485  H     0.62568   0.35448   0.88307   0.00000  Uiso   1.00
O1486  O     0.93691   0.25479   0.10376   0.00000  Uiso   1.00
C1487  C     0.91761   0.28601   0.09460   0.00000  Uiso   1.00
H1488  H     0.88875   0.28042   0.09870   0.00000  Uiso   1.00
H1489  H     0.92137   0.29466   0.06462   0.00000  Uiso   1.00
C1490  C     0.92776   0.31735   0.11952   0.00000  Uiso   1.00
H1491  H     0.91768   0.31274   0.14911   0.00000  Uiso   1.00
H1492  H     0.95713   0.32023   0.12033   0.00000  Uiso   1.00
C1493  C     0.91160   0.35104   0.10223   0.00000  Uiso   1.00
H1494  H     0.91148   0.35044   0.07054   0.00000  Uiso   1.00
H1495  H     0.92791   0.37466   0.10944   0.00000  Uiso   1.00
H1496  H     0.88383   0.35411   0.11282   0.00000  Uiso   1.00
C1497  C     0.48996   0.78101   0.41875   0.00000  Uiso   1.00
C1498  C     0.49744   0.71802   0.58157   0.00000  Uiso   1.00
C1499  C     0.21847   0.99103   0.41859   0.00000  Uiso   1.00
C1500  C     0.28216   0.99794   0.58177   0.00000  Uiso   1.00
C1501  C     0.01132   0.72017   0.41865   0.00000  Uiso   1.00
C1502  C     0.00337   0.78254   0.58187   0.00000  Uiso   1.00
C1503  C     0.28044   0.50924   0.41868   0.00000  Uiso   1.00
C1504  C     0.21739   0.50136   0.58201   0.00000  Uiso   1.00
C1505  C     0.23948   0.53052   0.91862   0.00000  Uiso   1.00
C1506  C     0.24780   0.96763   0.08166   0.00000  Uiso   1.00
C1507  C     0.46953   0.74036   0.91874   0.00000  Uiso   1.00
C1508  C     0.03248   0.74855   0.08202   0.00000  Uiso   1.00
C1509  C     0.25983   0.96930   0.91855   0.00000  Uiso   1.00
C1510  C     0.25244   0.53224   0.08170   0.00000  Uiso   1.00
C1511  C     0.03137   0.75908   0.91866   0.00000  Uiso   1.00
C1512  C     0.46773   0.75205   0.08184   0.00000  Uiso   1.00
C1513  C     0.00027   0.75044   0.39838   0.00000  Uiso   1.00
C1514  C     0.00015   0.75022   0.60168   0.00000  Uiso   1.00
C1515  C     0.24954   0.50008   0.39831   0.00000  Uiso   1.00
C1516  C     0.24986   0.99986   0.60189   0.00000  Uiso   1.00
C1517  C     0.24985   0.99998   0.89831   0.00000  Uiso   1.00
C1518  C     0.25005   0.99996   0.10165   0.00000  Uiso   1.00
C1519  C     0.00034   0.74991   0.89836   0.00000  Uiso   1.00
C1520  C     0.00005   0.75009   0.10192   0.00000  Uiso   1.00
C1521  C     0.00546   0.68647   0.47931   0.00000  Uiso   1.00
C1522  C     0.49573   0.81474   0.51968   0.00000  Uiso   1.00
C1523  C     0.31368   0.50357   0.47961   0.00000  Uiso   1.00
C1524  C     0.18532   0.99396   0.51959   0.00000  Uiso   1.00
C1525  C     0.49589   0.81464   0.47980   0.00000  Uiso   1.00
C1526  C     0.00584   0.68620   0.51910   0.00000  Uiso   1.00
C1527  C     0.18528   0.99611   0.47995   0.00000  Uiso   1.00
C1528  C     0.31390   0.50502   0.51924   0.00000  Uiso   1.00
C1529  C     0.25446   0.93589   0.97947   0.00000  Uiso   1.00
C1530  C     0.24430   0.56415   0.01942   0.00000  Uiso   1.00
C1531  C     0.06450   0.75391   0.98002   0.00000  Uiso   1.00
C1532  C     0.43593   0.74479   0.01931   0.00000  Uiso   1.00
C1533  C     0.24513   0.56404   0.97961   0.00000  Uiso   1.00
C1534  C     0.25543   0.93572   0.01927   0.00000  Uiso   1.00
C1535  C     0.43609   0.74616   0.97969   0.00000  Uiso   1.00
C1536  C     0.06450   0.75594   0.01967   0.00000  Uiso   1.00
C1537  C     0.24979   0.50002   0.35574   0.00000  Uiso   1.00
C1538  C     0.25001   0.99997   0.64438   0.00000  Uiso   1.00
C1539  C     0.00004   0.75021   0.35575   0.00000  Uiso   1.00
C1540  C     0.00002   0.75007   0.64432   0.00000  Uiso   1.00
C1541  C     0.00015   0.74999   0.85576   0.00000  Uiso   1.00
C1542  C     0.49997   0.75001   0.14440   0.00000  Uiso   1.00
C1543  C     0.24998   0.50001   0.85573   0.00000  Uiso   1.00
C1544  C     0.25001   0.99999   0.14431   0.00000  Uiso   1.00
C1545  C     0.18008   0.56975   0.25040   0.00000  Uiso   1.00
C1546  C     0.32040   0.93021   0.75008   0.00000  Uiso   1.00
C1547  C     0.43021   0.68009   0.25031   0.00000  Uiso   1.00
C1548  C     0.06983   0.82035   0.75012   0.00000  Uiso   1.00
C1549  C     0.31992   0.93023   0.25042   0.00000  Uiso   1.00
C1550  C     0.17961   0.56981   0.75006   0.00000  Uiso   1.00
C1551  C     0.06979   0.81990   0.25035   0.00000  Uiso   1.00
C1552  C     0.43022   0.67959   0.75004   0.00000  Uiso   1.00
C1553  C     0.18029   0.93001   0.75041   0.00000  Uiso   1.00
C1554  C     0.31975   0.57043   0.25005   0.00000  Uiso   1.00
C1555  C     0.43010   0.81979   0.75038   0.00000  Uiso   1.00
C1556  C     0.07039   0.68018   0.25007   0.00000  Uiso   1.00
C1557  C     0.31975   0.56993   0.75038   0.00000  Uiso   1.00
C1558  C     0.18022   0.92960   0.25002   0.00000  Uiso   1.00
C1559  C     0.06991   0.68023   0.75041   0.00000  Uiso   1.00
C1560  C     0.42962   0.81981   0.25005   0.00000  Uiso   1.00
C1561  C     0.12548   0.90053   0.22244   0.00000  Uiso   1.00
C1562  C     0.37573   0.59607   0.77882   0.00000  Uiso   1.00
C1563  C     0.09873   0.62471   0.22296   0.00000  Uiso   1.00
C1564  C     0.40446   0.87620   0.77830   0.00000  Uiso   1.00
C1565  C     0.37435   0.59951   0.22238   0.00000  Uiso   1.00
C1566  C     0.12446   0.90373   0.77909   0.00000  Uiso   1.00
C1567  C     0.40125   0.87514   0.22295   0.00000  Uiso   1.00
C1568  C     0.09571   0.62402   0.77830   0.00000  Uiso   1.00
C1569  C     0.12093   0.59613   0.77675   0.00000  Uiso   1.00
C1570  C     0.37499   0.90201   0.22334   0.00000  Uiso   1.00
C1571  C     0.09656   0.87844   0.77733   0.00000  Uiso   1.00
C1572  C     0.40124   0.62572   0.22244   0.00000  Uiso   1.00
C1573  C     0.37910   0.90401   0.77659   0.00000  Uiso   1.00
C1574  C     0.12507   0.59792   0.22325   0.00000  Uiso   1.00
C1575  C     0.40358   0.62141   0.77717   0.00000  Uiso   1.00
C1576  C     0.09865   0.87426   0.22254   0.00000  Uiso   1.00
C1577  C     0.37573   0.65034   0.72232   0.00000  Uiso   1.00
C1578  C     0.12597   0.84587   0.27853   0.00000  Uiso   1.00
C1579  C     0.34888   0.87492   0.72294   0.00000  Uiso   1.00
C1580  C     0.15417   0.62589   0.27858   0.00000  Uiso   1.00
C1581  C     0.12514   0.84877   0.72313   0.00000  Uiso   1.00
C1582  C     0.37395   0.65427   0.27846   0.00000  Uiso   1.00
C1583  C     0.15131   0.62522   0.72302   0.00000  Uiso   1.00
C1584  C     0.34585   0.87404   0.27838   0.00000  Uiso   1.00
C1585  C     0.37109   0.84615   0.27671   0.00000  Uiso   1.00
C1586  C     0.12504   0.65207   0.72340   0.00000  Uiso   1.00
C1587  C     0.34618   0.62883   0.27696   0.00000  Uiso   1.00
C1588  C     0.15188   0.87513   0.72310   0.00000  Uiso   1.00
C1589  C     0.12895   0.65379   0.27669   0.00000  Uiso   1.00
C1590  C     0.37508   0.84801   0.72329   0.00000  Uiso   1.00
C1591  C     0.15374   0.87131   0.27692   0.00000  Uiso   1.00
C1592  C     0.34876   0.62420   0.72249   0.00000  Uiso   1.00
C1593  C     0.00588   0.71877   0.45899   0.00000  Uiso   1.00
C1594  C     0.49972   0.78292   0.54095   0.00000  Uiso   1.00
C1595  C     0.28145   0.50431   0.45901   0.00000  Uiso   1.00
C1596  C     0.21710   0.99816   0.54117   0.00000  Uiso   1.00
C1597  C     0.49554   0.78240   0.45917   0.00000  Uiso   1.00
C1598  C     0.00164   0.71789   0.54068   0.00000  Uiso   1.00
C1599  C     0.21744   0.99571   0.45905   0.00000  Uiso   1.00
C1600  C     0.28219   0.50129   0.54096   0.00000  Uiso   1.00
C1601  C     0.25470   0.96810   0.95897   0.00000  Uiso   1.00
C1602  C     0.24860   0.53243   0.04080   0.00000  Uiso   1.00
C1603  C     0.03235   0.75442   0.95913   0.00000  Uiso   1.00
C1604  C     0.46765   0.74873   0.04103   0.00000  Uiso   1.00
C1605  C     0.24479   0.53180   0.95905   0.00000  Uiso   1.00
C1606  C     0.25129   0.96743   0.04076   0.00000  Uiso   1.00
C1607  C     0.46836   0.74555   0.95905   0.00000  Uiso   1.00
C1608  C     0.03273   0.75184   0.04120   0.00000  Uiso   1.00
C1609  C     0.09806   0.84752   0.25089   0.00000  Uiso   1.00
C1610  C     0.40256   0.65039   0.75075   0.00000  Uiso   1.00
C1611  C     0.15238   0.59785   0.25127   0.00000  Uiso   1.00
C1612  C     0.34946   0.90244   0.75069   0.00000  Uiso   1.00
C1613  C     0.40188   0.65251   0.25087   0.00000  Uiso   1.00
C1614  C     0.09770   0.84930   0.75103   0.00000  Uiso   1.00
C1615  C     0.34765   0.90213   0.25125   0.00000  Uiso   1.00
C1616  C     0.15061   0.59761   0.75061   0.00000  Uiso   1.00
C1617  C     0.09760   0.65211   0.75120   0.00000  Uiso   1.00
C1618  C     0.40066   0.84765   0.25059   0.00000  Uiso   1.00
C1619  C     0.15224   0.90217   0.75128   0.00000  Uiso   1.00
C1620  C     0.34736   0.59964   0.25073   0.00000  Uiso   1.00
C1621  C     0.40248   0.84798   0.75121   0.00000  Uiso   1.00
C1622  C     0.09937   0.65232   0.25068   0.00000  Uiso   1.00
C1623  C     0.34797   0.59761   0.75100   0.00000  Uiso   1.00
C1624  C     0.15255   0.90041   0.25067   0.00000  Uiso   1.00
C1625  C     0.00072   0.75055   0.47960   0.00000  Uiso   1.00
C1626  C     0.00070   0.75046   0.52051   0.00000  Uiso   1.00
C1627  C     0.24948   0.99997   0.47977   0.00000  Uiso   1.00
C1628  C     0.24958   0.99988   0.52055   0.00000  Uiso   1.00
C1629  C     0.24980   0.99995   0.97953   0.00000  Uiso   1.00
C1630  C     0.24988   0.99993   0.02046   0.00000  Uiso   1.00
C1631  C     0.00031   0.75013   0.97983   0.00000  Uiso   1.00
C1632  C     0.00024   0.75020   0.02060   0.00000  Uiso   1.00
O1633  O     0.25000   0.50000   0.25000   0.00000  Uiso   1.00
O1634  O     0.25000   0.50000   0.75000   0.00000  Uiso   1.00
O1635  O     0.00000   0.75000   0.25000   0.00000  Uiso   1.00
O1636  O     0.00000   0.75000   0.75000   0.00000  Uiso   1.00
O1637  O     0.25000   0.96964   0.33755   0.00000  Uiso   1.00
O1638  O     0.25000   0.53036   0.66245   0.00000  Uiso   1.00
O1639  O     0.03037   0.75000   0.33755   0.00000  Uiso   1.00
O1640  O     0.46964   0.75000   0.66245   0.00000  Uiso   1.00
O1641  O     0.25000   0.53036   0.33755   0.00000  Uiso   1.00
O1642  O     0.25000   0.96964   0.66245   0.00000  Uiso   1.00
O1643  O     0.46964   0.75000   0.33755   0.00000  Uiso   1.00
O1644  O     0.03037   0.75000   0.66245   0.00000  Uiso   1.00
O1645  O     0.00000   0.71964   0.83755   0.00000  Uiso   1.00
O1646  O     0.00000   0.78037   0.16245   0.00000  Uiso   1.00
O1647  O     0.28037   0.50000   0.83755   0.00000  Uiso   1.00
O1648  O     0.21964   0.50000   0.16245   0.00000  Uiso   1.00
O1649  O     0.00000   0.78037   0.83755   0.00000  Uiso   1.00
O1650  O     0.00000   0.71964   0.16245   0.00000  Uiso   1.00
O1651  O     0.21964   0.50000   0.83755   0.00000  Uiso   1.00
O1652  O     0.28037   0.50000   0.16245   0.00000  Uiso   1.00
O1653  O     0.20725   0.57307   0.27302   0.00000  Uiso   1.00
O1654  O     0.29276   0.92693   0.72698   0.00000  Uiso   1.00
O1655  O     0.42693   0.70724   0.27302   0.00000  Uiso   1.00
O1656  O     0.07308   0.79276   0.72698   0.00000  Uiso   1.00
O1657  O     0.29276   0.92693   0.27302   0.00000  Uiso   1.00
O1658  O     0.20725   0.57307   0.72698   0.00000  Uiso   1.00
O1659  O     0.07308   0.79276   0.27302   0.00000  Uiso   1.00
O1660  O     0.42693   0.70724   0.72698   0.00000  Uiso   1.00
O1661  O     0.20725   0.92693   0.72698   0.00000  Uiso   1.00
O1662  O     0.29276   0.57307   0.27302   0.00000  Uiso   1.00
O1663  O     0.42693   0.79275   0.72698   0.00000  Uiso   1.00
O1664  O     0.07308   0.70725   0.27302   0.00000  Uiso   1.00
O1665  O     0.29276   0.57307   0.72698   0.00000  Uiso   1.00
O1666  O     0.20725   0.92693   0.27302   0.00000  Uiso   1.00
O1667  O     0.07308   0.70725   0.72698   0.00000  Uiso   1.00
O1668  O     0.42693   0.79275   0.27302   0.00000  Uiso   1.00
O1669  O     0.45725   0.82307   0.77302   0.00000  Uiso   1.00
O1670  O     0.04276   0.67693   0.22698   0.00000  Uiso   1.00
O1671  O     0.17693   0.95725   0.77302   0.00000  Uiso   1.00
O1672  O     0.32308   0.54275   0.22698   0.00000  Uiso   1.00
O1673  O     0.04276   0.67693   0.77302   0.00000  Uiso   1.00
O1674  O     0.45725   0.82307   0.22698   0.00000  Uiso   1.00
O1675  O     0.32308   0.54275   0.77302   0.00000  Uiso   1.00
O1676  O     0.17693   0.95725   0.22698   0.00000  Uiso   1.00
O1677  O     0.45725   0.67692   0.22698   0.00000  Uiso   1.00
O1678  O     0.04276   0.82308   0.77302   0.00000  Uiso   1.00
O1679  O     0.17693   0.54275   0.22698   0.00000  Uiso   1.00
O1680  O     0.32308   0.95725   0.77302   0.00000  Uiso   1.00
O1681  O     0.04276   0.82308   0.22698   0.00000  Uiso   1.00
O1682  O     0.45725   0.67692   0.77302   0.00000  Uiso   1.00
O1683  O     0.32308   0.95725   0.22698   0.00000  Uiso   1.00
O1684  O     0.17693   0.54275   0.77302   0.00000  Uiso   1.00
Zn1685 Zn    0.20660   0.50000   0.21735   0.00000  Uiso   1.00
Zn1686 Zn    0.29341   0.50000   0.78265   0.00000  Uiso   1.00
Zn1687 Zn    0.00000   0.70660   0.21735   0.00000  Uiso   1.00
Zn1688 Zn    0.00000   0.79341   0.78265   0.00000  Uiso   1.00
Zn1689 Zn    0.29341   0.50000   0.21735   0.00000  Uiso   1.00
Zn1690 Zn    0.20660   0.50000   0.78265   0.00000  Uiso   1.00
Zn1691 Zn    0.00000   0.79341   0.21735   0.00000  Uiso   1.00
Zn1692 Zn    0.00000   0.70660   0.78265   0.00000  Uiso   1.00
Zn1693 Zn    0.45660   0.75000   0.71735   0.00000  Uiso   1.00
Zn1694 Zn    0.04341   0.75000   0.28265   0.00000  Uiso   1.00
Zn1695 Zn    0.25000   0.95660   0.71735   0.00000  Uiso   1.00
Zn1696 Zn    0.25000   0.54340   0.28265   0.00000  Uiso   1.00
Zn1697 Zn    0.04341   0.75000   0.71735   0.00000  Uiso   1.00
Zn1698 Zn    0.45660   0.75000   0.28265   0.00000  Uiso   1.00
Zn1699 Zn    0.25000   0.54340   0.71735   0.00000  Uiso   1.00
Zn1700 Zn    0.25000   0.95660   0.28265   0.00000  Uiso   1.00
O1701  O     0.00472   0.65372   0.46121   0.00000  Uiso   1.00
C1702  C     0.47230   0.64911   0.44142   0.00000  Uiso   1.00
H1703  H     0.47594   0.62677   0.42097   0.00000  Uiso   1.00
H1704  H     0.46433   0.67253   0.42410   0.00000  Uiso   1.00
C1705  C     0.44260   0.63996   0.46921   0.00000  Uiso   1.00
H1706  H     0.44976   0.61470   0.48373   0.00000  Uiso   1.00
H1707  H     0.43945   0.66139   0.49089   0.00000  Uiso   1.00
C1708  C     0.40774   0.63589   0.44786   0.00000  Uiso   1.00
H1709  H     0.40271   0.65942   0.42930   0.00000  Uiso   1.00
H1710  H     0.38538   0.63379   0.46839   0.00000  Uiso   1.00
H1711  H     0.40898   0.61140   0.43016   0.00000  Uiso   1.00
O1712  O     0.49445   0.84757   0.53699   0.00000  Uiso   1.00
C1713  C     0.46096   0.85261   0.55377   0.00000  Uiso   1.00
H1714  H     0.46528   0.86830   0.58041   0.00000  Uiso   1.00
H1715  H     0.44705   0.82758   0.56265   0.00000  Uiso   1.00
C1716  C     0.43779   0.87328   0.52616   0.00000  Uiso   1.00
H1717  H     0.45348   0.89476   0.51224   0.00000  Uiso   1.00
H1718  H     0.42738   0.85506   0.50363   0.00000  Uiso   1.00
C1719  C     0.40741   0.88917   0.54844   0.00000  Uiso   1.00
H1720  H     0.39230   0.86724   0.56213   0.00000  Uiso   1.00
H1721  H     0.38974   0.90365   0.52915   0.00000  Uiso   1.00
H1722  H     0.41752   0.90817   0.57034   0.00000  Uiso   1.00
O1723  O     0.34642   0.50124   0.46160   0.00000  Uiso   1.00
C1724  C     0.35016   0.96772   0.44386   0.00000  Uiso   1.00
H1725  H     0.37321   0.96938   0.42402   0.00000  Uiso   1.00
H1726  H     0.32681   0.96005   0.42617   0.00000  Uiso   1.00
C1727  C     0.35728   0.93905   0.47357   0.00000  Uiso   1.00
H1728  H     0.38212   0.94634   0.48888   0.00000  Uiso   1.00
H1729  H     0.33493   0.93743   0.49435   0.00000  Uiso   1.00
C1730  C     0.36119   0.90312   0.45438   0.00000  Uiso   1.00
H1731  H     0.33884   0.89840   0.43403   0.00000  Uiso   1.00
H1732  H     0.36058   0.88168   0.47617   0.00000  Uiso   1.00
H1733  H     0.38701   0.90233   0.43892   0.00000  Uiso   1.00
O1734  O     0.15257   0.99070   0.53688   0.00000  Uiso   1.00
C1735  C     0.14898   0.95651   0.55237   0.00000  Uiso   1.00
H1736  H     0.13478   0.95952   0.58009   0.00000  Uiso   1.00
H1737  H     0.17465   0.94270   0.55904   0.00000  Uiso   1.00
C1738  C     0.12709   0.93398   0.52506   0.00000  Uiso   1.00
H1739  H     0.10521   0.95002   0.51231   0.00000  Uiso   1.00
H1740  H     0.14445   0.92392   0.50160   0.00000  Uiso   1.00
C1741  C     0.11165   0.90331   0.54727   0.00000  Uiso   1.00
H1742  H     0.13399   0.88809   0.56014   0.00000  Uiso   1.00
H1743  H     0.09655   0.88571   0.52835   0.00000  Uiso   1.00
H1744  H     0.09325   0.91320   0.56993   0.00000  Uiso   1.00
O1745  O     0.49650   0.84748   0.46197   0.00000  Uiso   1.00
C1746  C     0.02914   0.85249   0.44278   0.00000  Uiso   1.00
H1747  H     0.02595   0.87573   0.42352   0.00000  Uiso   1.00
H1748  H     0.03673   0.82969   0.42431   0.00000  Uiso   1.00
C1749  C     0.05892   0.85999   0.47119   0.00000  Uiso   1.00
H1750  H     0.05193   0.88434   0.48753   0.00000  Uiso   1.00
H1751  H     0.06210   0.83732   0.49129   0.00000  Uiso   1.00
C1752  C     0.09377   0.86521   0.45021   0.00000  Uiso   1.00
H1753  H     0.09833   0.84324   0.42942   0.00000  Uiso   1.00
H1754  H     0.11623   0.86518   0.47072   0.00000  Uiso   1.00
H1755  H     0.09293   0.89108   0.43506   0.00000  Uiso   1.00
O1756  O     0.00734   0.65328   0.53600   0.00000  Uiso   1.00
C1757  C     0.04059   0.64857   0.55337   0.00000  Uiso   1.00
H1758  H     0.03590   0.63351   0.58027   0.00000  Uiso   1.00
H1759  H     0.05449   0.67370   0.56184   0.00000  Uiso   1.00
C1760  C     0.06397   0.62726   0.52653   0.00000  Uiso   1.00
H1761  H     0.04818   0.60603   0.51224   0.00000  Uiso   1.00
H1762  H     0.07527   0.64515   0.50423   0.00000  Uiso   1.00
C1763  C     0.09341   0.61083   0.54974   0.00000  Uiso   1.00
H1764  H     0.10849   0.63247   0.56407   0.00000  Uiso   1.00
H1765  H     0.11137   0.59607   0.53102   0.00000  Uiso   1.00
H1766  H     0.08234   0.59202   0.57129   0.00000  Uiso   1.00
O1767  O     0.15239   0.99851   0.46226   0.00000  Uiso   1.00
C1768  C     0.14853   0.53202   0.44458   0.00000  Uiso   1.00
H1769  H     0.12528   0.53039   0.42500   0.00000  Uiso   1.00
H1770  H     0.17170   0.53960   0.42659   0.00000  Uiso   1.00
C1771  C     0.14181   0.56078   0.47433   0.00000  Uiso   1.00
H1772  H     0.11696   0.55380   0.48972   0.00000  Uiso   1.00
H1773  H     0.16426   0.56210   0.49502   0.00000  Uiso   1.00
C1774  C     0.13830   0.59681   0.45524   0.00000  Uiso   1.00
H1775  H     0.16059   0.60127   0.43483   0.00000  Uiso   1.00
H1776  H     0.13929   0.61820   0.47707   0.00000  Uiso   1.00
H1777  H     0.11247   0.59802   0.43991   0.00000  Uiso   1.00
O1778  O     0.34682   0.50674   0.53630   0.00000  Uiso   1.00
C1779  C     0.35230   0.54092   0.55104   0.00000  Uiso   1.00
H1780  H     0.36721   0.53778   0.57828   0.00000  Uiso   1.00
H1781  H     0.32741   0.55580   0.55836   0.00000  Uiso   1.00
C1782  C     0.37428   0.56192   0.52248   0.00000  Uiso   1.00
H1783  H     0.39545   0.54490   0.50980   0.00000  Uiso   1.00
H1784  H     0.35680   0.57180   0.49911   0.00000  Uiso   1.00
C1785  C     0.39093   0.59266   0.54327   0.00000  Uiso   1.00
H1786  H     0.36921   0.60840   0.55657   0.00000  Uiso   1.00
H1787  H     0.40546   0.60962   0.52336   0.00000  Uiso   1.00
H1788  H     0.40991   0.58296   0.56540   0.00000  Uiso   1.00
O1789  O     0.25269   0.90318   0.96142   0.00000  Uiso   1.00
C1790  C     0.21915   0.89887   0.94381   0.00000  Uiso   1.00
H1791  H     0.22086   0.87525   0.92482   0.00000  Uiso   1.00
H1792  H     0.21157   0.92164   0.92531   0.00000  Uiso   1.00
C1793  C     0.19035   0.89269   0.97377   0.00000  Uiso   1.00
H1794  H     0.19802   0.86891   0.99067   0.00000  Uiso   1.00
H1795  H     0.18808   0.91606   0.99310   0.00000  Uiso   1.00
C1796  C     0.15461   0.88698   0.95470   0.00000  Uiso   1.00
H1797  H     0.14954   0.90799   0.93292   0.00000  Uiso   1.00
H1798  H     0.13300   0.88837   0.97623   0.00000  Uiso   1.00
H1799  H     0.15447   0.86033   0.94105   0.00000  Uiso   1.00
O1800  O     0.24227   0.59697   0.03655   0.00000  Uiso   1.00
C1801  C     0.20883   0.60120   0.05365   0.00000  Uiso   1.00
H1802  H     0.21322   0.61549   0.08112   0.00000  Uiso   1.00
H1803  H     0.19477   0.57588   0.06105   0.00000  Uiso   1.00
C1804  C     0.18577   0.62329   0.02728   0.00000  Uiso   1.00
H1805  H     0.20179   0.64471   0.01370   0.00000  Uiso   1.00
H1806  H     0.17448   0.60600   0.00441   0.00000  Uiso   1.00
C1807  C     0.15633   0.63946   0.05078   0.00000  Uiso   1.00
H1808  H     0.14099   0.61766   0.06436   0.00000  Uiso   1.00
H1809  H     0.13863   0.65482   0.03238   0.00000  Uiso   1.00
H1810  H     0.16742   0.65768   0.07287   0.00000  Uiso   1.00
O1811  O     0.09732   0.75104   0.96232   0.00000  Uiso   1.00
C1812  C     0.10083   0.71728   0.94505   0.00000  Uiso   1.00
H1813  H     0.12417   0.71841   0.92558   0.00000  Uiso   1.00
H1814  H     0.07762   0.70975   0.92707   0.00000  Uiso   1.00
C1815  C     0.10715   0.68886   0.97523   0.00000  Uiso   1.00
H1816  H     0.13177   0.69612   0.99089   0.00000  Uiso   1.00
H1817  H     0.08443   0.68772   0.99558   0.00000  Uiso   1.00
C1818  C     0.11102   0.65261   0.95669   0.00000  Uiso   1.00
H1819  H     0.08897   0.64781   0.93604   0.00000  Uiso   1.00
H1820  H     0.10989   0.63154   0.97882   0.00000  Uiso   1.00
H1821  H     0.13703   0.65134   0.94175   0.00000  Uiso   1.00
O1822  O     0.40306   0.74244   0.03643   0.00000  Uiso   1.00
C1823  C     0.39854   0.70840   0.05192   0.00000  Uiso   1.00
H1824  H     0.38392   0.71178   0.07932   0.00000  Uiso   1.00
H1825  H     0.42381   0.69415   0.05915   0.00000  Uiso   1.00
C1826  C     0.37669   0.68631   0.02419   0.00000  Uiso   1.00
H1827  H     0.35529   0.70272   0.01111   0.00000  Uiso   1.00
H1828  H     0.39420   0.67595   0.00105   0.00000  Uiso   1.00
C1829  C     0.36044   0.65596   0.04606   0.00000  Uiso   1.00
H1830  H     0.38233   0.64045   0.05929   0.00000  Uiso   1.00
H1831  H     0.34547   0.63864   0.02684   0.00000  Uiso   1.00
H1832  H     0.34184   0.66611   0.06832   0.00000  Uiso   1.00
O1833  O     0.24630   0.59686   0.96176   0.00000  Uiso   1.00
C1834  C     0.27909   0.60137   0.94269   0.00000  Uiso   1.00
H1835  H     0.27613   0.62427   0.92291   0.00000  Uiso   1.00
H1836  H     0.28679   0.57824   0.92476   0.00000  Uiso   1.00
C1837  C     0.30862   0.60929   0.97120   0.00000  Uiso   1.00
H1838  H     0.30152   0.63407   0.98669   0.00000  Uiso   1.00
H1839  H     0.31137   0.58711   0.99199   0.00000  Uiso   1.00
C1840  C     0.34377   0.61375   0.95053   0.00000  Uiso   1.00
H1841  H     0.34848   0.59118   0.93055   0.00000  Uiso   1.00
H1842  H     0.36598   0.61423   0.97136   0.00000  Uiso   1.00
H1843  H     0.34324   0.63916   0.93450   0.00000  Uiso   1.00
O1844  O     0.25742   0.90290   0.03636   0.00000  Uiso   1.00
C1845  C     0.29124   0.89820   0.05234   0.00000  Uiso   1.00
H1846  H     0.28746   0.88330   0.07950   0.00000  Uiso   1.00
H1847  H     0.30544   0.92336   0.06008   0.00000  Uiso   1.00
C1848  C     0.31356   0.87666   0.02465   0.00000  Uiso   1.00
H1849  H     0.29722   0.85535   0.01126   0.00000  Uiso   1.00
H1850  H     0.32398   0.89437   0.00172   0.00000  Uiso   1.00
C1851  C     0.34386   0.86035   0.04661   0.00000  Uiso   1.00
H1852  H     0.35965   0.88214   0.05965   0.00000  Uiso   1.00
H1853  H     0.36087   0.84507   0.02739   0.00000  Uiso   1.00
H1854  H     0.33361   0.84200   0.06904   0.00000  Uiso   1.00
O1855  O     0.40325   0.74764   0.96176   0.00000  Uiso   1.00
C1856  C     0.39903   0.78044   0.94275   0.00000  Uiso   1.00
H1857  H     0.37660   0.77749   0.92226   0.00000  Uiso   1.00
H1858  H     0.42258   0.78838   0.92554   0.00000  Uiso   1.00
C1859  C     0.39028   0.80968   0.97120   0.00000  Uiso   1.00
H1860  H     0.36477   0.80267   0.98533   0.00000  Uiso   1.00
H1861  H     0.41164   0.81190   0.99309   0.00000  Uiso   1.00
C1862  C     0.38704   0.84509   0.95082   0.00000  Uiso   1.00
H1863  H     0.41052   0.84978   0.93209   0.00000  Uiso   1.00
H1864  H     0.38586   0.86696   0.97203   0.00000  Uiso   1.00
H1865  H     0.36234   0.84505   0.93343   0.00000  Uiso   1.00
O1866  O     0.09729   0.75879   0.03691   0.00000  Uiso   1.00
C1867  C     0.10117   0.79279   0.05287   0.00000  Uiso   1.00
H1868  H     0.11477   0.78935   0.08087   0.00000  Uiso   1.00
H1869  H     0.07564   0.80704   0.05908   0.00000  Uiso   1.00
C1870  C     0.12399   0.81509   0.02630   0.00000  Uiso   1.00
H1871  H     0.14569   0.79872   0.01366   0.00000  Uiso   1.00
H1872  H     0.10725   0.82581   0.00272   0.00000  Uiso   1.00
C1873  C     0.13981   0.84502   0.04930   0.00000  Uiso   1.00
H1874  H     0.11771   0.86015   0.06276   0.00000  Uiso   1.00
H1875  H     0.15489   0.86295   0.03084   0.00000  Uiso   1.00
H1876  H     0.15817   0.83446   0.07158   0.00000  Uiso   1.00
N1877  N     0.12974   0.92149   0.18907   0.00000  Uiso   1.00
H1878  H     0.12380   0.90757   0.16478   0.00000  Uiso   1.00
C1879  C     0.11658   0.95774   0.18844   0.00000  Uiso   1.00
H1880  H     0.09351   0.95988   0.16902   0.00000  Uiso   1.00
H1881  H     0.13773   0.97539   0.17670   0.00000  Uiso   1.00
H1882  H     0.10923   0.96698   0.21763   0.00000  Uiso   1.00
N1883  N     0.37846   0.56663   0.80517   0.00000  Uiso   1.00
H1884  H     0.40332   0.55611   0.81023   0.00000  Uiso   1.00
C1885  C     0.35394   0.56319   0.83750   0.00000  Uiso   1.00
H1886  H     0.36552   0.57478   0.86358   0.00000  Uiso   1.00
H1887  H     0.34889   0.53436   0.84278   0.00000  Uiso   1.00
H1888  H     0.32792   0.57625   0.83180   0.00000  Uiso   1.00
N1889  N     0.07690   0.62807   0.19010   0.00000  Uiso   1.00
H1890  H     0.08995   0.62037   0.16599   0.00000  Uiso   1.00
C1891  C     0.04047   0.61536   0.19098   0.00000  Uiso   1.00
H1892  H     0.03794   0.59093   0.17373   0.00000  Uiso   1.00
H1893  H     0.02288   0.63580   0.17783   0.00000  Uiso   1.00
H1894  H     0.03133   0.61029   0.22090   0.00000  Uiso   1.00
N1895  N     0.43442   0.87997   0.80413   0.00000  Uiso   1.00
H1896  H     0.44338   0.90532   0.80962   0.00000  Uiso   1.00
C1897  C     0.43971   0.85584   0.83651   0.00000  Uiso   1.00
H1898  H     0.43031   0.86800   0.86346   0.00000  Uiso   1.00
H1899  H     0.46882   0.85048   0.83973   0.00000  Uiso   1.00
H1900  H     0.42587   0.83001   0.83251   0.00000  Uiso   1.00
N1901  N     0.36964   0.57892   0.18886   0.00000  Uiso   1.00
H1902  H     0.37519   0.59326   0.16483   0.00000  Uiso   1.00
C1903  C     0.38295   0.54274   0.18738   0.00000  Uiso   1.00
H1904  H     0.40587   0.54104   0.16767   0.00000  Uiso   1.00
H1905  H     0.36178   0.52518   0.17553   0.00000  Uiso   1.00
H1906  H     0.39055   0.53306   0.21633   0.00000  Uiso   1.00
N1907  N     0.12188   0.93300   0.80573   0.00000  Uiso   1.00
H1908  H     0.09710   0.94362   0.81102   0.00000  Uiso   1.00
C1909  C     0.14693   0.93662   0.83758   0.00000  Uiso   1.00
H1910  H     0.13562   0.92565   0.86413   0.00000  Uiso   1.00
H1911  H     0.15237   0.96545   0.84236   0.00000  Uiso   1.00
H1912  H     0.17271   0.92318   0.83168   0.00000  Uiso   1.00
N1913  N     0.42254   0.87125   0.18990   0.00000  Uiso   1.00
H1914  H     0.40887   0.87820   0.16595   0.00000  Uiso   1.00
C1915  C     0.45886   0.88423   0.18979   0.00000  Uiso   1.00
H1916  H     0.46093   0.90822   0.17181   0.00000  Uiso   1.00
H1917  H     0.47641   0.86360   0.17693   0.00000  Uiso   1.00
H1918  H     0.46837   0.89007   0.21941   0.00000  Uiso   1.00
N1919  N     0.06597   0.62058   0.80448   0.00000  Uiso   1.00
H1920  H     0.05678   0.59536   0.81018   0.00000  Uiso   1.00
C1921  C     0.06120   0.64504   0.83675   0.00000  Uiso   1.00
H1922  H     0.07112   0.63321   0.86361   0.00000  Uiso   1.00
H1923  H     0.03215   0.65040   0.84045   0.00000  Uiso   1.00
H1924  H     0.07492   0.67083   0.83217   0.00000  Uiso   1.00
N1925  N     0.11538   0.56705   0.80179   0.00000  Uiso   1.00
H1926  H     0.13577   0.56100   0.81948   0.00000  Uiso   1.00
C1927  C     0.09632   0.53638   0.78737   0.00000  Uiso   1.00
H1928  H     0.08695   0.52063   0.81261   0.00000  Uiso   1.00
H1929  H     0.11403   0.51892   0.76968   0.00000  Uiso   1.00
H1930  H     0.07276   0.54495   0.77011   0.00000  Uiso   1.00
N1931  N     0.37697   0.92935   0.19478   0.00000  Uiso   1.00
H1932  H     0.40226   0.93715   0.18692   0.00000  Uiso   1.00
C1933  C     0.35224   0.92736   0.16270   0.00000  Uiso   1.00
H1934  H     0.34333   0.95472   0.15526   0.00000  Uiso   1.00
H1935  H     0.32839   0.91115   0.16978   0.00000  Uiso   1.00
H1936  H     0.36538   0.91584   0.13713   0.00000  Uiso   1.00
N1937  N     0.06753   0.88330   0.80305   0.00000  Uiso   1.00
H1938  H     0.06035   0.86169   0.81878   0.00000  Uiso   1.00
C1939  C     0.03737   0.90328   0.78927   0.00000  Uiso   1.00
H1940  H     0.02357   0.91540   0.81432   0.00000  Uiso   1.00
H1941  H     0.01809   0.88552   0.77457   0.00000  Uiso   1.00
H1942  H     0.04571   0.92464   0.76946   0.00000  Uiso   1.00
N1943  N     0.42763   0.62475   0.19278   0.00000  Uiso   1.00
H1944  H     0.43528   0.59982   0.18342   0.00000  Uiso   1.00
C1945  C     0.42493   0.65090   0.16217   0.00000  Uiso   1.00
H1946  H     0.45210   0.66013   0.15443   0.00000  Uiso   1.00
H1947  H     0.40892   0.67440   0.17098   0.00000  Uiso   1.00
H1948  H     0.41275   0.63899   0.13623   0.00000  Uiso   1.00
N1949  N     0.38462   0.93323   0.80149   0.00000  Uiso   1.00
H1950  H     0.36483   0.93877   0.82021   0.00000  Uiso   1.00
C1951  C     0.40364   0.96393   0.78724   0.00000  Uiso   1.00
H1952  H     0.41358   0.97916   0.81254   0.00000  Uiso   1.00
H1953  H     0.38590   0.98174   0.77046   0.00000  Uiso   1.00
H1954  H     0.42669   0.95556   0.76954   0.00000  Uiso   1.00
N1955  N     0.12312   0.57048   0.19482   0.00000  Uiso   1.00
H1956  H     0.09786   0.56250   0.18709   0.00000  Uiso   1.00
C1957  C     0.14774   0.57249   0.16266   0.00000  Uiso   1.00
H1958  H     0.15643   0.54512   0.15492   0.00000  Uiso   1.00
H1959  H     0.17173   0.58847   0.16976   0.00000  Uiso   1.00
H1960  H     0.13457   0.58429   0.13724   0.00000  Uiso   1.00
N1961  N     0.43266   0.61649   0.80287   0.00000  Uiso   1.00
H1962  H     0.43993   0.63822   0.81833   0.00000  Uiso   1.00
C1963  C     0.46286   0.59673   0.78881   0.00000  Uiso   1.00
H1964  H     0.47680   0.58444   0.81363   0.00000  Uiso   1.00
H1965  H     0.48199   0.61474   0.77426   0.00000  Uiso   1.00
H1966  H     0.45462   0.57549   0.76873   0.00000  Uiso   1.00
N1967  N     0.07209   0.87524   0.19299   0.00000  Uiso   1.00
H1968  H     0.06410   0.90016   0.18399   0.00000  Uiso   1.00
C1969  C     0.07478   0.84927   0.16217   0.00000  Uiso   1.00
H1970  H     0.04763   0.83989   0.15454   0.00000  Uiso   1.00
H1971  H     0.09096   0.82582   0.17074   0.00000  Uiso   1.00
H1972  H     0.08677   0.86140   0.13628   0.00000  Uiso   1.00
N1973  N     0.38084   0.67038   0.68845   0.00000  Uiso   1.00
H1974  H     0.37554   0.65564   0.66456   0.00000  Uiso   1.00
C1975  C     0.36769   0.70660   0.68612   0.00000  Uiso   1.00
H1976  H     0.34542   0.70822   0.66554   0.00000  Uiso   1.00
H1977  H     0.38927   0.72397   0.67483   0.00000  Uiso   1.00
H1978  H     0.35919   0.71657   0.71469   0.00000  Uiso   1.00
N1979  N     0.12892   0.81628   0.30466   0.00000  Uiso   1.00
H1980  H     0.15382   0.80571   0.30938   0.00000  Uiso   1.00
C1981  C     0.10467   0.81261   0.33720   0.00000  Uiso   1.00
H1982  H     0.11662   0.82368   0.36336   0.00000  Uiso   1.00
H1983  H     0.09941   0.78376   0.34207   0.00000  Uiso   1.00
H1984  H     0.07873   0.82600   0.33199   0.00000  Uiso   1.00
N1985  N     0.32790   0.87898   0.68960   0.00000  Uiso   1.00
H1986  H     0.34180   0.87191   0.66584   0.00000  Uiso   1.00
C1987  C     0.29148   0.86621   0.68893   0.00000  Uiso   1.00
H1988  H     0.28942   0.84246   0.67054   0.00000  Uiso   1.00
H1989  H     0.27418   0.88709   0.67615   0.00000  Uiso   1.00
H1990  H     0.28164   0.86010   0.71835   0.00000  Uiso   1.00
N1991  N     0.18380   0.62936   0.30490   0.00000  Uiso   1.00
H1992  H     0.19269   0.65462   0.31094   0.00000  Uiso   1.00
C1993  C     0.18903   0.60466   0.33679   0.00000  Uiso   1.00
H1994  H     0.17962   0.61630   0.36398   0.00000  Uiso   1.00
H1995  H     0.21813   0.59925   0.33998   0.00000  Uiso   1.00
H1996  H     0.17518   0.57892   0.33224   0.00000  Uiso   1.00
N1997  N     0.12172   0.82677   0.69041   0.00000  Uiso   1.00
H1998  H     0.12838   0.83984   0.66587   0.00000  Uiso   1.00
C1999  C     0.13490   0.79052   0.69146   0.00000  Uiso   1.00
H2000  H     0.15894   0.78800   0.67348   0.00000  Uiso   1.00
H2001  H     0.11434   0.77258   0.67902   0.00000  Uiso   1.00
H2002  H     0.14075   0.78195   0.72130   0.00000  Uiso   1.00
N2003  N     0.37100   0.68401   0.30438   0.00000  Uiso   1.00
H2004  H     0.34615   0.69479   0.30876   0.00000  Uiso   1.00
C2005  C     0.39494   0.68743   0.33716   0.00000  Uiso   1.00
H2006  H     0.38286   0.67583   0.36299   0.00000  Uiso   1.00
H2007  H     0.39992   0.71626   0.34261   0.00000  Uiso   1.00
H2008  H     0.42105   0.67440   0.33199   0.00000  Uiso   1.00
N2009  N     0.17317   0.62182   0.69025   0.00000  Uiso   1.00
H2010  H     0.16007   0.62941   0.66608   0.00000  Uiso   1.00
C2011  C     0.20955   0.63475   0.69113   0.00000  Uiso   1.00
H2012  H     0.21197   0.65919   0.67387   0.00000  Uiso   1.00
H2013  H     0.22723   0.61437   0.67797   0.00000  Uiso   1.00
H2014  H     0.21865   0.63988   0.72111   0.00000  Uiso   1.00
N2015  N     0.31614   0.87054   0.30457   0.00000  Uiso   1.00
H2016  H     0.30712   0.84528   0.31038   0.00000  Uiso   1.00
C2017  C     0.31134   0.89506   0.33678   0.00000  Uiso   1.00
H2018  H     0.32134   0.88329   0.36364   0.00000  Uiso   1.00
H2019  H     0.28228   0.90036   0.34051   0.00000  Uiso   1.00
H2020  H     0.32498   0.92088   0.33213   0.00000  Uiso   1.00
N2021  N     0.36558   0.81670   0.30116   0.00000  Uiso   1.00
H2022  H     0.38395   0.81177   0.32127   0.00000  Uiso   1.00
C2023  C     0.34598   0.78628   0.28708   0.00000  Uiso   1.00
H2024  H     0.33352   0.77301   0.31205   0.00000  Uiso   1.00
H2025  H     0.36397   0.76679   0.27308   0.00000  Uiso   1.00
H2026  H     0.32486   0.79465   0.26678   0.00000  Uiso   1.00
N2027  N     0.12718   0.67962   0.69508   0.00000  Uiso   1.00
H2028  H     0.15251   0.68760   0.68755   0.00000  Uiso   1.00
C2029  C     0.10274   0.67773   0.66273   0.00000  Uiso   1.00
H2030  H     0.09403   0.70512   0.65519   0.00000  Uiso   1.00
H2031  H     0.07874   0.66164   0.66957   0.00000  Uiso   1.00
H2032  H     0.11606   0.66612   0.63731   0.00000  Uiso   1.00
N2033  N     0.31715   0.63377   0.30265   0.00000  Uiso   1.00
H2034  H     0.31007   0.61220   0.31844   0.00000  Uiso   1.00
C2035  C     0.28682   0.65333   0.28861   0.00000  Uiso   1.00
H2036  H     0.27282   0.66548   0.31350   0.00000  Uiso   1.00
H2037  H     0.26777   0.63528   0.27399   0.00000  Uiso   1.00
H2038  H     0.29498   0.67463   0.26863   0.00000  Uiso   1.00
N2039  N     0.17870   0.87382   0.69390   0.00000  Uiso   1.00
H2040  H     0.18691   0.84880   0.68539   0.00000  Uiso   1.00
C2041  C     0.17605   0.89920   0.66255   0.00000  Uiso   1.00
H2042  H     0.20321   0.90854   0.65487   0.00000  Uiso   1.00
H2043  H     0.15971   0.92273   0.67052   0.00000  Uiso   1.00
H2044  H     0.16429   0.88655   0.63679   0.00000  Uiso   1.00
N2045  N     0.13463   0.68314   0.30138   0.00000  Uiso   1.00
H2046  H     0.11424   0.68971   0.31921   0.00000  Uiso   1.00
C2047  C     0.15466   0.71318   0.28715   0.00000  Uiso   1.00
H2048  H     0.16688   0.72667   0.31228   0.00000  Uiso   1.00
H2049  H     0.13708   0.73263   0.27258   0.00000  Uiso   1.00
H2050  H     0.17604   0.70436   0.26749   0.00000  Uiso   1.00
N2051  N     0.37302   0.82059   0.69480   0.00000  Uiso   1.00
H2052  H     0.34769   0.81292   0.68691   0.00000  Uiso   1.00
C2053  C     0.39777   0.82241   0.66272   0.00000  Uiso   1.00
H2054  H     0.40663   0.79501   0.65534   0.00000  Uiso   1.00
H2055  H     0.42164   0.83864   0.66972   0.00000  Uiso   1.00
H2056  H     0.38463   0.83383   0.63706   0.00000  Uiso   1.00
N2057  N     0.18281   0.86651   0.30270   0.00000  Uiso   1.00
H2058  H     0.18983   0.88823   0.31836   0.00000  Uiso   1.00
C2059  C     0.21319   0.84700   0.28869   0.00000  Uiso   1.00
H2060  H     0.22747   0.83521   0.31356   0.00000  Uiso   1.00
H2061  H     0.23197   0.86506   0.27370   0.00000  Uiso   1.00
H2062  H     0.20510   0.82539   0.26901   0.00000  Uiso   1.00
N2063  N     0.32238   0.62512   0.69273   0.00000  Uiso   1.00
H2064  H     0.31472   0.65004   0.68340   0.00000  Uiso   1.00
C2065  C     0.32500   0.59885   0.66220   0.00000  Uiso   1.00
H2066  H     0.29785   0.58920   0.65494   0.00000  Uiso   1.00
H2067  H     0.34144   0.57561   0.67087   0.00000  Uiso   1.00
H2068  H     0.33663   0.61081   0.63603   0.00000  Uiso   1.00
O2069  O     0.47815   0.81011   0.39792   0.00000  Uiso   1.00
C2070  C     0.44530   0.82311   0.41223   0.00000  Uiso   1.00
H2071  H     0.44842   0.85181   0.41893   0.00000  Uiso   1.00
H2072  H     0.43503   0.80917   0.43815   0.00000  Uiso   1.00
C2073  C     0.41740   0.82034   0.38152   0.00000  Uiso   1.00
H2074  H     0.42861   0.83182   0.35470   0.00000  Uiso   1.00
H2075  H     0.41107   0.79182   0.37691   0.00000  Uiso   1.00
C2076  C     0.38355   0.84026   0.39289   0.00000  Uiso   1.00
H2077  H     0.37921   0.83867   0.42426   0.00000  Uiso   1.00
H2078  H     0.35990   0.82823   0.37901   0.00000  Uiso   1.00
H2079  H     0.38550   0.86852   0.38377   0.00000  Uiso   1.00
O2080  O     0.49331   0.68728   0.60319   0.00000  Uiso   1.00
C2081  C     0.46236   0.66830   0.59230   0.00000  Uiso   1.00
H2082  H     0.46783   0.63934   0.59569   0.00000  Uiso   1.00
H2083  H     0.45429   0.67291   0.56220   0.00000  Uiso   1.00
C2084  C     0.43050   0.67797   0.61640   0.00000  Uiso   1.00
H2085  H     0.43531   0.66875   0.64615   0.00000  Uiso   1.00
H2086  H     0.42662   0.70719   0.61640   0.00000  Uiso   1.00
C2087  C     0.39753   0.66041   0.59904   0.00000  Uiso   1.00
H2088  H     0.39824   0.66093   0.56738   0.00000  Uiso   1.00
H2089  H     0.37312   0.67510   0.60706   0.00000  Uiso   1.00
H2090  H     0.39606   0.63235   0.60914   0.00000  Uiso   1.00
O2091  O     0.18867   0.98150   0.39731   0.00000  Uiso   1.00
C2092  C     0.17390   0.94893   0.41009   0.00000  Uiso   1.00
H2093  H     0.14505   0.95308   0.41555   0.00000  Uiso   1.00
H2094  H     0.18624   0.93778   0.43659   0.00000  Uiso   1.00
C2095  C     0.17706   0.92137   0.37896   0.00000  Uiso   1.00
H2096  H     0.16777   0.93331   0.35160   0.00000  Uiso   1.00
H2097  H     0.20542   0.91344   0.37639   0.00000  Uiso   1.00
C2098  C     0.15464   0.88877   0.38852   0.00000  Uiso   1.00
H2099  H     0.15696   0.88231   0.41940   0.00000  Uiso   1.00
H2100  H     0.16418   0.86521   0.37266   0.00000  Uiso   1.00
H2101  H     0.12643   0.89374   0.38064   0.00000  Uiso   1.00
O2102  O     0.31302   0.99512   0.60358   0.00000  Uiso   1.00
C2103  C     0.33210   0.96374   0.59442   0.00000  Uiso   1.00
H2104  H     0.36109   0.96906   0.59872   0.00000  Uiso   1.00
H2105  H     0.32832   0.95512   0.56433   0.00000  Uiso   1.00
C2106  C     0.32145   0.93233   0.61907   0.00000  Uiso   1.00
H2107  H     0.33087   0.93699   0.64895   0.00000  Uiso   1.00
H2108  H     0.29202   0.92937   0.61903   0.00000  Uiso   1.00
C2109  C     0.33818   0.89873   0.60213   0.00000  Uiso   1.00
H2110  H     0.33876   0.89911   0.57040   0.00000  Uiso   1.00
H2111  H     0.32210   0.87495   0.60936   0.00000  Uiso   1.00
H2112  H     0.36591   0.89618   0.61304   0.00000  Uiso   1.00
O2113  O     0.02351   0.69119   0.39777   0.00000  Uiso   1.00
C2114  C     0.05643   0.67841   0.41217   0.00000  Uiso   1.00
H2115  H     0.05331   0.64994   0.41983   0.00000  Uiso   1.00
H2116  H     0.06705   0.69316   0.43746   0.00000  Uiso   1.00
C2117  C     0.08393   0.67999   0.38098   0.00000  Uiso   1.00
H2118  H     0.07208   0.66818   0.35462   0.00000  Uiso   1.00
H2119  H     0.09075   0.70830   0.37578   0.00000  Uiso   1.00
C2120  C     0.11757   0.65957   0.39199   0.00000  Uiso   1.00
H2121  H     0.12279   0.66197   0.42317   0.00000  Uiso   1.00
H2122  H     0.14103   0.67060   0.37683   0.00000  Uiso   1.00
H2123  H     0.11471   0.63110   0.38392   0.00000  Uiso   1.00
O2124  O     0.00715   0.81321   0.60370   0.00000  Uiso   1.00
C2125  C     0.03917   0.83131   0.59473   0.00000  Uiso   1.00
H2126  H     0.03536   0.86005   0.60139   0.00000  Uiso   1.00
H2127  H     0.04667   0.82937   0.56417   0.00000  Uiso   1.00
C2128  C     0.07071   0.81742   0.61720   0.00000  Uiso   1.00
H2129  H     0.06720   0.82476   0.64779   0.00000  Uiso   1.00
H2130  H     0.07236   0.78809   0.61468   0.00000  Uiso   1.00
C2131  C     0.10472   0.83345   0.60062   0.00000  Uiso   1.00
H2132  H     0.10470   0.83289   0.56888   0.00000  Uiso   1.00
H2133  H     0.12829   0.81767   0.60940   0.00000  Uiso   1.00
H2134  H     0.10712   0.86141   0.61075   0.00000  Uiso   1.00
O2135  O     0.31024   0.51914   0.39765   0.00000  Uiso   1.00
C2136  C     0.32449   0.55189   0.41072   0.00000  Uiso   1.00
H2137  H     0.35332   0.54809   0.41655   0.00000  Uiso   1.00
H2138  H     0.31173   0.56289   0.43707   0.00000  Uiso   1.00
C2139  C     0.32131   0.57937   0.37958   0.00000  Uiso   1.00
H2140  H     0.33096   0.56738   0.35235   0.00000  Uiso   1.00
H2141  H     0.29288   0.58694   0.37665   0.00000  Uiso   1.00
C2142  C     0.34334   0.61227   0.38921   0.00000  Uiso   1.00
H2143  H     0.34249   0.61782   0.42041   0.00000  Uiso   1.00
H2144  H     0.33250   0.63604   0.37466   0.00000  Uiso   1.00
H2145  H     0.37124   0.60821   0.37962   0.00000  Uiso   1.00
O2146  O     0.18664   0.50312   0.60417   0.00000  Uiso   1.00
C2147  C     0.16688   0.53430   0.59611   0.00000  Uiso   1.00
H2148  H     0.13831   0.52872   0.60198   0.00000  Uiso   1.00
H2149  H     0.16893   0.54271   0.56590   0.00000  Uiso   1.00
C2150  C     0.17838   0.56580   0.62017   0.00000  Uiso   1.00
H2151  H     0.16946   0.56173   0.65025   0.00000  Uiso   1.00
H2152  H     0.20774   0.56837   0.61962   0.00000  Uiso   1.00
C2153  C     0.16210   0.59953   0.60325   0.00000  Uiso   1.00
H2154  H     0.16121   0.59878   0.57157   0.00000  Uiso   1.00
H2155  H     0.17891   0.62298   0.60983   0.00000  Uiso   1.00
H2156  H     0.13461   0.60285   0.61463   0.00000  Uiso   1.00
O2157  O     0.22788   0.55969   0.89772   0.00000  Uiso   1.00
C2158  C     0.19508   0.57299   0.91191   0.00000  Uiso   1.00
H2159  H     0.19850   0.60157   0.91896   0.00000  Uiso   1.00
H2160  H     0.18445   0.55888   0.93756   0.00000  Uiso   1.00
C2161  C     0.16735   0.57098   0.88093   0.00000  Uiso   1.00
H2162  H     0.17894   0.58241   0.85428   0.00000  Uiso   1.00
H2163  H     0.16048   0.54261   0.87616   0.00000  Uiso   1.00
C2164  C     0.13384   0.59151   0.89212   0.00000  Uiso   1.00
H2165  H     0.12866   0.58895   0.92328   0.00000  Uiso   1.00
H2166  H     0.11029   0.58064   0.87701   0.00000  Uiso   1.00
H2167  H     0.13681   0.62002   0.88431   0.00000  Uiso   1.00
O2168  O     0.24504   0.93684   0.10336   0.00000  Uiso   1.00
C2169  C     0.21312   0.91833   0.09510   0.00000  Uiso   1.00
H2170  H     0.21693   0.88988   0.10319   0.00000  Uiso   1.00
H2171  H     0.20592   0.91886   0.06443   0.00000  Uiso   1.00
C2172  C     0.18131   0.93328   0.11639   0.00000  Uiso   1.00
H2173  H     0.18437   0.92731   0.14736   0.00000  Uiso   1.00
H2174  H     0.17961   0.96250   0.11238   0.00000  Uiso   1.00
C2175  C     0.14756   0.91667   0.09997   0.00000  Uiso   1.00
H2176  H     0.14777   0.91685   0.06826   0.00000  Uiso   1.00
H2177  H     0.12385   0.93212   0.10869   0.00000  Uiso   1.00
H2178  H     0.14571   0.88874   0.11027   0.00000  Uiso   1.00
O2179  O     0.43995   0.72980   0.89768   0.00000  Uiso   1.00
C2180  C     0.42598   0.69709   0.91114   0.00000  Uiso   1.00
H2181  H     0.39722   0.70078   0.91743   0.00000  Uiso   1.00
H2182  H     0.43922   0.68621   0.93727   0.00000  Uiso   1.00
C2183  C     0.42863   0.66958   0.87997   0.00000  Uiso   1.00
H2184  H     0.41878   0.68170   0.85293   0.00000  Uiso   1.00
H2185  H     0.45695   0.66173   0.87675   0.00000  Uiso   1.00
C2186  C     0.40640   0.63689   0.88972   0.00000  Uiso   1.00
H2187  H     0.40840   0.63069   0.92070   0.00000  Uiso   1.00
H2188  H     0.41627   0.61332   0.87406   0.00000  Uiso   1.00
H2189  H     0.37824   0.64160   0.88149   0.00000  Uiso   1.00
O2190  O     0.06324   0.74663   0.10409   0.00000  Uiso   1.00
C2191  C     0.08260   0.71518   0.09619   0.00000  Uiso   1.00
H2192  H     0.11113   0.72024   0.10274   0.00000  Uiso   1.00
H2193  H     0.08100   0.70697   0.06588   0.00000  Uiso   1.00
C2194  C     0.07008   0.68375   0.11969   0.00000  Uiso   1.00
H2195  H     0.07815   0.68771   0.15006   0.00000  Uiso   1.00
H2196  H     0.04074   0.68144   0.11811   0.00000  Uiso   1.00
C2197  C     0.08650   0.64994   0.10315   0.00000  Uiso   1.00
H2198  H     0.08754   0.65048   0.07147   0.00000  Uiso   1.00
H2199  H     0.06982   0.62650   0.10998   0.00000  Uiso   1.00
H2200  H     0.11396   0.64686   0.11461   0.00000  Uiso   1.00
O2201  O     0.27086   0.93993   0.89757   0.00000  Uiso   1.00
C2202  C     0.30377   0.92650   0.91127   0.00000  Uiso   1.00
H2203  H     0.30050   0.89770   0.91734   0.00000  Uiso   1.00
H2204  H     0.31426   0.93985   0.93748   0.00000  Uiso   1.00
C2205  C     0.33154   0.92980   0.88049   0.00000  Uiso   1.00
H2206  H     0.32036   0.91846   0.85358   0.00000  Uiso   1.00
H2207  H     0.33759   0.95842   0.87617   0.00000  Uiso   1.00
C2208  C     0.36567   0.91016   0.89151   0.00000  Uiso   1.00
H2209  H     0.36962   0.91063   0.92298   0.00000  Uiso   1.00
H2210  H     0.38922   0.92320   0.87857   0.00000  Uiso   1.00
H2211  H     0.36448   0.88224   0.88110   0.00000  Uiso   1.00
O2212  O     0.25597   0.56299   0.10342   0.00000  Uiso   1.00
C2213  C     0.28735   0.58179   0.09373   0.00000  Uiso   1.00
H2214  H     0.28269   0.61054   0.09948   0.00000  Uiso   1.00
H2215  H     0.29495   0.57918   0.06327   0.00000  Uiso   1.00
C2216  C     0.31924   0.56953   0.11647   0.00000  Uiso   1.00
H2217  H     0.31521   0.57722   0.14687   0.00000  Uiso   1.00
H2218  H     0.32202   0.54027   0.11449   0.00000  Uiso   1.00
C2219  C     0.35260   0.58672   0.09965   0.00000  Uiso   1.00
H2220  H     0.35242   0.58612   0.06795   0.00000  Uiso   1.00
H2221  H     0.37677   0.57186   0.10820   0.00000  Uiso   1.00
H2222  H     0.35413   0.61474   0.10973   0.00000  Uiso   1.00
O2223  O     0.06119   0.76854   0.89741   0.00000  Uiso   1.00
C2224  C     0.07630   0.80091   0.91043   0.00000  Uiso   1.00
H2225  H     0.10498   0.79633   0.91644   0.00000  Uiso   1.00
H2226  H     0.06364   0.81237   0.93660   0.00000  Uiso   1.00
C2227  C     0.07424   0.82842   0.87919   0.00000  Uiso   1.00
H2228  H     0.08369   0.81630   0.85195   0.00000  Uiso   1.00
H2229  H     0.04608   0.83692   0.87621   0.00000  Uiso   1.00
C2230  C     0.09725   0.86052   0.88915   0.00000  Uiso   1.00
H2231  H     0.09366   0.86776   0.91973   0.00000  Uiso   1.00
H2232  H     0.08927   0.88396   0.87213   0.00000  Uiso   1.00
H2233  H     0.12568   0.85448   0.88307   0.00000  Uiso   1.00
O2234  O     0.43691   0.75479   0.10376   0.00000  Uiso   1.00
C2235  C     0.41761   0.78601   0.09460   0.00000  Uiso   1.00
H2236  H     0.38875   0.78042   0.09870   0.00000  Uiso   1.00
H2237  H     0.42137   0.79466   0.06462   0.00000  Uiso   1.00
C2238  C     0.42776   0.81735   0.11952   0.00000  Uiso   1.00
H2239  H     0.41768   0.81274   0.14911   0.00000  Uiso   1.00
H2240  H     0.45713   0.82023   0.12033   0.00000  Uiso   1.00
C2241  C     0.41160   0.85104   0.10223   0.00000  Uiso   1.00
H2242  H     0.41148   0.85044   0.07054   0.00000  Uiso   1.00
H2243  H     0.42791   0.87466   0.10944   0.00000  Uiso   1.00
H2244  H     0.38383   0.85411   0.11282   0.00000  Uiso   1.00
C2245  C     0.98996   0.78101   0.41875   0.00000  Uiso   1.00
C2246  C     0.99744   0.71802   0.58157   0.00000  Uiso   1.00
C2247  C     0.71847   0.99103   0.41859   0.00000  Uiso   1.00
C2248  C     0.78216   0.99794   0.58177   0.00000  Uiso   1.00
C2249  C     0.51132   0.72017   0.41865   0.00000  Uiso   1.00
C2250  C     0.50337   0.78254   0.58187   0.00000  Uiso   1.00
C2251  C     0.78044   0.50924   0.41868   0.00000  Uiso   1.00
C2252  C     0.71739   0.50136   0.58201   0.00000  Uiso   1.00
C2253  C     0.73948   0.53052   0.91862   0.00000  Uiso   1.00
C2254  C     0.74780   0.96763   0.08166   0.00000  Uiso   1.00
C2255  C     0.96953   0.74036   0.91874   0.00000  Uiso   1.00
C2256  C     0.53248   0.74855   0.08202   0.00000  Uiso   1.00
C2257  C     0.75983   0.96930   0.91855   0.00000  Uiso   1.00
C2258  C     0.75244   0.53224   0.08170   0.00000  Uiso   1.00
C2259  C     0.53137   0.75908   0.91866   0.00000  Uiso   1.00
C2260  C     0.96773   0.75205   0.08184   0.00000  Uiso   1.00
C2261  C     0.50027   0.75044   0.39838   0.00000  Uiso   1.00
C2262  C     0.50015   0.75022   0.60168   0.00000  Uiso   1.00
C2263  C     0.74954   0.50008   0.39831   0.00000  Uiso   1.00
C2264  C     0.74986   0.99986   0.60189   0.00000  Uiso   1.00
C2265  C     0.74985   0.99998   0.89831   0.00000  Uiso   1.00
C2266  C     0.75005   0.99996   0.10165   0.00000  Uiso   1.00
C2267  C     0.50034   0.74991   0.89836   0.00000  Uiso   1.00
C2268  C     0.50005   0.75009   0.10192   0.00000  Uiso   1.00
C2269  C     0.50546   0.68647   0.47931   0.00000  Uiso   1.00
C2270  C     0.99573   0.81474   0.51968   0.00000  Uiso   1.00
C2271  C     0.81368   0.50357   0.47961   0.00000  Uiso   1.00
C2272  C     0.68532   0.99396   0.51959   0.00000  Uiso   1.00
C2273  C     0.99589   0.81464   0.47980   0.00000  Uiso   1.00
C2274  C     0.50584   0.68620   0.51910   0.00000  Uiso   1.00
C2275  C     0.68528   0.99611   0.47995   0.00000  Uiso   1.00
C2276  C     0.81390   0.50502   0.51924   0.00000  Uiso   1.00
C2277  C     0.75446   0.93589   0.97947   0.00000  Uiso   1.00
C2278  C     0.74430   0.56415   0.01942   0.00000  Uiso   1.00
C2279  C     0.56450   0.75391   0.98002   0.00000  Uiso   1.00
C2280  C     0.93593   0.74479   0.01931   0.00000  Uiso   1.00
C2281  C     0.74513   0.56404   0.97961   0.00000  Uiso   1.00
C2282  C     0.75543   0.93572   0.01927   0.00000  Uiso   1.00
C2283  C     0.93609   0.74616   0.97969   0.00000  Uiso   1.00
C2284  C     0.56450   0.75594   0.01967   0.00000  Uiso   1.00
C2285  C     0.74979   0.50002   0.35574   0.00000  Uiso   1.00
C2286  C     0.75001   0.99997   0.64438   0.00000  Uiso   1.00
C2287  C     0.50004   0.75021   0.35575   0.00000  Uiso   1.00
C2288  C     0.50002   0.75007   0.64432   0.00000  Uiso   1.00
C2289  C     0.50015   0.74999   0.85576   0.00000  Uiso   1.00
C2290  C     0.99997   0.75001   0.14440   0.00000  Uiso   1.00
C2291  C     0.74998   0.50001   0.85573   0.00000  Uiso   1.00
C2292  C     0.75001   0.99999   0.14431   0.00000  Uiso   1.00
C2293  C     0.68008   0.56975   0.25040   0.00000  Uiso   1.00
C2294  C     0.82040   0.93021   0.75008   0.00000  Uiso   1.00
C2295  C     0.93021   0.68009   0.25031   0.00000  Uiso   1.00
C2296  C     0.56983   0.82035   0.75012   0.00000  Uiso   1.00
C2297  C     0.81992   0.93023   0.25042   0.00000  Uiso   1.00
C2298  C     0.67961   0.56981   0.75006   0.00000  Uiso   1.00
C2299  C     0.56979   0.81990   0.25035   0.00000  Uiso   1.00
C2300  C     0.93022   0.67959   0.75004   0.00000  Uiso   1.00
C2301  C     0.68029   0.93001   0.75041   0.00000  Uiso   1.00
C2302  C     0.81975   0.57043   0.25005   0.00000  Uiso   1.00
C2303  C     0.93010   0.81979   0.75038   0.00000  Uiso   1.00
C2304  C     0.57039   0.68018   0.25007   0.00000  Uiso   1.00
C2305  C     0.81975   0.56993   0.75038   0.00000  Uiso   1.00
C2306  C     0.68022   0.92960   0.25002   0.00000  Uiso   1.00
C2307  C     0.56991   0.68023   0.75041   0.00000  Uiso   1.00
C2308  C     0.92962   0.81981   0.25005   0.00000  Uiso   1.00
C2309  C     0.62548   0.90053   0.22244   0.00000  Uiso   1.00
C2310  C     0.87573   0.59607   0.77882   0.00000  Uiso   1.00
C2311  C     0.59873   0.62471   0.22296   0.00000  Uiso   1.00
C2312  C     0.90446   0.87620   0.77830   0.00000  Uiso   1.00
C2313  C     0.87435   0.59951   0.22238   0.00000  Uiso   1.00
C2314  C     0.62446   0.90373   0.77909   0.00000  Uiso   1.00
C2315  C     0.90125   0.87514   0.22295   0.00000  Uiso   1.00
C2316  C     0.59571   0.62402   0.77830   0.00000  Uiso   1.00
C2317  C     0.62093   0.59613   0.77675   0.00000  Uiso   1.00
C2318  C     0.87499   0.90201   0.22334   0.00000  Uiso   1.00
C2319  C     0.59656   0.87844   0.77733   0.00000  Uiso   1.00
C2320  C     0.90124   0.62572   0.22244   0.00000  Uiso   1.00
C2321  C     0.87910   0.90401   0.77659   0.00000  Uiso   1.00
C2322  C     0.62507   0.59792   0.22325   0.00000  Uiso   1.00
C2323  C     0.90358   0.62141   0.77717   0.00000  Uiso   1.00
C2324  C     0.59865   0.87426   0.22254   0.00000  Uiso   1.00
C2325  C     0.87573   0.65034   0.72232   0.00000  Uiso   1.00
C2326  C     0.62597   0.84587   0.27853   0.00000  Uiso   1.00
C2327  C     0.84888   0.87492   0.72294   0.00000  Uiso   1.00
C2328  C     0.65417   0.62589   0.27858   0.00000  Uiso   1.00
C2329  C     0.62514   0.84877   0.72313   0.00000  Uiso   1.00
C2330  C     0.87395   0.65427   0.27846   0.00000  Uiso   1.00
C2331  C     0.65131   0.62522   0.72302   0.00000  Uiso   1.00
C2332  C     0.84585   0.87404   0.27838   0.00000  Uiso   1.00
C2333  C     0.87109   0.84615   0.27671   0.00000  Uiso   1.00
C2334  C     0.62504   0.65207   0.72340   0.00000  Uiso   1.00
C2335  C     0.84618   0.62883   0.27696   0.00000  Uiso   1.00
C2336  C     0.65188   0.87513   0.72310   0.00000  Uiso   1.00
C2337  C     0.62895   0.65379   0.27669   0.00000  Uiso   1.00
C2338  C     0.87508   0.84801   0.72329   0.00000  Uiso   1.00
C2339  C     0.65374   0.87131   0.27692   0.00000  Uiso   1.00
C2340  C     0.84876   0.62420   0.72249   0.00000  Uiso   1.00
C2341  C     0.50588   0.71877   0.45899   0.00000  Uiso   1.00
C2342  C     0.99972   0.78292   0.54095   0.00000  Uiso   1.00
C2343  C     0.78145   0.50431   0.45901   0.00000  Uiso   1.00
C2344  C     0.71710   0.99816   0.54117   0.00000  Uiso   1.00
C2345  C     0.99554   0.78240   0.45917   0.00000  Uiso   1.00
C2346  C     0.50164   0.71789   0.54068   0.00000  Uiso   1.00
C2347  C     0.71744   0.99571   0.45905   0.00000  Uiso   1.00
C2348  C     0.78219   0.50129   0.54096   0.00000  Uiso   1.00
C2349  C     0.75470   0.96810   0.95897   0.00000  Uiso   1.00
C2350  C     0.74860   0.53243   0.04080   0.00000  Uiso   1.00
C2351  C     0.53235   0.75442   0.95913   0.00000  Uiso   1.00
C2352  C     0.96765   0.74873   0.04103   0.00000  Uiso   1.00
C2353  C     0.74479   0.53180   0.95905   0.00000  Uiso   1.00
C2354  C     0.75129   0.96743   0.04076   0.00000  Uiso   1.00
C2355  C     0.96836   0.74555   0.95905   0.00000  Uiso   1.00
C2356  C     0.53273   0.75184   0.04120   0.00000  Uiso   1.00
C2357  C     0.59806   0.84752   0.25089   0.00000  Uiso   1.00
C2358  C     0.90256   0.65039   0.75075   0.00000  Uiso   1.00
C2359  C     0.65238   0.59785   0.25127   0.00000  Uiso   1.00
C2360  C     0.84946   0.90244   0.75069   0.00000  Uiso   1.00
C2361  C     0.90188   0.65251   0.25087   0.00000  Uiso   1.00
C2362  C     0.59770   0.84930   0.75103   0.00000  Uiso   1.00
C2363  C     0.84765   0.90213   0.25125   0.00000  Uiso   1.00
C2364  C     0.65061   0.59761   0.75061   0.00000  Uiso   1.00
C2365  C     0.59760   0.65211   0.75120   0.00000  Uiso   1.00
C2366  C     0.90066   0.84765   0.25059   0.00000  Uiso   1.00
C2367  C     0.65224   0.90217   0.75128   0.00000  Uiso   1.00
C2368  C     0.84736   0.59964   0.25073   0.00000  Uiso   1.00
C2369  C     0.90248   0.84798   0.75121   0.00000  Uiso   1.00
C2370  C     0.59937   0.65232   0.25068   0.00000  Uiso   1.00
C2371  C     0.84797   0.59761   0.75100   0.00000  Uiso   1.00
C2372  C     0.65255   0.90041   0.25067   0.00000  Uiso   1.00
C2373  C     0.50072   0.75055   0.47960   0.00000  Uiso   1.00
C2374  C     0.50070   0.75046   0.52051   0.00000  Uiso   1.00
C2375  C     0.74948   0.99997   0.47977   0.00000  Uiso   1.00
C2376  C     0.74958   0.99988   0.52055   0.00000  Uiso   1.00
C2377  C     0.74980   0.99995   0.97953   0.00000  Uiso   1.00
C2378  C     0.74988   0.99993   0.02046   0.00000  Uiso   1.00
C2379  C     0.50031   0.75013   0.97983   0.00000  Uiso   1.00
C2380  C     0.50024   0.75020   0.02060   0.00000  Uiso   1.00
O2381  O     0.75000   0.50000   0.25000   0.00000  Uiso   1.00
O2382  O     0.75000   0.50000   0.75000   0.00000  Uiso   1.00
O2383  O     0.50000   0.75000   0.25000   0.00000  Uiso   1.00
O2384  O     0.50000   0.75000   0.75000   0.00000  Uiso   1.00
O2385  O     0.75000   0.96964   0.33755   0.00000  Uiso   1.00
O2386  O     0.75000   0.53036   0.66245   0.00000  Uiso   1.00
O2387  O     0.53037   0.75000   0.33755   0.00000  Uiso   1.00
O2388  O     0.96964   0.75000   0.66245   0.00000  Uiso   1.00
O2389  O     0.75000   0.53036   0.33755   0.00000  Uiso   1.00
O2390  O     0.75000   0.96964   0.66245   0.00000  Uiso   1.00
O2391  O     0.96964   0.75000   0.33755   0.00000  Uiso   1.00
O2392  O     0.53037   0.75000   0.66245   0.00000  Uiso   1.00
O2393  O     0.50000   0.71964   0.83755   0.00000  Uiso   1.00
O2394  O     0.50000   0.78037   0.16245   0.00000  Uiso   1.00
O2395  O     0.78037   0.50000   0.83755   0.00000  Uiso   1.00
O2396  O     0.71964   0.50000   0.16245   0.00000  Uiso   1.00
O2397  O     0.50000   0.78037   0.83755   0.00000  Uiso   1.00
O2398  O     0.50000   0.71964   0.16245   0.00000  Uiso   1.00
O2399  O     0.71964   0.50000   0.83755   0.00000  Uiso   1.00
O2400  O     0.78037   0.50000   0.16245   0.00000  Uiso   1.00
O2401  O     0.70725   0.57307   0.27302   0.00000  Uiso   1.00
O2402  O     0.79276   0.92693   0.72698   0.00000  Uiso   1.00
O2403  O     0.92693   0.70724   0.27302   0.00000  Uiso   1.00
O2404  O     0.57308   0.79276   0.72698   0.00000  Uiso   1.00
O2405  O     0.79276   0.92693   0.27302   0.00000  Uiso   1.00
O2406  O     0.70725   0.57307   0.72698   0.00000  Uiso   1.00
O2407  O     0.57308   0.79276   0.27302   0.00000  Uiso   1.00
O2408  O     0.92693   0.70724   0.72698   0.00000  Uiso   1.00
O2409  O     0.70725   0.92693   0.72698   0.00000  Uiso   1.00
O2410  O     0.79276   0.57307   0.27302   0.00000  Uiso   1.00
O2411  O     0.92693   0.79275   0.72698   0.00000  Uiso   1.00
O2412  O     0.57308   0.70725   0.27302   0.00000  Uiso   1.00
O2413  O     0.79276   0.57307   0.72698   0.00000  Uiso   1.00
O2414  O     0.70725   0.92693   0.27302   0.00000  Uiso   1.00
O2415  O     0.57308   0.70725   0.72698   0.00000  Uiso   1.00
O2416  O     0.92693   0.79275   0.27302   0.00000  Uiso   1.00
O2417  O     0.95725   0.82307   0.77302   0.00000  Uiso   1.00
O2418  O     0.54276   0.67693   0.22698   0.00000  Uiso   1.00
O2419  O     0.67693   0.95725   0.77302   0.00000  Uiso   1.00
O2420  O     0.82308   0.54275   0.22698   0.00000  Uiso   1.00
O2421  O     0.54276   0.67693   0.77302   0.00000  Uiso   1.00
O2422  O     0.95725   0.82307   0.22698   0.00000  Uiso   1.00
O2423  O     0.82308   0.54275   0.77302   0.00000  Uiso   1.00
O2424  O     0.67693   0.95725   0.22698   0.00000  Uiso   1.00
O2425  O     0.95725   0.67692   0.22698   0.00000  Uiso   1.00
O2426  O     0.54276   0.82308   0.77302   0.00000  Uiso   1.00
O2427  O     0.67693   0.54275   0.22698   0.00000  Uiso   1.00
O2428  O     0.82308   0.95725   0.77302   0.00000  Uiso   1.00
O2429  O     0.54276   0.82308   0.22698   0.00000  Uiso   1.00
O2430  O     0.95725   0.67692   0.77302   0.00000  Uiso   1.00
O2431  O     0.82308   0.95725   0.22698   0.00000  Uiso   1.00
O2432  O     0.67693   0.54275   0.77302   0.00000  Uiso   1.00
Zn2433 Zn    0.70660   0.50000   0.21735   0.00000  Uiso   1.00
Zn2434 Zn    0.79341   0.50000   0.78265   0.00000  Uiso   1.00
Zn2435 Zn    0.50000   0.70660   0.21735   0.00000  Uiso   1.00
Zn2436 Zn    0.50000   0.79341   0.78265   0.00000  Uiso   1.00
Zn2437 Zn    0.79341   0.50000   0.21735   0.00000  Uiso   1.00
Zn2438 Zn    0.70660   0.50000   0.78265   0.00000  Uiso   1.00
Zn2439 Zn    0.50000   0.79341   0.21735   0.00000  Uiso   1.00
Zn2440 Zn    0.50000   0.70660   0.78265   0.00000  Uiso   1.00
Zn2441 Zn    0.95660   0.75000   0.71735   0.00000  Uiso   1.00
Zn2442 Zn    0.54341   0.75000   0.28265   0.00000  Uiso   1.00
Zn2443 Zn    0.75000   0.95660   0.71735   0.00000  Uiso   1.00
Zn2444 Zn    0.75000   0.54340   0.28265   0.00000  Uiso   1.00
Zn2445 Zn    0.54341   0.75000   0.71735   0.00000  Uiso   1.00
Zn2446 Zn    0.95660   0.75000   0.28265   0.00000  Uiso   1.00
Zn2447 Zn    0.75000   0.54340   0.71735   0.00000  Uiso   1.00
Zn2448 Zn    0.75000   0.95660   0.28265   0.00000  Uiso   1.00
O2449  O     0.50472   0.65372   0.46121   0.00000  Uiso   1.00
C2450  C     0.97230   0.64911   0.44142   0.00000  Uiso   1.00
H2451  H     0.97594   0.62677   0.42097   0.00000  Uiso   1.00
H2452  H     0.96433   0.67253   0.42410   0.00000  Uiso   1.00
C2453  C     0.94260   0.63996   0.46921   0.00000  Uiso   1.00
H2454  H     0.94976   0.61470   0.48373   0.00000  Uiso   1.00
H2455  H     0.93945   0.66139   0.49089   0.00000  Uiso   1.00
C2456  C     0.90774   0.63589   0.44786   0.00000  Uiso   1.00
H2457  H     0.90271   0.65942   0.42930   0.00000  Uiso   1.00
H2458  H     0.88538   0.63379   0.46839   0.00000  Uiso   1.00
H2459  H     0.90898   0.61140   0.43016   0.00000  Uiso   1.00
O2460  O     0.99445   0.84757   0.53699   0.00000  Uiso   1.00
C2461  C     0.96096   0.85261   0.55377   0.00000  Uiso   1.00
H2462  H     0.96528   0.86830   0.58041   0.00000  Uiso   1.00
H2463  H     0.94705   0.82758   0.56265   0.00000  Uiso   1.00
C2464  C     0.93779   0.87328   0.52616   0.00000  Uiso   1.00
H2465  H     0.95348   0.89476   0.51224   0.00000  Uiso   1.00
H2466  H     0.92738   0.85506   0.50363   0.00000  Uiso   1.00
C2467  C     0.90741   0.88917   0.54844   0.00000  Uiso   1.00
H2468  H     0.89230   0.86724   0.56213   0.00000  Uiso   1.00
H2469  H     0.88974   0.90365   0.52915   0.00000  Uiso   1.00
H2470  H     0.91752   0.90817   0.57034   0.00000  Uiso   1.00
O2471  O     0.84642   0.50124   0.46160   0.00000  Uiso   1.00
C2472  C     0.85016   0.96772   0.44386   0.00000  Uiso   1.00
H2473  H     0.87321   0.96938   0.42402   0.00000  Uiso   1.00
H2474  H     0.82681   0.96005   0.42617   0.00000  Uiso   1.00
C2475  C     0.85728   0.93905   0.47357   0.00000  Uiso   1.00
H2476  H     0.88212   0.94634   0.48888   0.00000  Uiso   1.00
H2477  H     0.83493   0.93743   0.49435   0.00000  Uiso   1.00
C2478  C     0.86119   0.90312   0.45438   0.00000  Uiso   1.00
H2479  H     0.83884   0.89840   0.43403   0.00000  Uiso   1.00
H2480  H     0.86058   0.88168   0.47617   0.00000  Uiso   1.00
H2481  H     0.88701   0.90233   0.43892   0.00000  Uiso   1.00
O2482  O     0.65257   0.99070   0.53688   0.00000  Uiso   1.00
C2483  C     0.64898   0.95651   0.55237   0.00000  Uiso   1.00
H2484  H     0.63478   0.95952   0.58009   0.00000  Uiso   1.00
H2485  H     0.67465   0.94270   0.55904   0.00000  Uiso   1.00
C2486  C     0.62709   0.93398   0.52506   0.00000  Uiso   1.00
H2487  H     0.60521   0.95002   0.51231   0.00000  Uiso   1.00
H2488  H     0.64445   0.92392   0.50160   0.00000  Uiso   1.00
C2489  C     0.61165   0.90331   0.54727   0.00000  Uiso   1.00
H2490  H     0.63399   0.88809   0.56014   0.00000  Uiso   1.00
H2491  H     0.59655   0.88571   0.52835   0.00000  Uiso   1.00
H2492  H     0.59325   0.91320   0.56993   0.00000  Uiso   1.00
O2493  O     0.99650   0.84748   0.46197   0.00000  Uiso   1.00
C2494  C     0.52914   0.85249   0.44278   0.00000  Uiso   1.00
H2495  H     0.52595   0.87573   0.42352   0.00000  Uiso   1.00
H2496  H     0.53673   0.82969   0.42431   0.00000  Uiso   1.00
C2497  C     0.55892   0.85999   0.47119   0.00000  Uiso   1.00
H2498  H     0.55193   0.88434   0.48753   0.00000  Uiso   1.00
H2499  H     0.56210   0.83732   0.49129   0.00000  Uiso   1.00
C2500  C     0.59377   0.86521   0.45021   0.00000  Uiso   1.00
H2501  H     0.59833   0.84324   0.42942   0.00000  Uiso   1.00
H2502  H     0.61623   0.86518   0.47072   0.00000  Uiso   1.00
H2503  H     0.59293   0.89108   0.43506   0.00000  Uiso   1.00
O2504  O     0.50734   0.65328   0.53600   0.00000  Uiso   1.00
C2505  C     0.54059   0.64857   0.55337   0.00000  Uiso   1.00
H2506  H     0.53590   0.63351   0.58027   0.00000  Uiso   1.00
H2507  H     0.55449   0.67370   0.56184   0.00000  Uiso   1.00
C2508  C     0.56397   0.62726   0.52653   0.00000  Uiso   1.00
H2509  H     0.54818   0.60603   0.51224   0.00000  Uiso   1.00
H2510  H     0.57527   0.64515   0.50423   0.00000  Uiso   1.00
C2511  C     0.59341   0.61083   0.54974   0.00000  Uiso   1.00
H2512  H     0.60849   0.63247   0.56407   0.00000  Uiso   1.00
H2513  H     0.61137   0.59607   0.53102   0.00000  Uiso   1.00
H2514  H     0.58234   0.59202   0.57129   0.00000  Uiso   1.00
O2515  O     0.65239   0.99851   0.46226   0.00000  Uiso   1.00
C2516  C     0.64853   0.53202   0.44458   0.00000  Uiso   1.00
H2517  H     0.62528   0.53039   0.42500   0.00000  Uiso   1.00
H2518  H     0.67170   0.53960   0.42659   0.00000  Uiso   1.00
C2519  C     0.64181   0.56078   0.47433   0.00000  Uiso   1.00
H2520  H     0.61696   0.55380   0.48972   0.00000  Uiso   1.00
H2521  H     0.66426   0.56210   0.49502   0.00000  Uiso   1.00
C2522  C     0.63830   0.59681   0.45524   0.00000  Uiso   1.00
H2523  H     0.66059   0.60127   0.43483   0.00000  Uiso   1.00
H2524  H     0.63929   0.61820   0.47707   0.00000  Uiso   1.00
H2525  H     0.61247   0.59802   0.43991   0.00000  Uiso   1.00
O2526  O     0.84682   0.50674   0.53630   0.00000  Uiso   1.00
C2527  C     0.85230   0.54092   0.55104   0.00000  Uiso   1.00
H2528  H     0.86721   0.53778   0.57828   0.00000  Uiso   1.00
H2529  H     0.82741   0.55580   0.55836   0.00000  Uiso   1.00
C2530  C     0.87428   0.56192   0.52248   0.00000  Uiso   1.00
H2531  H     0.89545   0.54490   0.50980   0.00000  Uiso   1.00
H2532  H     0.85680   0.57180   0.49911   0.00000  Uiso   1.00
C2533  C     0.89093   0.59266   0.54327   0.00000  Uiso   1.00
H2534  H     0.86921   0.60840   0.55657   0.00000  Uiso   1.00
H2535  H     0.90546   0.60962   0.52336   0.00000  Uiso   1.00
H2536  H     0.90991   0.58296   0.56540   0.00000  Uiso   1.00
O2537  O     0.75269   0.90318   0.96142   0.00000  Uiso   1.00
C2538  C     0.71915   0.89887   0.94381   0.00000  Uiso   1.00
H2539  H     0.72086   0.87525   0.92482   0.00000  Uiso   1.00
H2540  H     0.71157   0.92164   0.92531   0.00000  Uiso   1.00
C2541  C     0.69035   0.89269   0.97377   0.00000  Uiso   1.00
H2542  H     0.69802   0.86891   0.99067   0.00000  Uiso   1.00
H2543  H     0.68808   0.91606   0.99310   0.00000  Uiso   1.00
C2544  C     0.65461   0.88698   0.95470   0.00000  Uiso   1.00
H2545  H     0.64954   0.90799   0.93292   0.00000  Uiso   1.00
H2546  H     0.63300   0.88837   0.97623   0.00000  Uiso   1.00
H2547  H     0.65447   0.86033   0.94105   0.00000  Uiso   1.00
O2548  O     0.74227   0.59697   0.03655   0.00000  Uiso   1.00
C2549  C     0.70883   0.60120   0.05365   0.00000  Uiso   1.00
H2550  H     0.71322   0.61549   0.08112   0.00000  Uiso   1.00
H2551  H     0.69477   0.57588   0.06105   0.00000  Uiso   1.00
C2552  C     0.68577   0.62329   0.02728   0.00000  Uiso   1.00
H2553  H     0.70179   0.64471   0.01370   0.00000  Uiso   1.00
H2554  H     0.67448   0.60600   0.00441   0.00000  Uiso   1.00
C2555  C     0.65633   0.63946   0.05078   0.00000  Uiso   1.00
H2556  H     0.64099   0.61766   0.06436   0.00000  Uiso   1.00
H2557  H     0.63863   0.65482   0.03238   0.00000  Uiso   1.00
H2558  H     0.66742   0.65768   0.07287   0.00000  Uiso   1.00
O2559  O     0.59732   0.75104   0.96232   0.00000  Uiso   1.00
C2560  C     0.60083   0.71728   0.94505   0.00000  Uiso   1.00
H2561  H     0.62417   0.71841   0.92558   0.00000  Uiso   1.00
H2562  H     0.57762   0.70975   0.92707   0.00000  Uiso   1.00
C2563  C     0.60715   0.68886   0.97523   0.00000  Uiso   1.00
H2564  H     0.63177   0.69612   0.99089   0.00000  Uiso   1.00
H2565  H     0.58443   0.68772   0.99558   0.00000  Uiso   1.00
C2566  C     0.61102   0.65261   0.95669   0.00000  Uiso   1.00
H2567  H     0.58897   0.64781   0.93604   0.00000  Uiso   1.00
H2568  H     0.60989   0.63154   0.97882   0.00000  Uiso   1.00
H2569  H     0.63703   0.65134   0.94175   0.00000  Uiso   1.00
O2570  O     0.90306   0.74244   0.03643   0.00000  Uiso   1.00
C2571  C     0.89854   0.70840   0.05192   0.00000  Uiso   1.00
H2572  H     0.88392   0.71178   0.07932   0.00000  Uiso   1.00
H2573  H     0.92381   0.69415   0.05915   0.00000  Uiso   1.00
C2574  C     0.87669   0.68631   0.02419   0.00000  Uiso   1.00
H2575  H     0.85529   0.70272   0.01111   0.00000  Uiso   1.00
H2576  H     0.89420   0.67595   0.00105   0.00000  Uiso   1.00
C2577  C     0.86044   0.65596   0.04606   0.00000  Uiso   1.00
H2578  H     0.88233   0.64045   0.05929   0.00000  Uiso   1.00
H2579  H     0.84547   0.63864   0.02684   0.00000  Uiso   1.00
H2580  H     0.84184   0.66611   0.06832   0.00000  Uiso   1.00
O2581  O     0.74630   0.59686   0.96176   0.00000  Uiso   1.00
C2582  C     0.77909   0.60137   0.94269   0.00000  Uiso   1.00
H2583  H     0.77613   0.62427   0.92291   0.00000  Uiso   1.00
H2584  H     0.78679   0.57824   0.92476   0.00000  Uiso   1.00
C2585  C     0.80862   0.60929   0.97120   0.00000  Uiso   1.00
H2586  H     0.80152   0.63407   0.98669   0.00000  Uiso   1.00
H2587  H     0.81137   0.58711   0.99199   0.00000  Uiso   1.00
C2588  C     0.84377   0.61375   0.95053   0.00000  Uiso   1.00
H2589  H     0.84848   0.59118   0.93055   0.00000  Uiso   1.00
H2590  H     0.86598   0.61423   0.97136   0.00000  Uiso   1.00
H2591  H     0.84324   0.63916   0.93450   0.00000  Uiso   1.00
O2592  O     0.75742   0.90290   0.03636   0.00000  Uiso   1.00
C2593  C     0.79124   0.89820   0.05234   0.00000  Uiso   1.00
H2594  H     0.78746   0.88330   0.07950   0.00000  Uiso   1.00
H2595  H     0.80544   0.92336   0.06008   0.00000  Uiso   1.00
C2596  C     0.81356   0.87666   0.02465   0.00000  Uiso   1.00
H2597  H     0.79722   0.85535   0.01126   0.00000  Uiso   1.00
H2598  H     0.82398   0.89437   0.00172   0.00000  Uiso   1.00
C2599  C     0.84386   0.86035   0.04661   0.00000  Uiso   1.00
H2600  H     0.85965   0.88214   0.05965   0.00000  Uiso   1.00
H2601  H     0.86087   0.84507   0.02739   0.00000  Uiso   1.00
H2602  H     0.83361   0.84200   0.06904   0.00000  Uiso   1.00
O2603  O     0.90325   0.74764   0.96176   0.00000  Uiso   1.00
C2604  C     0.89903   0.78044   0.94275   0.00000  Uiso   1.00
H2605  H     0.87660   0.77749   0.92226   0.00000  Uiso   1.00
H2606  H     0.92258   0.78838   0.92554   0.00000  Uiso   1.00
C2607  C     0.89028   0.80968   0.97120   0.00000  Uiso   1.00
H2608  H     0.86477   0.80267   0.98533   0.00000  Uiso   1.00
H2609  H     0.91164   0.81190   0.99309   0.00000  Uiso   1.00
C2610  C     0.88704   0.84509   0.95082   0.00000  Uiso   1.00
H2611  H     0.91052   0.84978   0.93209   0.00000  Uiso   1.00
H2612  H     0.88586   0.86696   0.97203   0.00000  Uiso   1.00
H2613  H     0.86234   0.84505   0.93343   0.00000  Uiso   1.00
O2614  O     0.59729   0.75879   0.03691   0.00000  Uiso   1.00
C2615  C     0.60117   0.79279   0.05287   0.00000  Uiso   1.00
H2616  H     0.61477   0.78935   0.08087   0.00000  Uiso   1.00
H2617  H     0.57564   0.80704   0.05908   0.00000  Uiso   1.00
C2618  C     0.62399   0.81509   0.02630   0.00000  Uiso   1.00
H2619  H     0.64569   0.79872   0.01366   0.00000  Uiso   1.00
H2620  H     0.60725   0.82581   0.00272   0.00000  Uiso   1.00
C2621  C     0.63981   0.84502   0.04930   0.00000  Uiso   1.00
H2622  H     0.61771   0.86015   0.06276   0.00000  Uiso   1.00
H2623  H     0.65489   0.86295   0.03084   0.00000  Uiso   1.00
H2624  H     0.65817   0.83446   0.07158   0.00000  Uiso   1.00
N2625  N     0.62974   0.92149   0.18907   0.00000  Uiso   1.00
H2626  H     0.62380   0.90757   0.16478   0.00000  Uiso   1.00
C2627  C     0.61658   0.95774   0.18844   0.00000  Uiso   1.00
H2628  H     0.59351   0.95988   0.16902   0.00000  Uiso   1.00
H2629  H     0.63773   0.97539   0.17670   0.00000  Uiso   1.00
H2630  H     0.60923   0.96698   0.21763   0.00000  Uiso   1.00
N2631  N     0.87846   0.56663   0.80517   0.00000  Uiso   1.00
H2632  H     0.90332   0.55611   0.81023   0.00000  Uiso   1.00
C2633  C     0.85394   0.56319   0.83750   0.00000  Uiso   1.00
H2634  H     0.86552   0.57478   0.86358   0.00000  Uiso   1.00
H2635  H     0.84889   0.53436   0.84278   0.00000  Uiso   1.00
H2636  H     0.82792   0.57625   0.83180   0.00000  Uiso   1.00
N2637  N     0.57690   0.62807   0.19010   0.00000  Uiso   1.00
H2638  H     0.58995   0.62037   0.16599   0.00000  Uiso   1.00
C2639  C     0.54047   0.61536   0.19098   0.00000  Uiso   1.00
H2640  H     0.53794   0.59093   0.17373   0.00000  Uiso   1.00
H2641  H     0.52288   0.63580   0.17783   0.00000  Uiso   1.00
H2642  H     0.53133   0.61029   0.22090   0.00000  Uiso   1.00
N2643  N     0.93442   0.87997   0.80413   0.00000  Uiso   1.00
H2644  H     0.94338   0.90532   0.80962   0.00000  Uiso   1.00
C2645  C     0.93971   0.85584   0.83651   0.00000  Uiso   1.00
H2646  H     0.93031   0.86800   0.86346   0.00000  Uiso   1.00
H2647  H     0.96882   0.85048   0.83973   0.00000  Uiso   1.00
H2648  H     0.92587   0.83001   0.83251   0.00000  Uiso   1.00
N2649  N     0.86964   0.57892   0.18886   0.00000  Uiso   1.00
H2650  H     0.87519   0.59326   0.16483   0.00000  Uiso   1.00
C2651  C     0.88295   0.54274   0.18738   0.00000  Uiso   1.00
H2652  H     0.90587   0.54104   0.16767   0.00000  Uiso   1.00
H2653  H     0.86178   0.52518   0.17553   0.00000  Uiso   1.00
H2654  H     0.89055   0.53306   0.21633   0.00000  Uiso   1.00
N2655  N     0.62188   0.93300   0.80573   0.00000  Uiso   1.00
H2656  H     0.59710   0.94362   0.81102   0.00000  Uiso   1.00
C2657  C     0.64693   0.93662   0.83758   0.00000  Uiso   1.00
H2658  H     0.63562   0.92565   0.86413   0.00000  Uiso   1.00
H2659  H     0.65237   0.96545   0.84236   0.00000  Uiso   1.00
H2660  H     0.67271   0.92318   0.83168   0.00000  Uiso   1.00
N2661  N     0.92254   0.87125   0.18990   0.00000  Uiso   1.00
H2662  H     0.90887   0.87820   0.16595   0.00000  Uiso   1.00
C2663  C     0.95886   0.88423   0.18979   0.00000  Uiso   1.00
H2664  H     0.96093   0.90822   0.17181   0.00000  Uiso   1.00
H2665  H     0.97641   0.86360   0.17693   0.00000  Uiso   1.00
H2666  H     0.96837   0.89007   0.21941   0.00000  Uiso   1.00
N2667  N     0.56597   0.62058   0.80448   0.00000  Uiso   1.00
H2668  H     0.55678   0.59536   0.81018   0.00000  Uiso   1.00
C2669  C     0.56120   0.64504   0.83675   0.00000  Uiso   1.00
H2670  H     0.57112   0.63321   0.86361   0.00000  Uiso   1.00
H2671  H     0.53215   0.65040   0.84045   0.00000  Uiso   1.00
H2672  H     0.57492   0.67083   0.83217   0.00000  Uiso   1.00
N2673  N     0.61538   0.56705   0.80179   0.00000  Uiso   1.00
H2674  H     0.63577   0.56100   0.81948   0.00000  Uiso   1.00
C2675  C     0.59632   0.53638   0.78737   0.00000  Uiso   1.00
H2676  H     0.58695   0.52063   0.81261   0.00000  Uiso   1.00
H2677  H     0.61403   0.51892   0.76968   0.00000  Uiso   1.00
H2678  H     0.57276   0.54495   0.77011   0.00000  Uiso   1.00
N2679  N     0.87697   0.92935   0.19478   0.00000  Uiso   1.00
H2680  H     0.90226   0.93715   0.18692   0.00000  Uiso   1.00
C2681  C     0.85224   0.92736   0.16270   0.00000  Uiso   1.00
H2682  H     0.84333   0.95472   0.15526   0.00000  Uiso   1.00
H2683  H     0.82839   0.91115   0.16978   0.00000  Uiso   1.00
H2684  H     0.86538   0.91584   0.13713   0.00000  Uiso   1.00
N2685  N     0.56753   0.88330   0.80305   0.00000  Uiso   1.00
H2686  H     0.56035   0.86169   0.81878   0.00000  Uiso   1.00
C2687  C     0.53737   0.90328   0.78927   0.00000  Uiso   1.00
H2688  H     0.52357   0.91540   0.81432   0.00000  Uiso   1.00
H2689  H     0.51809   0.88552   0.77457   0.00000  Uiso   1.00
H2690  H     0.54571   0.92464   0.76946   0.00000  Uiso   1.00
N2691  N     0.92763   0.62475   0.19278   0.00000  Uiso   1.00
H2692  H     0.93528   0.59982   0.18342   0.00000  Uiso   1.00
C2693  C     0.92493   0.65090   0.16217   0.00000  Uiso   1.00
H2694  H     0.95210   0.66013   0.15443   0.00000  Uiso   1.00
H2695  H     0.90892   0.67440   0.17098   0.00000  Uiso   1.00
H2696  H     0.91275   0.63899   0.13623   0.00000  Uiso   1.00
N2697  N     0.88462   0.93323   0.80149   0.00000  Uiso   1.00
H2698  H     0.86483   0.93877   0.82021   0.00000  Uiso   1.00
C2699  C     0.90364   0.96393   0.78724   0.00000  Uiso   1.00
H2700  H     0.91358   0.97916   0.81254   0.00000  Uiso   1.00
H2701  H     0.88590   0.98174   0.77046   0.00000  Uiso   1.00
H2702  H     0.92669   0.95556   0.76954   0.00000  Uiso   1.00
N2703  N     0.62312   0.57048   0.19482   0.00000  Uiso   1.00
H2704  H     0.59786   0.56250   0.18709   0.00000  Uiso   1.00
C2705  C     0.64774   0.57249   0.16266   0.00000  Uiso   1.00
H2706  H     0.65643   0.54512   0.15492   0.00000  Uiso   1.00
H2707  H     0.67173   0.58847   0.16976   0.00000  Uiso   1.00
H2708  H     0.63457   0.58429   0.13724   0.00000  Uiso   1.00
N2709  N     0.93266   0.61649   0.80287   0.00000  Uiso   1.00
H2710  H     0.93993   0.63822   0.81833   0.00000  Uiso   1.00
C2711  C     0.96286   0.59673   0.78881   0.00000  Uiso   1.00
H2712  H     0.97680   0.58444   0.81363   0.00000  Uiso   1.00
H2713  H     0.98199   0.61474   0.77426   0.00000  Uiso   1.00
H2714  H     0.95462   0.57549   0.76873   0.00000  Uiso   1.00
N2715  N     0.57209   0.87524   0.19299   0.00000  Uiso   1.00
H2716  H     0.56410   0.90016   0.18399   0.00000  Uiso   1.00
C2717  C     0.57478   0.84927   0.16217   0.00000  Uiso   1.00
H2718  H     0.54763   0.83989   0.15454   0.00000  Uiso   1.00
H2719  H     0.59096   0.82582   0.17074   0.00000  Uiso   1.00
H2720  H     0.58677   0.86140   0.13628   0.00000  Uiso   1.00
N2721  N     0.88084   0.67038   0.68845   0.00000  Uiso   1.00
H2722  H     0.87554   0.65564   0.66456   0.00000  Uiso   1.00
C2723  C     0.86769   0.70660   0.68612   0.00000  Uiso   1.00
H2724  H     0.84542   0.70822   0.66554   0.00000  Uiso   1.00
H2725  H     0.88927   0.72397   0.67483   0.00000  Uiso   1.00
H2726  H     0.85919   0.71657   0.71469   0.00000  Uiso   1.00
N2727  N     0.62892   0.81628   0.30466   0.00000  Uiso   1.00
H2728  H     0.65382   0.80571   0.30938   0.00000  Uiso   1.00
C2729  C     0.60467   0.81261   0.33720   0.00000  Uiso   1.00
H2730  H     0.61662   0.82368   0.36336   0.00000  Uiso   1.00
H2731  H     0.59941   0.78376   0.34207   0.00000  Uiso   1.00
H2732  H     0.57873   0.82600   0.33199   0.00000  Uiso   1.00
N2733  N     0.82790   0.87898   0.68960   0.00000  Uiso   1.00
H2734  H     0.84180   0.87191   0.66584   0.00000  Uiso   1.00
C2735  C     0.79148   0.86621   0.68893   0.00000  Uiso   1.00
H2736  H     0.78942   0.84246   0.67054   0.00000  Uiso   1.00
H2737  H     0.77418   0.88709   0.67615   0.00000  Uiso   1.00
H2738  H     0.78164   0.86010   0.71835   0.00000  Uiso   1.00
N2739  N     0.68380   0.62936   0.30490   0.00000  Uiso   1.00
H2740  H     0.69269   0.65462   0.31094   0.00000  Uiso   1.00
C2741  C     0.68903   0.60466   0.33679   0.00000  Uiso   1.00
H2742  H     0.67962   0.61630   0.36398   0.00000  Uiso   1.00
H2743  H     0.71813   0.59925   0.33998   0.00000  Uiso   1.00
H2744  H     0.67518   0.57892   0.33224   0.00000  Uiso   1.00
N2745  N     0.62172   0.82677   0.69041   0.00000  Uiso   1.00
H2746  H     0.62838   0.83984   0.66587   0.00000  Uiso   1.00
C2747  C     0.63490   0.79052   0.69146   0.00000  Uiso   1.00
H2748  H     0.65894   0.78800   0.67348   0.00000  Uiso   1.00
H2749  H     0.61434   0.77258   0.67902   0.00000  Uiso   1.00
H2750  H     0.64075   0.78195   0.72130   0.00000  Uiso   1.00
N2751  N     0.87100   0.68401   0.30438   0.00000  Uiso   1.00
H2752  H     0.84615   0.69479   0.30876   0.00000  Uiso   1.00
C2753  C     0.89494   0.68743   0.33716   0.00000  Uiso   1.00
H2754  H     0.88286   0.67583   0.36299   0.00000  Uiso   1.00
H2755  H     0.89992   0.71626   0.34261   0.00000  Uiso   1.00
H2756  H     0.92105   0.67440   0.33199   0.00000  Uiso   1.00
N2757  N     0.67317   0.62182   0.69025   0.00000  Uiso   1.00
H2758  H     0.66007   0.62941   0.66608   0.00000  Uiso   1.00
C2759  C     0.70955   0.63475   0.69113   0.00000  Uiso   1.00
H2760  H     0.71197   0.65919   0.67387   0.00000  Uiso   1.00
H2761  H     0.72723   0.61437   0.67797   0.00000  Uiso   1.00
H2762  H     0.71865   0.63988   0.72111   0.00000  Uiso   1.00
N2763  N     0.81614   0.87054   0.30457   0.00000  Uiso   1.00
H2764  H     0.80712   0.84528   0.31038   0.00000  Uiso   1.00
C2765  C     0.81134   0.89506   0.33678   0.00000  Uiso   1.00
H2766  H     0.82134   0.88329   0.36364   0.00000  Uiso   1.00
H2767  H     0.78228   0.90036   0.34051   0.00000  Uiso   1.00
H2768  H     0.82498   0.92088   0.33213   0.00000  Uiso   1.00
N2769  N     0.86558   0.81670   0.30116   0.00000  Uiso   1.00
H2770  H     0.88395   0.81177   0.32127   0.00000  Uiso   1.00
C2771  C     0.84598   0.78628   0.28708   0.00000  Uiso   1.00
H2772  H     0.83352   0.77301   0.31205   0.00000  Uiso   1.00
H2773  H     0.86397   0.76679   0.27308   0.00000  Uiso   1.00
H2774  H     0.82486   0.79465   0.26678   0.00000  Uiso   1.00
N2775  N     0.62718   0.67962   0.69508   0.00000  Uiso   1.00
H2776  H     0.65251   0.68760   0.68755   0.00000  Uiso   1.00
C2777  C     0.60274   0.67773   0.66273   0.00000  Uiso   1.00
H2778  H     0.59403   0.70512   0.65519   0.00000  Uiso   1.00
H2779  H     0.57874   0.66164   0.66957   0.00000  Uiso   1.00
H2780  H     0.61606   0.66612   0.63731   0.00000  Uiso   1.00
N2781  N     0.81715   0.63377   0.30265   0.00000  Uiso   1.00
H2782  H     0.81007   0.61220   0.31844   0.00000  Uiso   1.00
C2783  C     0.78682   0.65333   0.28861   0.00000  Uiso   1.00
H2784  H     0.77282   0.66548   0.31350   0.00000  Uiso   1.00
H2785  H     0.76777   0.63528   0.27399   0.00000  Uiso   1.00
H2786  H     0.79498   0.67463   0.26863   0.00000  Uiso   1.00
N2787  N     0.67870   0.87382   0.69390   0.00000  Uiso   1.00
H2788  H     0.68691   0.84880   0.68539   0.00000  Uiso   1.00
C2789  C     0.67605   0.89920   0.66255   0.00000  Uiso   1.00
H2790  H     0.70321   0.90854   0.65487   0.00000  Uiso   1.00
H2791  H     0.65971   0.92273   0.67052   0.00000  Uiso   1.00
H2792  H     0.66429   0.88655   0.63679   0.00000  Uiso   1.00
N2793  N     0.63463   0.68314   0.30138   0.00000  Uiso   1.00
H2794  H     0.61424   0.68971   0.31921   0.00000  Uiso   1.00
C2795  C     0.65466   0.71318   0.28715   0.00000  Uiso   1.00
H2796  H     0.66688   0.72667   0.31228   0.00000  Uiso   1.00
H2797  H     0.63708   0.73263   0.27258   0.00000  Uiso   1.00
H2798  H     0.67604   0.70436   0.26749   0.00000  Uiso   1.00
N2799  N     0.87302   0.82059   0.69480   0.00000  Uiso   1.00
H2800  H     0.84769   0.81292   0.68691   0.00000  Uiso   1.00
C2801  C     0.89777   0.82241   0.66272   0.00000  Uiso   1.00
H2802  H     0.90663   0.79501   0.65534   0.00000  Uiso   1.00
H2803  H     0.92164   0.83864   0.66972   0.00000  Uiso   1.00
H2804  H     0.88463   0.83383   0.63706   0.00000  Uiso   1.00
N2805  N     0.68281   0.86651   0.30270   0.00000  Uiso   1.00
H2806  H     0.68983   0.88823   0.31836   0.00000  Uiso   1.00
C2807  C     0.71319   0.84700   0.28869   0.00000  Uiso   1.00
H2808  H     0.72747   0.83521   0.31356   0.00000  Uiso   1.00
H2809  H     0.73197   0.86506   0.27370   0.00000  Uiso   1.00
H2810  H     0.70510   0.82539   0.26901   0.00000  Uiso   1.00
N2811  N     0.82238   0.62512   0.69273   0.00000  Uiso   1.00
H2812  H     0.81472   0.65004   0.68340   0.00000  Uiso   1.00
C2813  C     0.82500   0.59885   0.66220   0.00000  Uiso   1.00
H2814  H     0.79785   0.58920   0.65494   0.00000  Uiso   1.00
H2815  H     0.84144   0.57561   0.67087   0.00000  Uiso   1.00
H2816  H     0.83663   0.61081   0.63603   0.00000  Uiso   1.00
O2817  O     0.97815   0.81011   0.39792   0.00000  Uiso   1.00
C2818  C     0.94530   0.82311   0.41223   0.00000  Uiso   1.00
H2819  H     0.94842   0.85181   0.41893   0.00000  Uiso   1.00
H2820  H     0.93503   0.80917   0.43815   0.00000  Uiso   1.00
C2821  C     0.91740   0.82034   0.38152   0.00000  Uiso   1.00
H2822  H     0.92861   0.83182   0.35470   0.00000  Uiso   1.00
H2823  H     0.91107   0.79182   0.37691   0.00000  Uiso   1.00
C2824  C     0.88355   0.84026   0.39289   0.00000  Uiso   1.00
H2825  H     0.87921   0.83867   0.42426   0.00000  Uiso   1.00
H2826  H     0.85990   0.82823   0.37901   0.00000  Uiso   1.00
H2827  H     0.88550   0.86852   0.38377   0.00000  Uiso   1.00
O2828  O     0.99331   0.68728   0.60319   0.00000  Uiso   1.00
C2829  C     0.96236   0.66830   0.59230   0.00000  Uiso   1.00
H2830  H     0.96783   0.63934   0.59569   0.00000  Uiso   1.00
H2831  H     0.95429   0.67291   0.56220   0.00000  Uiso   1.00
C2832  C     0.93050   0.67797   0.61640   0.00000  Uiso   1.00
H2833  H     0.93531   0.66875   0.64615   0.00000  Uiso   1.00
H2834  H     0.92662   0.70719   0.61640   0.00000  Uiso   1.00
C2835  C     0.89753   0.66041   0.59904   0.00000  Uiso   1.00
H2836  H     0.89824   0.66093   0.56738   0.00000  Uiso   1.00
H2837  H     0.87312   0.67510   0.60706   0.00000  Uiso   1.00
H2838  H     0.89606   0.63235   0.60914   0.00000  Uiso   1.00
O2839  O     0.68867   0.98150   0.39731   0.00000  Uiso   1.00
C2840  C     0.67390   0.94893   0.41009   0.00000  Uiso   1.00
H2841  H     0.64505   0.95308   0.41555   0.00000  Uiso   1.00
H2842  H     0.68624   0.93778   0.43659   0.00000  Uiso   1.00
C2843  C     0.67706   0.92137   0.37896   0.00000  Uiso   1.00
H2844  H     0.66777   0.93331   0.35160   0.00000  Uiso   1.00
H2845  H     0.70542   0.91344   0.37639   0.00000  Uiso   1.00
C2846  C     0.65464   0.88877   0.38852   0.00000  Uiso   1.00
H2847  H     0.65696   0.88231   0.41940   0.00000  Uiso   1.00
H2848  H     0.66418   0.86521   0.37266   0.00000  Uiso   1.00
H2849  H     0.62643   0.89374   0.38064   0.00000  Uiso   1.00
O2850  O     0.81302   0.99512   0.60358   0.00000  Uiso   1.00
C2851  C     0.83210   0.96374   0.59442   0.00000  Uiso   1.00
H2852  H     0.86109   0.96906   0.59872   0.00000  Uiso   1.00
H2853  H     0.82832   0.95512   0.56433   0.00000  Uiso   1.00
C2854  C     0.82145   0.93233   0.61907   0.00000  Uiso   1.00
H2855  H     0.83087   0.93699   0.64895   0.00000  Uiso   1.00
H2856  H     0.79202   0.92937   0.61903   0.00000  Uiso   1.00
C2857  C     0.83818   0.89873   0.60213   0.00000  Uiso   1.00
H2858  H     0.83876   0.89911   0.57040   0.00000  Uiso   1.00
H2859  H     0.82210   0.87495   0.60936   0.00000  Uiso   1.00
H2860  H     0.86591   0.89618   0.61304   0.00000  Uiso   1.00
O2861  O     0.52351   0.69119   0.39777   0.00000  Uiso   1.00
C2862  C     0.55643   0.67841   0.41217   0.00000  Uiso   1.00
H2863  H     0.55331   0.64994   0.41983   0.00000  Uiso   1.00
H2864  H     0.56705   0.69316   0.43746   0.00000  Uiso   1.00
C2865  C     0.58393   0.67999   0.38098   0.00000  Uiso   1.00
H2866  H     0.57208   0.66818   0.35462   0.00000  Uiso   1.00
H2867  H     0.59075   0.70830   0.37578   0.00000  Uiso   1.00
C2868  C     0.61757   0.65957   0.39199   0.00000  Uiso   1.00
H2869  H     0.62279   0.66197   0.42317   0.00000  Uiso   1.00
H2870  H     0.64103   0.67060   0.37683   0.00000  Uiso   1.00
H2871  H     0.61471   0.63110   0.38392   0.00000  Uiso   1.00
O2872  O     0.50715   0.81321   0.60370   0.00000  Uiso   1.00
C2873  C     0.53917   0.83131   0.59473   0.00000  Uiso   1.00
H2874  H     0.53536   0.86005   0.60139   0.00000  Uiso   1.00
H2875  H     0.54667   0.82937   0.56417   0.00000  Uiso   1.00
C2876  C     0.57071   0.81742   0.61720   0.00000  Uiso   1.00
H2877  H     0.56720   0.82476   0.64779   0.00000  Uiso   1.00
H2878  H     0.57236   0.78809   0.61468   0.00000  Uiso   1.00
C2879  C     0.60472   0.83345   0.60062   0.00000  Uiso   1.00
H2880  H     0.60470   0.83289   0.56888   0.00000  Uiso   1.00
H2881  H     0.62829   0.81767   0.60940   0.00000  Uiso   1.00
H2882  H     0.60712   0.86141   0.61075   0.00000  Uiso   1.00
O2883  O     0.81024   0.51914   0.39765   0.00000  Uiso   1.00
C2884  C     0.82449   0.55189   0.41072   0.00000  Uiso   1.00
H2885  H     0.85332   0.54809   0.41655   0.00000  Uiso   1.00
H2886  H     0.81173   0.56289   0.43707   0.00000  Uiso   1.00
C2887  C     0.82131   0.57937   0.37958   0.00000  Uiso   1.00
H2888  H     0.83096   0.56738   0.35235   0.00000  Uiso   1.00
H2889  H     0.79288   0.58694   0.37665   0.00000  Uiso   1.00
C2890  C     0.84334   0.61227   0.38921   0.00000  Uiso   1.00
H2891  H     0.84249   0.61782   0.42041   0.00000  Uiso   1.00
H2892  H     0.83250   0.63604   0.37466   0.00000  Uiso   1.00
H2893  H     0.87124   0.60821   0.37962   0.00000  Uiso   1.00
O2894  O     0.68664   0.50312   0.60417   0.00000  Uiso   1.00
C2895  C     0.66688   0.53430   0.59611   0.00000  Uiso   1.00
H2896  H     0.63831   0.52872   0.60198   0.00000  Uiso   1.00
H2897  H     0.66893   0.54271   0.56590   0.00000  Uiso   1.00
C2898  C     0.67838   0.56580   0.62017   0.00000  Uiso   1.00
H2899  H     0.66946   0.56173   0.65025   0.00000  Uiso   1.00
H2900  H     0.70774   0.56837   0.61962   0.00000  Uiso   1.00
C2901  C     0.66210   0.59953   0.60325   0.00000  Uiso   1.00
H2902  H     0.66121   0.59878   0.57157   0.00000  Uiso   1.00
H2903  H     0.67891   0.62298   0.60983   0.00000  Uiso   1.00
H2904  H     0.63461   0.60285   0.61463   0.00000  Uiso   1.00
O2905  O     0.72788   0.55969   0.89772   0.00000  Uiso   1.00
C2906  C     0.69508   0.57299   0.91191   0.00000  Uiso   1.00
H2907  H     0.69850   0.60157   0.91896   0.00000  Uiso   1.00
H2908  H     0.68445   0.55888   0.93756   0.00000  Uiso   1.00
C2909  C     0.66735   0.57098   0.88093   0.00000  Uiso   1.00
H2910  H     0.67894   0.58241   0.85428   0.00000  Uiso   1.00
H2911  H     0.66048   0.54261   0.87616   0.00000  Uiso   1.00
C2912  C     0.63384   0.59151   0.89212   0.00000  Uiso   1.00
H2913  H     0.62866   0.58895   0.92328   0.00000  Uiso   1.00
H2914  H     0.61029   0.58064   0.87701   0.00000  Uiso   1.00
H2915  H     0.63681   0.62002   0.88431   0.00000  Uiso   1.00
O2916  O     0.74504   0.93684   0.10336   0.00000  Uiso   1.00
C2917  C     0.71312   0.91833   0.09510   0.00000  Uiso   1.00
H2918  H     0.71693   0.88988   0.10319   0.00000  Uiso   1.00
H2919  H     0.70592   0.91886   0.06443   0.00000  Uiso   1.00
C2920  C     0.68131   0.93328   0.11639   0.00000  Uiso   1.00
H2921  H     0.68437   0.92731   0.14736   0.00000  Uiso   1.00
H2922  H     0.67961   0.96250   0.11238   0.00000  Uiso   1.00
C2923  C     0.64756   0.91667   0.09997   0.00000  Uiso   1.00
H2924  H     0.64777   0.91685   0.06826   0.00000  Uiso   1.00
H2925  H     0.62385   0.93212   0.10869   0.00000  Uiso   1.00
H2926  H     0.64571   0.88874   0.11027   0.00000  Uiso   1.00
O2927  O     0.93995   0.72980   0.89768   0.00000  Uiso   1.00
C2928  C     0.92598   0.69709   0.91114   0.00000  Uiso   1.00
H2929  H     0.89722   0.70078   0.91743   0.00000  Uiso   1.00
H2930  H     0.93922   0.68621   0.93727   0.00000  Uiso   1.00
C2931  C     0.92863   0.66958   0.87997   0.00000  Uiso   1.00
H2932  H     0.91878   0.68170   0.85293   0.00000  Uiso   1.00
H2933  H     0.95695   0.66173   0.87675   0.00000  Uiso   1.00
C2934  C     0.90640   0.63689   0.88972   0.00000  Uiso   1.00
H2935  H     0.90840   0.63069   0.92070   0.00000  Uiso   1.00
H2936  H     0.91627   0.61332   0.87406   0.00000  Uiso   1.00
H2937  H     0.87824   0.64160   0.88149   0.00000  Uiso   1.00
O2938  O     0.56324   0.74663   0.10409   0.00000  Uiso   1.00
C2939  C     0.58260   0.71518   0.09619   0.00000  Uiso   1.00
H2940  H     0.61113   0.72024   0.10274   0.00000  Uiso   1.00
H2941  H     0.58100   0.70697   0.06588   0.00000  Uiso   1.00
C2942  C     0.57008   0.68375   0.11969   0.00000  Uiso   1.00
H2943  H     0.57815   0.68771   0.15006   0.00000  Uiso   1.00
H2944  H     0.54074   0.68144   0.11811   0.00000  Uiso   1.00
C2945  C     0.58650   0.64994   0.10315   0.00000  Uiso   1.00
H2946  H     0.58754   0.65048   0.07147   0.00000  Uiso   1.00
H2947  H     0.56982   0.62650   0.10998   0.00000  Uiso   1.00
H2948  H     0.61396   0.64686   0.11461   0.00000  Uiso   1.00
O2949  O     0.77086   0.93993   0.89757   0.00000  Uiso   1.00
C2950  C     0.80377   0.92650   0.91127   0.00000  Uiso   1.00
H2951  H     0.80050   0.89770   0.91734   0.00000  Uiso   1.00
H2952  H     0.81426   0.93985   0.93748   0.00000  Uiso   1.00
C2953  C     0.83154   0.92980   0.88049   0.00000  Uiso   1.00
H2954  H     0.82036   0.91846   0.85358   0.00000  Uiso   1.00
H2955  H     0.83759   0.95842   0.87617   0.00000  Uiso   1.00
C2956  C     0.86567   0.91016   0.89151   0.00000  Uiso   1.00
H2957  H     0.86962   0.91063   0.92298   0.00000  Uiso   1.00
H2958  H     0.88922   0.92320   0.87857   0.00000  Uiso   1.00
H2959  H     0.86448   0.88224   0.88110   0.00000  Uiso   1.00
O2960  O     0.75597   0.56299   0.10342   0.00000  Uiso   1.00
C2961  C     0.78735   0.58179   0.09373   0.00000  Uiso   1.00
H2962  H     0.78269   0.61054   0.09948   0.00000  Uiso   1.00
H2963  H     0.79495   0.57918   0.06327   0.00000  Uiso   1.00
C2964  C     0.81924   0.56953   0.11647   0.00000  Uiso   1.00
H2965  H     0.81521   0.57722   0.14687   0.00000  Uiso   1.00
H2966  H     0.82202   0.54027   0.11449   0.00000  Uiso   1.00
C2967  C     0.85260   0.58672   0.09965   0.00000  Uiso   1.00
H2968  H     0.85242   0.58612   0.06795   0.00000  Uiso   1.00
H2969  H     0.87677   0.57186   0.10820   0.00000  Uiso   1.00
H2970  H     0.85413   0.61474   0.10973   0.00000  Uiso   1.00
O2971  O     0.56119   0.76854   0.89741   0.00000  Uiso   1.00
C2972  C     0.57630   0.80091   0.91043   0.00000  Uiso   1.00
H2973  H     0.60498   0.79633   0.91644   0.00000  Uiso   1.00
H2974  H     0.56364   0.81237   0.93660   0.00000  Uiso   1.00
C2975  C     0.57424   0.82842   0.87919   0.00000  Uiso   1.00
H2976  H     0.58369   0.81630   0.85195   0.00000  Uiso   1.00
H2977  H     0.54608   0.83692   0.87621   0.00000  Uiso   1.00
C2978  C     0.59725   0.86052   0.88915   0.00000  Uiso   1.00
H2979  H     0.59366   0.86776   0.91973   0.00000  Uiso   1.00
H2980  H     0.58927   0.88396   0.87213   0.00000  Uiso   1.00
H2981  H     0.62568   0.85448   0.88307   0.00000  Uiso   1.00
O2982  O     0.93691   0.75479   0.10376   0.00000  Uiso   1.00
C2983  C     0.91761   0.78601   0.09460   0.00000  Uiso   1.00
H2984  H     0.88875   0.78042   0.09870   0.00000  Uiso   1.00
H2985  H     0.92137   0.79466   0.06462   0.00000  Uiso   1.00
C2986  C     0.92776   0.81735   0.11952   0.00000  Uiso   1.00
H2987  H     0.91768   0.81274   0.14911   0.00000  Uiso   1.00
H2988  H     0.95713   0.82023   0.12033   0.00000  Uiso   1.00
C2989  C     0.91160   0.85104   0.10223   0.00000  Uiso   1.00
H2990  H     0.91148   0.85044   0.07054   0.00000  Uiso   1.00
H2991  H     0.92791   0.87466   0.10944   0.00000  Uiso   1.00
H2992  H     0.88383   0.85411   0.11282   0.00000  Uiso   1.00
loop_
_geom_bond_atom_site_label_1
_geom_bond_atom_site_label_2
_geom_bond_distance
_geom_bond_site_symmetry_2
_ccdc_geom_bond_type
C1     C101    1.428   .     A
C1     O573    1.388   .     S
C1     C765    1.406   .     S
C2     O584    1.390   .     S
C2     C766    1.404   .     S
C2     C850    1.436   .     S
C3     C103    1.424   .     A
C3     O595    1.391   .     S
C3     C1515   1.408   .     S
C4     O606    1.392   .     S
C4     C20     1.405   .     A
C4     C1600   1.431   .     S
C5     C97     1.424   .     A
C5     O617    1.389   .     S
C5     C17     1.404   .     A
C6     O628    1.390   .     S
C6     C18     1.405   .     A
C6     C846    1.435   1_455 S
C7     C99     1.421   .     A
C7     C19     1.405   .     A
C7     O639    1.390   .     S
C8     O650    1.393   .     S
C8     C1516   1.405   1_545 S
C8     C1596   1.431   1_545 S
C9     C109    1.426   .     A
C9     O661    1.389   .     S
C9     C1517   1.405   1_545 S
C10    O672    1.389   .     S
C10    C22     1.404   .     A
C10    C110    1.434   .     A
C11    C111    1.422   .     A
C11    O683    1.391   .     S
C11    C771    1.406   .     S
C12    O694    1.392   .     S
C12    C112    1.431   .     A
C12    C24     1.405   .     A
C13    C21     1.405   .     A
C13    C105    1.425   .     A
C13    O705    1.389   .     S
C14    O716    1.389   .     S
C14    C106    1.436   .     A
C14    C1518   1.404   1_545 S
C15    O727    1.391   .     S
C15    C107    1.425   .     A
C15    C23     1.408   .     A
C16    O738    1.393   .     S
C16    C108    1.430   .     A
C16    C772    1.404   .     S
C17    C43     1.489   .     S
C17    C749    1.406   1_455 S
C18    C44     1.489   .     S
C18    C750    1.404   1_455 S
C19    C41     1.487   .     S
C19    C1499   1.408   1_545 S
C20    C42     1.484   .     S
C20    C1504   1.405   .     S
C21    C1505   1.405   .     S
C21    C1543   1.487   .     S
C22    C48     1.490   .     S
C22    C1510   1.404   .     S
C23    C45     1.488   .     S
C23    C759    1.406   1_455 S
C24    C764    1.404   1_455 S
C24    C794    1.483   1_455 S
C25    C97     1.408   .     A
C25    O205    1.385   .     S
C25    C30     1.389   .     A
C26    O216    1.376   .     S
C26    C98     1.417   .     A
C26    C29     1.393   .     A
C27    C99     1.409   .     A
C27    O227    1.385   .     S
C27    C32     1.385   .     A
C28    O238    1.377   .     S
C28    C31     1.386   .     A
C28    C100    1.421   .     A
C29    O249    1.384   .     S
C29    C101    1.410   .     A
C30    C102    1.419   .     A
C30    O260    1.374   .     S
C31    O271    1.385   .     S
C31    C103    1.412   .     A
C32    C104    1.420   .     A
C32    O282    1.375   .     S
C33    C105    1.408   .     A
C33    O293    1.384   .     S
C33    C38     1.391   1_556 S
C34    C106    1.418   .     A
C34    O304    1.374   .     S
C34    C37     1.390   1_554 S
C35    C107    1.412   .     A
C35    O315    1.384   .     S
C35    C40     1.387   1_556 S
C36    C108    1.421   .     A
C36    O326    1.376   .     S
C36    C39     1.385   1_554 S
C37    C109    1.409   .     A
C37    O337    1.384   .     S
C37    C34     1.390   1_556 S
C38    C110    1.417   .     A
C38    O348    1.374   .     S
C38    C33     1.391   1_554 S
C39    O359    1.385   .     S
C39    C111    1.412   .     A
C39    C36     1.385   1_556 S
C40    C112    1.420   .     A
C40    O370    1.376   .     S
C40    C35     1.387   1_554 S
C41    O145    1.307   .     A
C41    O1637   1.307   1_545 S
C42    O146    1.305   .     A
C42    O1638   1.306   .     S
C43    O143    1.305   .     A
C43    O895    1.308   1_455 S
C44    O148    1.305   .     A
C44    O892    1.306   1_455 S
C45    O149    1.307   .     A
C45    O153    1.308   .     A
C46    C772    1.483   .     S
C46    O898    1.304   .     S
C46    O902    1.306   .     S
C47    C1517   1.487   1_545 S
C47    O151    1.307   .     S
C47    O155    1.305   .     S
C48    O1648   1.306   .     A
C48    O1652   1.305   .     A
C49    C115    1.484   .     S
C49    O157    1.297   .     A
C49    O183    1.309   .     A
C50    O184    1.298   .     A
C50    O158    1.321   .     A
C50    C116    1.512   .     S
C51    O181    1.308   .     A
C51    O159    1.299   .     A
C51    C117    1.487   .     S
C52    O182    1.298   .     A
C52    O160    1.321   .     A
C52    C118    1.512   .     S
C53    C119    1.485   .     S
C53    O187    1.311   .     A
C53    O161    1.297   .     A
C54    O162    1.321   .     A
C54    O188    1.300   .     A
C54    C120    1.511   .     S
C55    O163    1.299   .     A
C55    O185    1.309   .     A
C55    C113    1.487   .     S
C56    O164    1.322   .     A
C56    O186    1.298   .     A
C56    C114    1.513   .     S
C57    C123    1.487   .     S
C57    O165    1.308   .     A
C57    O175    1.299   .     A
C58    O166    1.298   .     A
C58    C124    1.512   .     S
C58    O176    1.322   .     A
C59    O167    1.310   .     A
C59    C125    1.485   .     S
C59    O173    1.297   .     A
C60    O174    1.321   .     A
C60    O168    1.299   .     A
C60    C126    1.512   .     S
C61    C127    1.487   .     S
C61    O179    1.299   .     A
C61    O169    1.308   .     A
C62    O170    1.299   .     A
C62    O180    1.322   .     A
C62    C128    1.513   .     S
C63    O171    1.311   .     A
C63    C121    1.485   .     S
C63    O177    1.297   .     A
C64    O172    1.300   .     A
C64    O178    1.320   .     A
C64    C122    1.511   .     S
C65    C128    1.417   .     A
C65    C80     1.412   .     A
C65    N381    1.417   .     S
C66    C79     1.417   .     A
C66    N387    1.444   .     S
C66    C127    1.427   .     A
C67    N393    1.417   .     S
C67    C126    1.419   .     A
C67    C78     1.413   .     A
C68    C77     1.417   .     A
C68    N399    1.450   .     S
C68    C125    1.424   .     A
C69    N405    1.414   .     S
C69    C76     1.412   .     A
C69    C124    1.418   .     A
C70    N411    1.444   .     S
C70    C123    1.427   .     A
C70    C75     1.417   .     A
C71    C122    1.415   .     A
C71    N417    1.412   .     S
C71    C74     1.413   .     A
C72    C73     1.416   .     A
C72    N423    1.450   .     S
C72    C121    1.421   .     A
C73    C120    1.443   .     A
C73    N429    1.417   .     S
C74    N435    1.435   .     S
C74    C119    1.417   .     A
C75    N441    1.425   .     S
C75    C118    1.430   .     A
C76    N447    1.435   .     S
C76    C117    1.414   .     A
C77    N453    1.417   .     S
C77    C116    1.436   .     A
C78    C115    1.418   .     A
C78    N459    1.434   .     S
C79    N465    1.427   .     S
C79    C114    1.430   .     A
C80    N471    1.437   .     S
C80    C113    1.412   .     A
C81    C114    1.415   .     A
C81    N477    1.416   .     S
C81    C96     1.412   .     A
C82    N483    1.445   .     S
C82    C95     1.417   .     A
C82    C113    1.427   .     A
C83    C94     1.413   .     A
C83    C116    1.418   .     A
C83    N489    1.415   .     S
C84    C93     1.416   .     A
C84    N495    1.450   .     S
C84    C115    1.423   .     A
C85    C92     1.412   .     A
C85    N501    1.416   .     S
C85    C118    1.419   .     A
C86    C91     1.417   .     A
C86    N507    1.443   .     S
C86    C117    1.427   .     A
C87    C90     1.413   .     A
C87    N513    1.415   .     S
C87    C120    1.417   .     A
C88    C119    1.421   .     A
C88    C89     1.416   .     A
C88    N519    1.450   .     S
C89    N525    1.415   .     S
C89    C122    1.439   .     A
C90    C121    1.417   .     A
C90    N531    1.436   .     S
C91    N537    1.425   .     S
C91    C124    1.430   .     A
C92    C123    1.415   .     A
C92    N543    1.435   .     S
C93    N549    1.417   .     S
C93    C126    1.437   .     A
C94    C125    1.418   .     A
C94    N555    1.435   .     S
C95    C128    1.430   .     A
C95    N561    1.427   .     S
C96    C127    1.413   .     A
C96    N567    1.437   .     S
C97    C129    1.409   .     A
C98    C754    1.435   .     S
C98    C878    1.415   .     S
C99    C1627   1.413   1_545 S
C100   C132    1.419   .     A
C100   C1504   1.431   .     S
C101   C877    1.409   .     S
C102   C130    1.414   .     A
C102   C750    1.436   1_455 S
C103   C131    1.414   .     A
C104   C1500   1.431   1_545 S
C104   C1628   1.419   1_545 S
C105   C133    1.409   .     A
C106   C1630   1.414   1_545 S
C107   C135    1.414   .     A
C108   C884    1.419   .     S
C109   C1629   1.409   1_545 S
C110   C134    1.415   .     A
C111   C883    1.414   .     S
C112   C136    1.419   .     A
C129   C130    1.429   .     A
C129   C849    1.409   1_455 S
C130   C846    1.415   1_455 S
C131   C132    1.424   .     A
C131   C1595   1.413   .     S
C132   C1600   1.419   .     S
C133   C1605   1.409   .     S
C133   C134    1.429   1_556 S
C134   C1602   1.414   .     S
C134   C133    1.429   1_554 S
C135   C859    1.414   1_455 S
C135   C136    1.424   1_556 S
C136   C856    1.419   1_455 S
C136   C135    1.424   1_554 S
O137   Zn193   1.991   .     S
O137   Zn200   1.991   .     S
O137   Zn189   1.990   .     S
O137   Zn1700  1.993   1_545 S
O138   Zn1695  1.991   1_545 S
O138   Zn190   1.990   .     S
O138   Zn194   1.991   .     S
O138   Zn203   1.993   .     S
O139   Zn195   1.993   .     S
O139   Zn198   1.990   .     S
O139   Zn191   1.991   .     S
O139   Zn950   1.991   1_455 S
O140   Zn945   1.990   1_455 S
O140   Zn192   1.991   .     S
O140   Zn196   1.993   .     S
O140   Zn201   1.991   .     S
O141   Zn204   1.978   .     S
O141   C1537   1.307   .     S
O142   Zn203   1.978   .     S
O142   C1538   1.306   1_545 S
O143   Zn198   1.979   .     S
O144   Zn197   1.979   .     S
O144   C792    1.306   .     S
O145   Zn200   1.979   .     S
O146   Zn199   1.979   .     S
O147   Zn202   1.979   .     S
O147   C791    1.308   .     S
O148   Zn201   1.979   .     S
O149   Zn196   1.978   .     S
O150   Zn195   1.978   .     S
O150   C794    1.304   1_455 S
O151   Zn190   1.979   .     S
O152   C1544   1.306   1_545 A
O152   Zn189   1.979   .     S
O153   Zn192   1.979   .     S
O154   Zn191   1.979   .     S
O154   C794    1.306   1_455 S
O155   Zn194   1.979   .     S
O156   C1544   1.305   1_545 A
O156   Zn193   1.979   .     S
O157   Zn200   1.986   .     S
O158   Zn199   1.986   .     S
O159   Zn202   1.986   .     S
O160   Zn201   1.986   .     S
O161   Zn204   1.986   .     S
O162   Zn203   1.986   .     S
O163   Zn198   1.986   .     S
O164   Zn197   1.986   .     S
O165   Zn199   1.986   .     S
O166   Zn200   1.986   .     S
O167   Zn197   1.986   .     S
O168   Zn198   1.986   .     S
O169   Zn203   1.985   .     S
O170   Zn204   1.985   .     S
O171   Zn201   1.987   .     S
O172   Zn202   1.987   .     S
O173   Zn940   1.986   .     S
O174   Zn191   1.986   .     S
O175   Zn1690  1.986   .     S
O176   Zn193   1.986   .     S
O177   Zn196   1.986   .     S
O178   Zn943   1.986   .     S
O179   Zn190   1.986   .     S
O180   Zn1685  1.986   .     S
O181   Zn939   1.986   .     S
O182   Zn192   1.986   .     S
O183   Zn189   1.986   .     S
O184   Zn1686  1.986   .     S
O185   Zn195   1.985   .     S
O186   Zn944   1.985   .     S
O187   Zn1689  1.987   .     S
O188   Zn194   1.987   .     S
Zn189  O1676   1.986   1_545 S
Zn190  O1680   1.986   1_545 S
Zn191  O929    1.986   1_455 S
Zn192  O921    1.986   1_455 S
Zn193  O1683   1.987   1_545 S
Zn194  O1671   1.986   1_545 S
Zn195  O926    1.986   1_455 S
Zn196  O934    1.985   1_455 S
Zn197  O888    1.990   .     S
Zn199  O1634   1.991   .     S
Zn202  O887    1.991   .     S
Zn204  O1633   1.993   .     S
O205   C954    1.411   1_455 S
C206   H207    1.111   .     S
C206   H208    1.110   .     S
C206   C209    1.519   .     S
C206   O953    1.411   .     S
C209   H210    1.111   .     S
C209   C212    1.516   .     S
C209   H211    1.112   .     S
C212   H215    1.110   .     S
C212   H213    1.114   .     S
C212   H214    1.107   .     S
O216   C217    1.402   .     S
C217   H218    1.113   .     S
C217   C220    1.515   .     S
C217   H219    1.121   .     S
C220   H221    1.113   .     S
C220   H222    1.114   .     S
C220   C223    1.505   .     S
C223   H224    1.111   .     S
C223   H226    1.113   .     S
C223   H225    1.092   .     S
O227   C1724   1.412   1_545 S
C228   H229    1.111   .     S
C228   C231    1.521   .     S
C228   H230    1.111   .     S
C228   O1723   1.412   .     S
C231   C234    1.516   .     S
C231   H233    1.112   .     S
C231   H232    1.110   .     S
C234   H236    1.109   .     S
C234   H237    1.111   .     S
C234   H235    1.114   .     S
O238   C239    1.403   .     S
C239   H241    1.120   .     S
C239   H240    1.111   .     S
C239   C242    1.518   .     S
C242   H244    1.114   .     S
C242   C245    1.507   .     S
C242   H243    1.113   .     S
C245   H246    1.112   .     S
C245   H247    1.094   .     S
C245   H248    1.115   .     S
O249   C998    1.411   .     S
C250   H252    1.110   .     S
C250   C253    1.522   .     S
C250   H251    1.110   .     S
C250   O997    1.411   1_455 S
C253   H254    1.111   .     S
C253   C256    1.514   .     S
C253   H255    1.111   .     S
C256   H259    1.109   .     S
C256   H258    1.107   .     S
C256   H257    1.113   .     S
O260   C261    1.401   .     S
C261   H263    1.120   .     S
C261   C264    1.514   .     S
C261   H262    1.111   .     S
C264   H265    1.113   .     S
C264   C267    1.505   .     S
C264   H266    1.114   .     S
C267   H270    1.114   .     S
C267   H268    1.111   .     S
C267   H269    1.092   .     S
O271   C1768   1.412   .     S
C272   H274    1.111   .     S
C272   H273    1.111   .     S
C272   C275    1.521   .     S
C272   O1767   1.412   1_545 S
C275   C278    1.517   .     S
C275   H277    1.112   .     S
C275   H276    1.110   .     S
C278   H281    1.110   .     S
C278   H279    1.113   .     S
C278   H280    1.109   .     S
O282   C283    1.400   .     S
C283   H284    1.110   .     S
C283   H285    1.120   .     S
C283   C286    1.518   .     S
C286   C289    1.502   .     S
C286   H288    1.112   .     S
C286   H287    1.113   .     S
C289   H292    1.113   .     S
C289   H290    1.111   .     S
C289   H291    1.091   .     S
O293   C294    1.412   .     S
C294   H295    1.110   .     S
C294   C297    1.523   .     S
C294   H296    1.111   .     S
C297   H299    1.112   .     S
C297   H298    1.110   .     S
C297   C300    1.515   .     S
C300   H301    1.114   .     S
C300   H303    1.110   .     S
C300   H302    1.108   .     S
O304   C305    1.401   .     S
C305   H307    1.120   .     S
C305   H306    1.112   .     S
C305   C308    1.514   .     S
C308   H310    1.114   .     S
C308   H309    1.112   .     S
C308   C311    1.506   .     S
C311   H313    1.091   .     S
C311   H312    1.110   .     S
C311   H314    1.112   .     S
O315   C316    1.412   .     S
C316   H317    1.111   .     S
C316   C319    1.521   .     S
C316   H318    1.111   .     S
C319   H321    1.112   .     S
C319   H320    1.109   .     S
C319   C322    1.516   .     S
C322   H324    1.108   .     S
C322   H325    1.109   .     S
C322   H323    1.113   .     S
O326   C327    1.401   .     S
C327   H329    1.120   .     S
C327   H328    1.111   .     S
C327   C330    1.517   .     S
C330   H331    1.112   .     S
C330   H332    1.113   .     S
C330   C333    1.504   .     S
C333   H334    1.110   .     S
C333   H336    1.113   .     S
C333   H335    1.092   .     S
O337   C338    1.411   .     S
C338   H340    1.110   .     S
C338   C341    1.520   .     S
C338   H339    1.110   .     S
C341   H343    1.111   .     S
C341   C344    1.515   .     S
C341   H342    1.110   .     S
C344   H346    1.107   .     S
C344   H347    1.109   .     S
C344   H345    1.113   .     S
O348   C349    1.400   .     S
C349   H350    1.111   .     S
C349   C352    1.515   .     S
C349   H351    1.120   .     S
C352   H353    1.113   .     S
C352   C355    1.504   .     S
C352   H354    1.114   .     S
C355   H357    1.091   .     S
C355   H356    1.110   .     S
C355   H358    1.113   .     S
O359   C360    1.411   .     S
C360   H361    1.111   .     S
C360   H362    1.111   .     S
C360   C363    1.518   .     S
C363   C366    1.516   .     S
C363   H364    1.110   .     S
C363   H365    1.112   .     S
C366   H369    1.109   .     S
C366   H367    1.113   .     S
C366   H368    1.108   .     S
O370   C371    1.403   .     S
C371   C374    1.517   .     S
C371   H372    1.111   .     S
C371   H373    1.120   .     S
C374   H375    1.113   .     S
C374   C377    1.505   .     S
C374   H376    1.112   .     S
C377   H380    1.114   .     S
C377   H379    1.092   .     S
C377   H378    1.111   .     S
N381   H382    1.021   .     S
N381   C383    1.451   .     S
C383   H384    1.104   .     S
C383   H386    1.112   .     S
C383   H385    1.115   .     S
N387   C389    1.463   .     S
N387   H388    1.030   .     S
C389   H392    1.113   .     S
C389   H391    1.116   .     S
C389   H390    1.099   .     S
N393   H394    1.016   .     S
N393   C395    1.451   .     S
C395   H398    1.116   .     S
C395   H396    1.103   .     S
C395   H397    1.114   .     S
N399   C401    1.464   .     S
N399   H400    1.029   .     S
C401   H403    1.118   .     S
C401   H402    1.104   .     S
C401   H404    1.111   .     S
N405   H406    1.020   .     S
N405   C407    1.452   .     S
C407   H410    1.112   .     S
C407   H409    1.114   .     S
C407   H408    1.105   .     S
N411   C413    1.463   .     S
N411   H412    1.030   .     S
C413   H415    1.117   .     S
C413   H414    1.101   .     S
C413   H416    1.113   .     S
N417   C419    1.450   .     S
N417   H418    1.016   .     S
C419   H422    1.116   .     S
C419   H421    1.113   .     S
C419   H420    1.103   .     S
N423   H424    1.030   .     S
N423   C425    1.465   .     S
C425   H426    1.103   .     S
C425   H428    1.111   .     S
C425   H427    1.118   .     S
N429   H430    1.010   .     S
N429   C431    1.448   .     S
C431   H434    1.119   .     S
C431   H432    1.119   .     S
C431   H433    1.121   .     S
N435   C437    1.457   .     S
N435   H436    1.032   .     S
C437   H439    1.112   .     S
C437   H438    1.113   .     S
C437   H440    1.109   .     S
N441   C443    1.443   .     S
N441   H442    1.018   .     S
C443   H444    1.114   .     S
C443   H445    1.111   .     S
C443   H446    1.106   .     S
N447   H448    1.034   .     S
N447   C449    1.457   .     S
C449   H451    1.113   .     S
C449   H452    1.109   .     S
C449   H450    1.113   .     S
N453   C455    1.447   .     S
N453   H454    1.012   .     S
C455   H457    1.113   .     S
C455   H456    1.117   .     S
C455   H458    1.110   .     S
N459   H460    1.032   .     S
N459   C461    1.457   .     S
C461   H464    1.109   .     S
C461   H462    1.113   .     S
C461   H463    1.112   .     S
N465   C467    1.443   .     S
N465   H466    1.017   .     S
C467   H470    1.107   .     S
C467   H468    1.114   .     S
C467   H469    1.111   .     S
N471   C473    1.456   .     S
N471   H472    1.034   .     S
C473   H476    1.109   .     S
C473   H474    1.112   .     S
C473   H475    1.113   .     S
N477   C479    1.452   .     S
N477   H478    1.021   .     S
C479   H482    1.113   .     S
C479   H480    1.105   .     S
C479   H481    1.115   .     S
N483   C485    1.463   .     S
N483   H484    1.030   .     S
C485   H486    1.099   .     S
C485   H488    1.113   .     S
C485   H487    1.117   .     S
N489   H490    1.016   .     S
N489   C491    1.451   .     S
C491   H493    1.113   .     S
C491   H494    1.116   .     S
C491   H492    1.103   .     S
N495   H496    1.029   .     S
N495   C497    1.464   .     S
C497   H499    1.118   .     S
C497   H500    1.111   .     S
C497   H498    1.104   .     S
N501   C503    1.452   .     S
N501   H502    1.020   .     S
C503   H505    1.114   .     S
C503   H504    1.105   .     S
C503   H506    1.113   .     S
N507   C509    1.462   .     S
N507   H508    1.030   .     S
C509   H510    1.100   .     S
C509   H511    1.117   .     S
C509   H512    1.112   .     S
N513   C515    1.452   .     S
N513   H514    1.018   .     S
C515   H517    1.114   .     S
C515   H518    1.118   .     S
C515   H516    1.104   .     S
N519   H520    1.029   .     S
N519   C521    1.465   .     S
C521   H523    1.118   .     S
C521   H524    1.111   .     S
C521   H522    1.103   .     S
N525   H526    1.002   .     S
N525   C527    1.447   .     S
C527   H530    1.110   .     S
C527   H529    1.111   .     S
C527   H528    1.109   .     S
N531   H532    1.033   .     S
N531   C533    1.458   .     S
C533   H535    1.112   .     S
C533   H534    1.113   .     S
C533   H536    1.109   .     S
N537   C539    1.443   .     S
N537   H538    1.017   .     S
C539   H542    1.106   .     S
C539   H540    1.114   .     S
C539   H541    1.111   .     S
N543   H544    1.034   .     S
N543   C545    1.457   .     S
C545   H548    1.109   .     S
C545   H547    1.113   .     S
C545   H546    1.113   .     S
N549   C551    1.446   .     S
N549   H550    1.018   .     S
C551   H553    1.110   .     S
C551   H554    1.108   .     S
C551   H552    1.113   .     S
N555   C557    1.458   .     S
N555   H556    1.032   .     S
C557   H558    1.114   .     S
C557   H560    1.110   .     S
C557   H559    1.113   .     S
N561   C563    1.443   .     S
N561   H562    1.018   .     S
C563   H564    1.114   .     S
C563   H565    1.111   .     S
C563   H566    1.107   .     S
N567   H568    1.034   .     S
N567   C569    1.457   .     S
C569   H572    1.109   .     S
C569   H571    1.113   .     S
C569   H570    1.112   .     S
O573   C574    1.419   .     S
C574   H575    1.111   .     S
C574   C577    1.503   .     S
C574   H576    1.116   .     S
C577   C580    1.529   .     S
C577   H578    1.114   .     S
C577   H579    1.111   .     S
C580   H581    1.109   .     S
C580   H583    1.112   .     S
C580   H582    1.109   .     S
O584   C585    1.417   .     S
C585   H586    1.115   .     S
C585   H587    1.108   .     S
C585   C588    1.508   .     S
C588   C591    1.529   .     S
C588   H589    1.111   .     S
C588   H590    1.109   .     S
C591   H594    1.115   .     S
C591   H593    1.107   .     S
C591   H592    1.106   .     S
O595   C596    1.418   .     S
C596   H597    1.112   .     S
C596   C599    1.506   .     S
C596   H598    1.117   .     S
C599   C602    1.525   .     S
C599   H601    1.111   .     S
C599   H600    1.112   .     S
C602   H604    1.105   .     S
C602   H605    1.111   .     S
C602   H603    1.109   .     S
O606   C607    1.418   .     S
C607   C610    1.516   .     S
C607   H608    1.118   .     S
C607   H609    1.108   .     S
C610   C613    1.531   .     S
C610   H611    1.116   .     S
C610   H612    1.112   .     S
C613   H614    1.108   .     S
C613   H615    1.109   .     S
C613   H616    1.114   .     S
O617   C618    1.420   .     S
C618   H619    1.111   .     S
C618   H620    1.116   .     S
C618   C621    1.503   .     S
C621   H622    1.114   .     S
C621   C624    1.529   .     S
C621   H623    1.111   .     S
C624   H627    1.113   .     S
C624   H626    1.109   .     S
C624   H625    1.110   .     S
O628   C629    1.418   .     S
C629   H631    1.106   .     S
C629   H630    1.115   .     S
C629   C632    1.515   .     S
C632   C635    1.528   .     S
C632   H634    1.109   .     S
C632   H633    1.111   .     S
C635   H637    1.110   .     S
C635   H636    1.108   .     S
C635   H638    1.113   .     S
O639   C640    1.419   .     S
C640   H641    1.112   .     S
C640   C643    1.506   .     S
C640   H642    1.117   .     S
C643   C646    1.527   .     S
C643   H644    1.113   .     S
C643   H645    1.111   .     S
C646   H649    1.111   .     S
C646   H648    1.107   .     S
C646   H647    1.110   .     S
O650   C651    1.417   .     S
C651   C654    1.515   .     S
C651   H652    1.113   .     S
C651   H653    1.104   .     S
C654   H656    1.108   .     S
C654   C657    1.528   .     S
C654   H655    1.113   .     S
C657   H659    1.109   .     S
C657   H658    1.107   .     S
C657   H660    1.114   .     S
O661   C662    1.420   .     S
C662   C665    1.504   .     S
C662   H664    1.116   .     S
C662   H663    1.111   .     S
C665   H667    1.111   .     S
C665   C668    1.529   .     S
C665   H666    1.114   .     S
C668   H669    1.110   .     S
C668   H671    1.113   .     S
C668   H670    1.108   .     S
O672   C673    1.417   .     S
C673   H674    1.116   .     S
C673   C676    1.516   .     S
C673   H675    1.105   .     S
C676   H677    1.111   .     S
C676   C679    1.526   .     S
C676   H678    1.110   .     S
C679   H681    1.107   .     S
C679   H680    1.107   .     S
C679   H682    1.113   .     S
O683   C684    1.419   .     S
C684   H685    1.112   .     S
C684   C687    1.505   .     S
C684   H686    1.117   .     S
C687   C690    1.526   .     S
C687   H689    1.111   .     S
C687   H688    1.112   .     S
C690   H692    1.106   .     S
C690   H691    1.109   .     S
C690   H693    1.111   .     S
O694   C695    1.417   .     S
C695   C698    1.515   .     S
C695   H696    1.113   .     S
C695   H697    1.104   .     S
C698   H700    1.108   .     S
C698   C701    1.527   .     S
C698   H699    1.113   .     S
C701   H702    1.107   .     S
C701   H703    1.108   .     S
C701   H704    1.113   .     S
O705   C706    1.419   .     S
C706   H708    1.116   .     S
C706   C709    1.504   .     S
C706   H707    1.111   .     S
C709   C712    1.530   .     S
C709   H711    1.111   .     S
C709   H710    1.114   .     S
C712   H713    1.109   .     S
C712   H714    1.109   .     S
C712   H715    1.112   .     S
O716   C717    1.417   .     S
C717   C720    1.511   .     S
C717   H719    1.106   .     S
C717   H718    1.114   .     S
C720   C723    1.529   .     S
C720   H721    1.110   .     S
C720   H722    1.108   .     S
C723   H724    1.107   .     S
C723   H725    1.108   .     S
C723   H726    1.113   .     S
O727   C728    1.419   .     S
C728   C731    1.506   .     S
C728   H730    1.117   .     S
C728   H729    1.112   .     S
C731   C734    1.526   .     S
C731   H732    1.113   .     S
C731   H733    1.111   .     S
C734   H735    1.110   .     S
C734   H737    1.113   .     S
C734   H736    1.106   .     S
O738   C739    1.417   .     S
C739   C742    1.514   .     S
C739   H740    1.114   .     S
C739   H741    1.106   .     S
C742   H744    1.110   .     S
C742   H743    1.114   .     S
C742   C745    1.530   .     S
C745   H747    1.108   .     S
C745   H746    1.107   .     S
C745   H748    1.114   .     S
C749   C849    1.428   .     A
C749   O1321   1.388   .     S
C749   C17     1.406   1_655 S
C750   O1332   1.390   .     S
C750   C18     1.404   1_655 S
C750   C102    1.436   1_655 S
C751   C851    1.424   .     A
C751   O1343   1.391   .     S
C751   C2263   1.408   .     S
C752   O1354   1.392   .     S
C752   C768    1.405   .     A
C752   C2348   1.431   .     S
C753   C845    1.424   .     A
C753   O1365   1.389   .     S
C753   C765    1.404   .     A
C754   O1376   1.390   .     S
C754   C766    1.405   .     A
C755   C847    1.421   .     A
C755   C767    1.405   .     A
C755   O1387   1.390   .     S
C756   O1398   1.393   .     S
C756   C2264   1.405   1_545 S
C756   C2344   1.431   1_545 S
C757   C857    1.426   .     A
C757   O1409   1.389   .     S
C757   C2265   1.405   1_545 S
C758   O1420   1.389   .     S
C758   C770    1.404   .     A
C758   C858    1.434   .     A
C759   C859    1.422   .     A
C759   O1431   1.391   .     S
C759   C23     1.406   1_655 S
C760   O1442   1.392   .     S
C760   C860    1.431   .     A
C760   C772    1.405   .     A
C761   C769    1.405   .     A
C761   C853    1.425   .     A
C761   O1453   1.389   .     S
C762   O1464   1.389   .     S
C762   C854    1.436   .     A
C762   C2266   1.404   1_545 S
C763   O1475   1.391   .     S
C763   C855    1.425   .     A
C763   C771    1.408   .     A
C764   O1486   1.393   .     S
C764   C856    1.430   .     A
C764   C24     1.404   1_655 S
C765   C791    1.489   .     S
C766   C792    1.489   .     S
C767   C789    1.487   .     S
C767   C2247   1.408   1_545 S
C768   C790    1.484   .     S
C768   C2252   1.405   .     S
C769   C2253   1.405   .     S
C769   C2291   1.487   .     S
C770   C796    1.490   .     S
C770   C2258   1.404   .     S
C771   C793    1.488   .     S
C773   C845    1.408   .     A
C773   O953    1.385   .     S
C773   C778    1.389   .     A
C774   O964    1.376   .     S
C774   C846    1.417   .     A
C774   C777    1.393   .     A
C775   C847    1.409   .     A
C775   O975    1.385   .     S
C775   C780    1.385   .     A
C776   O986    1.377   .     S
C776   C779    1.386   .     A
C776   C848    1.421   .     A
C777   O997    1.384   .     S
C777   C849    1.410   .     A
C778   C850    1.419   .     A
C778   O1008   1.374   .     S
C779   O1019   1.385   .     S
C779   C851    1.412   .     A
C780   C852    1.420   .     A
C780   O1030   1.375   .     S
C781   C853    1.408   .     A
C781   O1041   1.384   .     S
C781   C786    1.391   1_556 S
C782   C854    1.418   .     A
C782   O1052   1.374   .     S
C782   C785    1.390   1_554 S
C783   C855    1.412   .     A
C783   O1063   1.384   .     S
C783   C788    1.387   1_556 S
C784   C856    1.421   .     A
C784   O1074   1.376   .     S
C784   C787    1.385   1_554 S
C785   C857    1.409   .     A
C785   O1085   1.384   .     S
C785   C782    1.390   1_556 S
C786   C858    1.417   .     A
C786   O1096   1.374   .     S
C786   C781    1.391   1_554 S
C787   O1107   1.385   .     S
C787   C859    1.412   .     A
C787   C784    1.385   1_556 S
C788   C860    1.420   .     A
C788   O1118   1.376   .     S
C788   C783    1.387   1_554 S
C789   O893    1.307   .     A
C789   O2385   1.307   1_545 S
C790   O894    1.305   .     A
C790   O2386   1.306   .     S
C791   O891    1.305   .     A
C792   O896    1.305   .     A
C793   O897    1.307   .     A
C793   O901    1.308   .     A
C794   C24     1.483   1_655 S
C794   O150    1.304   1_655 S
C794   O154    1.306   1_655 S
C795   C2265   1.487   1_545 S
C795   O899    1.307   .     S
C795   O903    1.305   .     S
C796   O2396   1.306   .     A
C796   O2400   1.305   .     A
C797   C863    1.484   .     S
C797   O905    1.297   .     A
C797   O931    1.309   .     A
C798   O932    1.298   .     A
C798   O906    1.321   .     A
C798   C864    1.512   .     S
C799   O929    1.308   .     A
C799   O907    1.299   .     A
C799   C865    1.487   .     S
C800   O930    1.298   .     A
C800   O908    1.321   .     A
C800   C866    1.512   .     S
C801   C867    1.485   .     S
C801   O935    1.311   .     A
C801   O909    1.297   .     A
C802   O910    1.321   .     A
C802   O936    1.300   .     A
C802   C868    1.511   .     S
C803   O911    1.299   .     A
C803   O933    1.309   .     A
C803   C861    1.487   .     S
C804   O912    1.322   .     A
C804   O934    1.298   .     A
C804   C862    1.513   .     S
C805   C871    1.487   .     S
C805   O913    1.308   .     A
C805   O923    1.299   .     A
C806   O914    1.298   .     A
C806   C872    1.512   .     S
C806   O924    1.322   .     A
C807   O915    1.310   .     A
C807   C873    1.485   .     S
C807   O921    1.297   .     A
C808   O922    1.321   .     A
C808   O916    1.299   .     A
C808   C874    1.512   .     S
C809   C875    1.487   .     S
C809   O927    1.299   .     A
C809   O917    1.308   .     A
C810   O918    1.299   .     A
C810   O928    1.322   .     A
C810   C876    1.513   .     S
C811   O919    1.311   .     A
C811   C869    1.485   .     S
C811   O925    1.297   .     A
C812   O920    1.300   .     A
C812   O926    1.320   .     A
C812   C870    1.511   .     S
C813   C876    1.417   .     A
C813   C828    1.412   .     A
C813   N1129   1.417   .     S
C814   C827    1.417   .     A
C814   N1135   1.444   .     S
C814   C875    1.427   .     A
C815   N1141   1.417   .     S
C815   C874    1.419   .     A
C815   C826    1.413   .     A
C816   C825    1.417   .     A
C816   N1147   1.450   .     S
C816   C873    1.424   .     A
C817   N1153   1.414   .     S
C817   C824    1.412   .     A
C817   C872    1.418   .     A
C818   N1159   1.444   .     S
C818   C871    1.427   .     A
C818   C823    1.417   .     A
C819   C870    1.415   .     A
C819   N1165   1.412   .     S
C819   C822    1.413   .     A
C820   C821    1.416   .     A
C820   N1171   1.450   .     S
C820   C869    1.421   .     A
C821   C868    1.443   .     A
C821   N1177   1.417   .     S
C822   N1183   1.435   .     S
C822   C867    1.417   .     A
C823   N1189   1.425   .     S
C823   C866    1.430   .     A
C824   N1195   1.435   .     S
C824   C865    1.414   .     A
C825   N1201   1.417   .     S
C825   C864    1.436   .     A
C826   C863    1.418   .     A
C826   N1207   1.434   .     S
C827   N1213   1.427   .     S
C827   C862    1.430   .     A
C828   N1219   1.437   .     S
C828   C861    1.412   .     A
C829   C862    1.415   .     A
C829   N1225   1.416   .     S
C829   C844    1.412   .     A
C830   N1231   1.445   .     S
C830   C843    1.417   .     A
C830   C861    1.427   .     A
C831   C842    1.413   .     A
C831   C864    1.418   .     A
C831   N1237   1.415   .     S
C832   C841    1.416   .     A
C832   N1243   1.450   .     S
C832   C863    1.423   .     A
C833   C840    1.412   .     A
C833   N1249   1.416   .     S
C833   C866    1.419   .     A
C834   C839    1.417   .     A
C834   N1255   1.443   .     S
C834   C865    1.427   .     A
C835   C838    1.413   .     A
C835   N1261   1.415   .     S
C835   C868    1.417   .     A
C836   C867    1.421   .     A
C836   C837    1.416   .     A
C836   N1267   1.450   .     S
C837   N1273   1.415   .     S
C837   C870    1.439   .     A
C838   C869    1.417   .     A
C838   N1279   1.436   .     S
C839   N1285   1.425   .     S
C839   C872    1.430   .     A
C840   C871    1.415   .     A
C840   N1291   1.435   .     S
C841   N1297   1.417   .     S
C841   C874    1.437   .     A
C842   C873    1.418   .     A
C842   N1303   1.435   .     S
C843   C876    1.430   .     A
C843   N1309   1.427   .     S
C844   C875    1.413   .     A
C844   N1315   1.437   .     S
C845   C877    1.409   .     A
C846   C6      1.435   1_655 S
C846   C130    1.415   1_655 S
C847   C2375   1.413   1_545 S
C848   C880    1.419   .     A
C848   C2252   1.431   .     S
C849   C129    1.409   1_655 S
C850   C878    1.414   .     A
C851   C879    1.414   .     A
C852   C2248   1.431   1_545 S
C852   C2376   1.419   1_545 S
C853   C881    1.409   .     A
C854   C2378   1.414   1_545 S
C855   C883    1.414   .     A
C856   C136    1.419   1_655 S
C857   C2377   1.409   1_545 S
C858   C882    1.415   .     A
C859   C135    1.414   1_655 S
C860   C884    1.419   .     A
C877   C878    1.429   .     A
C879   C880    1.424   .     A
C879   C2343   1.413   .     S
C880   C2348   1.419   .     S
C881   C2353   1.409   .     S
C881   C882    1.429   1_556 S
C882   C2350   1.414   .     S
C882   C881    1.429   1_554 S
C883   C884    1.424   1_556 S
C884   C883    1.424   1_554 S
O885   Zn941   1.991   .     S
O885   Zn948   1.991   .     S
O885   Zn937   1.990   .     S
O885   Zn2448  1.993   1_545 S
O886   Zn2443  1.991   1_545 S
O886   Zn938   1.990   .     S
O886   Zn942   1.991   .     S
O886   Zn951   1.993   .     S
O887   Zn943   1.993   .     S
O887   Zn946   1.990   .     S
O887   Zn939   1.991   .     S
O888   Zn940   1.991   .     S
O888   Zn944   1.993   .     S
O888   Zn949   1.991   .     S
O889   Zn952   1.978   .     S
O889   C2285   1.307   .     S
O890   Zn951   1.978   .     S
O890   C2286   1.306   1_545 S
O891   Zn946   1.979   .     S
O892   Zn945   1.979   .     S
O892   C44     1.306   1_655 S
O893   Zn948   1.979   .     S
O894   Zn947   1.979   .     S
O895   Zn950   1.979   .     S
O895   C43     1.308   1_655 S
O896   Zn949   1.979   .     S
O897   Zn944   1.978   .     S
O898   Zn943   1.978   .     S
O899   Zn938   1.979   .     S
O900   C2292   1.306   1_545 A
O900   Zn937   1.979   .     S
O901   Zn940   1.979   .     S
O902   Zn939   1.979   .     S
O903   Zn942   1.979   .     S
O904   C2292   1.305   1_545 A
O904   Zn941   1.979   .     S
O905   Zn948   1.986   .     S
O906   Zn947   1.986   .     S
O907   Zn950   1.986   .     S
O908   Zn949   1.986   .     S
O909   Zn952   1.986   .     S
O910   Zn951   1.986   .     S
O911   Zn946   1.986   .     S
O912   Zn945   1.986   .     S
O913   Zn947   1.986   .     S
O914   Zn948   1.986   .     S
O915   Zn945   1.986   .     S
O916   Zn946   1.986   .     S
O917   Zn951   1.985   .     S
O918   Zn952   1.985   .     S
O919   Zn949   1.987   .     S
O920   Zn950   1.987   .     S
O921   Zn192   1.986   1_655 S
O922   Zn939   1.986   .     S
O923   Zn2438  1.986   .     S
O924   Zn941   1.986   .     S
O925   Zn944   1.986   .     S
O926   Zn195   1.986   1_655 S
O927   Zn938   1.986   .     S
O928   Zn2433  1.986   .     S
O929   Zn191   1.986   1_655 S
O930   Zn940   1.986   .     S
O931   Zn937   1.986   .     S
O932   Zn2434  1.986   .     S
O933   Zn943   1.985   .     S
O934   Zn196   1.985   1_655 S
O935   Zn2437  1.987   .     S
O936   Zn942   1.987   .     S
Zn937  O2424   1.986   1_545 S
Zn938  O2428   1.986   1_545 S
Zn941  O2431   1.987   1_545 S
Zn942  O2419   1.986   1_545 S
Zn945  O140    1.990   1_655 S
Zn947  O2382   1.991   .     S
Zn950  O139    1.991   1_655 S
Zn952  O2381   1.993   .     S
C954   H955    1.111   .     S
C954   H956    1.110   .     S
C954   C957    1.519   .     S
C954   O205    1.411   1_655 S
C957   H958    1.111   .     S
C957   C960    1.516   .     S
C957   H959    1.112   .     S
C960   H963    1.110   .     S
C960   H961    1.114   .     S
C960   H962    1.107   .     S
O964   C965    1.402   .     S
C965   H966    1.113   .     S
C965   C968    1.515   .     S
C965   H967    1.121   .     S
C968   H969    1.113   .     S
C968   H970    1.114   .     S
C968   C971    1.505   .     S
C971   H972    1.111   .     S
C971   H974    1.113   .     S
C971   H973    1.092   .     S
O975   C2472   1.412   1_545 S
C976   H977    1.111   .     S
C976   C979    1.521   .     S
C976   H978    1.111   .     S
C976   O2471   1.412   .     S
C979   C982    1.516   .     S
C979   H981    1.112   .     S
C979   H980    1.110   .     S
C982   H984    1.109   .     S
C982   H985    1.111   .     S
C982   H983    1.114   .     S
O986   C987    1.403   .     S
C987   H989    1.120   .     S
C987   H988    1.111   .     S
C987   C990    1.518   .     S
C990   H992    1.114   .     S
C990   C993    1.507   .     S
C990   H991    1.113   .     S
C993   H994    1.112   .     S
C993   H995    1.094   .     S
C993   H996    1.115   .     S
O997   C250    1.411   1_655 S
C998   H1000   1.110   .     S
C998   C1001   1.522   .     S
C998   H999    1.110   .     S
C1001  H1002   1.111   .     S
C1001  C1004   1.514   .     S
C1001  H1003   1.111   .     S
C1004  H1007   1.109   .     S
C1004  H1006   1.107   .     S
C1004  H1005   1.113   .     S
O1008  C1009   1.401   .     S
C1009  H1011   1.120   .     S
C1009  C1012   1.514   .     S
C1009  H1010   1.111   .     S
C1012  H1013   1.113   .     S
C1012  C1015   1.505   .     S
C1012  H1014   1.114   .     S
C1015  H1018   1.114   .     S
C1015  H1016   1.111   .     S
C1015  H1017   1.092   .     S
O1019  C2516   1.412   .     S
C1020  H1022   1.111   .     S
C1020  H1021   1.111   .     S
C1020  C1023   1.521   .     S
C1020  O2515   1.412   1_545 S
C1023  C1026   1.517   .     S
C1023  H1025   1.112   .     S
C1023  H1024   1.110   .     S
C1026  H1029   1.110   .     S
C1026  H1027   1.113   .     S
C1026  H1028   1.109   .     S
O1030  C1031   1.400   .     S
C1031  H1032   1.110   .     S
C1031  H1033   1.120   .     S
C1031  C1034   1.518   .     S
C1034  C1037   1.502   .     S
C1034  H1036   1.112   .     S
C1034  H1035   1.113   .     S
C1037  H1040   1.113   .     S
C1037  H1038   1.111   .     S
C1037  H1039   1.091   .     S
O1041  C1042   1.412   .     S
C1042  H1043   1.110   .     S
C1042  C1045   1.523   .     S
C1042  H1044   1.111   .     S
C1045  H1047   1.112   .     S
C1045  H1046   1.110   .     S
C1045  C1048   1.515   .     S
C1048  H1049   1.114   .     S
C1048  H1051   1.110   .     S
C1048  H1050   1.108   .     S
O1052  C1053   1.401   .     S
C1053  H1055   1.120   .     S
C1053  H1054   1.112   .     S
C1053  C1056   1.514   .     S
C1056  H1058   1.114   .     S
C1056  H1057   1.112   .     S
C1056  C1059   1.506   .     S
C1059  H1061   1.091   .     S
C1059  H1060   1.110   .     S
C1059  H1062   1.112   .     S
O1063  C1064   1.412   .     S
C1064  H1065   1.111   .     S
C1064  C1067   1.521   .     S
C1064  H1066   1.111   .     S
C1067  H1069   1.112   .     S
C1067  H1068   1.109   .     S
C1067  C1070   1.516   .     S
C1070  H1072   1.108   .     S
C1070  H1073   1.109   .     S
C1070  H1071   1.113   .     S
O1074  C1075   1.401   .     S
C1075  H1077   1.120   .     S
C1075  H1076   1.111   .     S
C1075  C1078   1.517   .     S
C1078  H1079   1.112   .     S
C1078  H1080   1.113   .     S
C1078  C1081   1.504   .     S
C1081  H1082   1.110   .     S
C1081  H1084   1.113   .     S
C1081  H1083   1.092   .     S
O1085  C1086   1.411   .     S
C1086  H1088   1.110   .     S
C1086  C1089   1.520   .     S
C1086  H1087   1.110   .     S
C1089  H1091   1.111   .     S
C1089  C1092   1.515   .     S
C1089  H1090   1.110   .     S
C1092  H1094   1.107   .     S
C1092  H1095   1.109   .     S
C1092  H1093   1.113   .     S
O1096  C1097   1.400   .     S
C1097  H1098   1.111   .     S
C1097  C1100   1.515   .     S
C1097  H1099   1.120   .     S
C1100  H1101   1.113   .     S
C1100  C1103   1.504   .     S
C1100  H1102   1.114   .     S
C1103  H1105   1.091   .     S
C1103  H1104   1.110   .     S
C1103  H1106   1.113   .     S
O1107  C1108   1.411   .     S
C1108  H1109   1.111   .     S
C1108  H1110   1.111   .     S
C1108  C1111   1.518   .     S
C1111  C1114   1.516   .     S
C1111  H1112   1.110   .     S
C1111  H1113   1.112   .     S
C1114  H1117   1.109   .     S
C1114  H1115   1.113   .     S
C1114  H1116   1.108   .     S
O1118  C1119   1.403   .     S
C1119  C1122   1.517   .     S
C1119  H1120   1.111   .     S
C1119  H1121   1.120   .     S
C1122  H1123   1.113   .     S
C1122  C1125   1.505   .     S
C1122  H1124   1.112   .     S
C1125  H1128   1.114   .     S
C1125  H1127   1.092   .     S
C1125  H1126   1.111   .     S
N1129  H1130   1.021   .     S
N1129  C1131   1.451   .     S
C1131  H1132   1.104   .     S
C1131  H1134   1.112   .     S
C1131  H1133   1.115   .     S
N1135  C1137   1.463   .     S
N1135  H1136   1.030   .     S
C1137  H1140   1.113   .     S
C1137  H1139   1.116   .     S
C1137  H1138   1.099   .     S
N1141  H1142   1.016   .     S
N1141  C1143   1.451   .     S
C1143  H1146   1.116   .     S
C1143  H1144   1.103   .     S
C1143  H1145   1.114   .     S
N1147  C1149   1.464   .     S
N1147  H1148   1.029   .     S
C1149  H1151   1.118   .     S
C1149  H1150   1.104   .     S
C1149  H1152   1.111   .     S
N1153  H1154   1.020   .     S
N1153  C1155   1.452   .     S
C1155  H1158   1.112   .     S
C1155  H1157   1.114   .     S
C1155  H1156   1.105   .     S
N1159  C1161   1.463   .     S
N1159  H1160   1.030   .     S
C1161  H1163   1.117   .     S
C1161  H1162   1.101   .     S
C1161  H1164   1.113   .     S
N1165  C1167   1.450   .     S
N1165  H1166   1.016   .     S
C1167  H1170   1.116   .     S
C1167  H1169   1.113   .     S
C1167  H1168   1.103   .     S
N1171  H1172   1.030   .     S
N1171  C1173   1.465   .     S
C1173  H1174   1.103   .     S
C1173  H1176   1.111   .     S
C1173  H1175   1.118   .     S
N1177  H1178   1.010   .     S
N1177  C1179   1.448   .     S
C1179  H1182   1.119   .     S
C1179  H1180   1.119   .     S
C1179  H1181   1.121   .     S
N1183  C1185   1.457   .     S
N1183  H1184   1.032   .     S
C1185  H1187   1.112   .     S
C1185  H1186   1.113   .     S
C1185  H1188   1.109   .     S
N1189  C1191   1.443   .     S
N1189  H1190   1.018   .     S
C1191  H1192   1.114   .     S
C1191  H1193   1.111   .     S
C1191  H1194   1.106   .     S
N1195  H1196   1.034   .     S
N1195  C1197   1.457   .     S
C1197  H1199   1.113   .     S
C1197  H1200   1.109   .     S
C1197  H1198   1.113   .     S
N1201  C1203   1.447   .     S
N1201  H1202   1.012   .     S
C1203  H1205   1.113   .     S
C1203  H1204   1.117   .     S
C1203  H1206   1.110   .     S
N1207  H1208   1.032   .     S
N1207  C1209   1.457   .     S
C1209  H1212   1.109   .     S
C1209  H1210   1.113   .     S
C1209  H1211   1.112   .     S
N1213  C1215   1.443   .     S
N1213  H1214   1.017   .     S
C1215  H1218   1.107   .     S
C1215  H1216   1.114   .     S
C1215  H1217   1.111   .     S
N1219  C1221   1.456   .     S
N1219  H1220   1.034   .     S
C1221  H1224   1.109   .     S
C1221  H1222   1.112   .     S
C1221  H1223   1.113   .     S
N1225  C1227   1.452   .     S
N1225  H1226   1.021   .     S
C1227  H1230   1.113   .     S
C1227  H1228   1.105   .     S
C1227  H1229   1.115   .     S
N1231  C1233   1.463   .     S
N1231  H1232   1.030   .     S
C1233  H1234   1.099   .     S
C1233  H1236   1.113   .     S
C1233  H1235   1.117   .     S
N1237  H1238   1.016   .     S
N1237  C1239   1.451   .     S
C1239  H1241   1.113   .     S
C1239  H1242   1.116   .     S
C1239  H1240   1.103   .     S
N1243  H1244   1.029   .     S
N1243  C1245   1.464   .     S
C1245  H1247   1.118   .     S
C1245  H1248   1.111   .     S
C1245  H1246   1.104   .     S
N1249  C1251   1.452   .     S
N1249  H1250   1.020   .     S
C1251  H1253   1.114   .     S
C1251  H1252   1.105   .     S
C1251  H1254   1.113   .     S
N1255  C1257   1.462   .     S
N1255  H1256   1.030   .     S
C1257  H1258   1.100   .     S
C1257  H1259   1.117   .     S
C1257  H1260   1.112   .     S
N1261  C1263   1.452   .     S
N1261  H1262   1.018   .     S
C1263  H1265   1.114   .     S
C1263  H1266   1.118   .     S
C1263  H1264   1.104   .     S
N1267  H1268   1.029   .     S
N1267  C1269   1.465   .     S
C1269  H1271   1.118   .     S
C1269  H1272   1.111   .     S
C1269  H1270   1.103   .     S
N1273  H1274   1.002   .     S
N1273  C1275   1.447   .     S
C1275  H1278   1.110   .     S
C1275  H1277   1.111   .     S
C1275  H1276   1.109   .     S
N1279  H1280   1.033   .     S
N1279  C1281   1.458   .     S
C1281  H1283   1.112   .     S
C1281  H1282   1.113   .     S
C1281  H1284   1.109   .     S
N1285  C1287   1.443   .     S
N1285  H1286   1.017   .     S
C1287  H1290   1.106   .     S
C1287  H1288   1.114   .     S
C1287  H1289   1.111   .     S
N1291  H1292   1.034   .     S
N1291  C1293   1.457   .     S
C1293  H1296   1.109   .     S
C1293  H1295   1.113   .     S
C1293  H1294   1.113   .     S
N1297  C1299   1.446   .     S
N1297  H1298   1.018   .     S
C1299  H1301   1.110   .     S
C1299  H1302   1.108   .     S
C1299  H1300   1.113   .     S
N1303  C1305   1.458   .     S
N1303  H1304   1.032   .     S
C1305  H1306   1.114   .     S
C1305  H1308   1.110   .     S
C1305  H1307   1.113   .     S
N1309  C1311   1.443   .     S
N1309  H1310   1.018   .     S
C1311  H1312   1.114   .     S
C1311  H1313   1.111   .     S
C1311  H1314   1.107   .     S
N1315  H1316   1.034   .     S
N1315  C1317   1.457   .     S
C1317  H1320   1.109   .     S
C1317  H1319   1.113   .     S
C1317  H1318   1.112   .     S
O1321  C1322   1.419   .     S
C1322  H1323   1.111   .     S
C1322  C1325   1.503   .     S
C1322  H1324   1.116   .     S
C1325  C1328   1.529   .     S
C1325  H1326   1.114   .     S
C1325  H1327   1.111   .     S
C1328  H1329   1.109   .     S
C1328  H1331   1.112   .     S
C1328  H1330   1.109   .     S
O1332  C1333   1.417   .     S
C1333  H1334   1.115   .     S
C1333  H1335   1.108   .     S
C1333  C1336   1.508   .     S
C1336  C1339   1.529   .     S
C1336  H1337   1.111   .     S
C1336  H1338   1.109   .     S
C1339  H1342   1.115   .     S
C1339  H1341   1.107   .     S
C1339  H1340   1.106   .     S
O1343  C1344   1.418   .     S
C1344  H1345   1.112   .     S
C1344  C1347   1.506   .     S
C1344  H1346   1.117   .     S
C1347  C1350   1.525   .     S
C1347  H1349   1.111   .     S
C1347  H1348   1.112   .     S
C1350  H1352   1.105   .     S
C1350  H1353   1.111   .     S
C1350  H1351   1.109   .     S
O1354  C1355   1.418   .     S
C1355  C1358   1.516   .     S
C1355  H1356   1.118   .     S
C1355  H1357   1.108   .     S
C1358  C1361   1.531   .     S
C1358  H1359   1.116   .     S
C1358  H1360   1.112   .     S
C1361  H1362   1.108   .     S
C1361  H1363   1.109   .     S
C1361  H1364   1.114   .     S
O1365  C1366   1.420   .     S
C1366  H1367   1.111   .     S
C1366  H1368   1.116   .     S
C1366  C1369   1.503   .     S
C1369  H1370   1.114   .     S
C1369  C1372   1.529   .     S
C1369  H1371   1.111   .     S
C1372  H1375   1.113   .     S
C1372  H1374   1.109   .     S
C1372  H1373   1.110   .     S
O1376  C1377   1.418   .     S
C1377  H1379   1.106   .     S
C1377  H1378   1.115   .     S
C1377  C1380   1.515   .     S
C1380  C1383   1.528   .     S
C1380  H1382   1.109   .     S
C1380  H1381   1.111   .     S
C1383  H1385   1.110   .     S
C1383  H1384   1.108   .     S
C1383  H1386   1.113   .     S
O1387  C1388   1.419   .     S
C1388  H1389   1.112   .     S
C1388  C1391   1.506   .     S
C1388  H1390   1.117   .     S
C1391  C1394   1.527   .     S
C1391  H1392   1.113   .     S
C1391  H1393   1.111   .     S
C1394  H1397   1.111   .     S
C1394  H1396   1.107   .     S
C1394  H1395   1.110   .     S
O1398  C1399   1.417   .     S
C1399  C1402   1.515   .     S
C1399  H1400   1.113   .     S
C1399  H1401   1.104   .     S
C1402  H1404   1.108   .     S
C1402  C1405   1.528   .     S
C1402  H1403   1.113   .     S
C1405  H1407   1.109   .     S
C1405  H1406   1.107   .     S
C1405  H1408   1.114   .     S
O1409  C1410   1.420   .     S
C1410  C1413   1.504   .     S
C1410  H1412   1.116   .     S
C1410  H1411   1.111   .     S
C1413  H1415   1.111   .     S
C1413  C1416   1.529   .     S
C1413  H1414   1.114   .     S
C1416  H1417   1.110   .     S
C1416  H1419   1.113   .     S
C1416  H1418   1.108   .     S
O1420  C1421   1.417   .     S
C1421  H1422   1.116   .     S
C1421  C1424   1.516   .     S
C1421  H1423   1.105   .     S
C1424  H1425   1.111   .     S
C1424  C1427   1.526   .     S
C1424  H1426   1.110   .     S
C1427  H1429   1.107   .     S
C1427  H1428   1.107   .     S
C1427  H1430   1.113   .     S
O1431  C1432   1.419   .     S
C1432  H1433   1.112   .     S
C1432  C1435   1.505   .     S
C1432  H1434   1.117   .     S
C1435  C1438   1.526   .     S
C1435  H1437   1.111   .     S
C1435  H1436   1.112   .     S
C1438  H1440   1.106   .     S
C1438  H1439   1.109   .     S
C1438  H1441   1.111   .     S
O1442  C1443   1.417   .     S
C1443  C1446   1.515   .     S
C1443  H1444   1.113   .     S
C1443  H1445   1.104   .     S
C1446  H1448   1.108   .     S
C1446  C1449   1.527   .     S
C1446  H1447   1.113   .     S
C1449  H1450   1.107   .     S
C1449  H1451   1.108   .     S
C1449  H1452   1.113   .     S
O1453  C1454   1.419   .     S
C1454  H1456   1.116   .     S
C1454  C1457   1.504   .     S
C1454  H1455   1.111   .     S
C1457  C1460   1.530   .     S
C1457  H1459   1.111   .     S
C1457  H1458   1.114   .     S
C1460  H1461   1.109   .     S
C1460  H1462   1.109   .     S
C1460  H1463   1.112   .     S
O1464  C1465   1.417   .     S
C1465  C1468   1.511   .     S
C1465  H1467   1.106   .     S
C1465  H1466   1.114   .     S
C1468  C1471   1.529   .     S
C1468  H1469   1.110   .     S
C1468  H1470   1.108   .     S
C1471  H1472   1.107   .     S
C1471  H1473   1.108   .     S
C1471  H1474   1.113   .     S
O1475  C1476   1.419   .     S
C1476  C1479   1.506   .     S
C1476  H1478   1.117   .     S
C1476  H1477   1.112   .     S
C1479  C1482   1.526   .     S
C1479  H1480   1.113   .     S
C1479  H1481   1.111   .     S
C1482  H1483   1.110   .     S
C1482  H1485   1.113   .     S
C1482  H1484   1.106   .     S
O1486  C1487   1.417   .     S
C1487  C1490   1.514   .     S
C1487  H1488   1.114   .     S
C1487  H1489   1.106   .     S
C1490  H1492   1.110   .     S
C1490  H1491   1.114   .     S
C1490  C1493   1.530   .     S
C1493  H1495   1.108   .     S
C1493  H1494   1.107   .     S
C1493  H1496   1.114   .     S
C1497  C1597   1.428   .     A
C1497  O2069   1.388   .     S
C1497  C2261   1.406   .     S
C1498  O2080   1.390   .     S
C1498  C2262   1.404   .     S
C1498  C2346   1.436   .     S
C1499  C1599   1.424   .     A
C1499  O2091   1.391   .     S
C1499  C19     1.408   1_565 S
C1500  O2102   1.392   .     S
C1500  C1516   1.405   .     A
C1500  C104    1.431   1_565 S
C1501  C1593   1.424   .     A
C1501  O2113   1.389   .     S
C1501  C1513   1.404   .     A
C1502  O2124   1.390   .     S
C1502  C1514   1.405   .     A
C1502  C2342   1.435   1_455 S
C1503  C1595   1.421   .     A
C1503  C1515   1.405   .     A
C1503  O2135   1.390   .     S
C1504  O2146   1.393   .     S
C1505  C1605   1.426   .     A
C1505  O2157   1.389   .     S
C1506  O2168   1.389   .     S
C1506  C1518   1.404   .     A
C1506  C1606   1.434   .     A
C1507  C1607   1.422   .     A
C1507  O2179   1.391   .     S
C1507  C2267   1.406   .     S
C1508  O2190   1.392   .     S
C1508  C1608   1.431   .     A
C1508  C1520   1.405   .     A
C1509  C1517   1.405   .     A
C1509  C1601   1.425   .     A
C1509  O2201   1.389   .     S
C1510  O2212   1.389   .     S
C1510  C1602   1.436   .     A
C1511  O2223   1.391   .     S
C1511  C1603   1.425   .     A
C1511  C1519   1.408   .     A
C1512  O2234   1.393   .     S
C1512  C1604   1.430   .     A
C1512  C2268   1.404   .     S
C1513  C1539   1.489   .     S
C1513  C2245   1.406   1_455 S
C1514  C1540   1.489   .     S
C1514  C2246   1.404   1_455 S
C1515  C1537   1.487   .     S
C1516  C1538   1.484   .     S
C1516  C8      1.405   1_565 S
C1517  C9      1.405   1_565 S
C1517  C47     1.487   1_565 S
C1518  C1544   1.490   .     S
C1518  C14     1.404   1_565 S
C1519  C1541   1.488   .     S
C1519  C2255   1.406   1_455 S
C1520  C2260   1.404   1_455 S
C1520  C2290   1.483   1_455 S
C1521  C1593   1.408   .     A
C1521  O1701   1.385   .     S
C1521  C1526   1.389   .     A
C1522  O1712   1.376   .     S
C1522  C1594   1.417   .     A
C1522  C1525   1.393   .     A
C1523  C1595   1.409   .     A
C1523  O1723   1.385   .     S
C1523  C1528   1.385   .     A
C1524  O1734   1.377   .     S
C1524  C1527   1.386   .     A
C1524  C1596   1.421   .     A
C1525  O1745   1.384   .     S
C1525  C1597   1.410   .     A
C1526  C1598   1.419   .     A
C1526  O1756   1.374   .     S
C1527  O1767   1.385   .     S
C1527  C1599   1.412   .     A
C1528  C1600   1.420   .     A
C1528  O1778   1.375   .     S
C1529  C1601   1.408   .     A
C1529  O1789   1.384   .     S
C1529  C1534   1.391   1_556 S
C1530  C1602   1.418   .     A
C1530  O1800   1.374   .     S
C1530  C1533   1.390   1_554 S
C1531  C1603   1.412   .     A
C1531  O1811   1.384   .     S
C1531  C1536   1.387   1_556 S
C1532  C1604   1.421   .     A
C1532  O1822   1.376   .     S
C1532  C1535   1.385   1_554 S
C1533  C1605   1.409   .     A
C1533  O1833   1.384   .     S
C1533  C1530   1.390   1_556 S
C1534  C1606   1.417   .     A
C1534  O1844   1.374   .     S
C1534  C1529   1.391   1_554 S
C1535  O1855   1.385   .     S
C1535  C1607   1.412   .     A
C1535  C1532   1.385   1_556 S
C1536  C1608   1.420   .     A
C1536  O1866   1.376   .     S
C1536  C1531   1.387   1_554 S
C1537  O1641   1.307   .     A
C1538  O1642   1.305   .     A
C1538  O142    1.306   1_565 S
C1539  O1639   1.305   .     A
C1539  O2391   1.308   1_455 S
C1540  O1644   1.305   .     A
C1540  O2388   1.306   1_455 S
C1541  O1645   1.307   .     A
C1541  O1649   1.308   .     A
C1542  C2268   1.483   .     S
C1542  O2394   1.304   .     S
C1542  O2398   1.306   .     S
C1543  O1647   1.307   .     S
C1543  O1651   1.305   .     S
C1544  O152    1.306   1_565 A
C1544  O156    1.305   1_565 A
C1545  C1611   1.484   .     S
C1545  O1653   1.297   .     A
C1545  O1679   1.309   .     A
C1546  O1680   1.298   .     A
C1546  O1654   1.321   .     A
C1546  C1612   1.512   .     S
C1547  O1677   1.308   .     A
C1547  O1655   1.299   .     A
C1547  C1613   1.487   .     S
C1548  O1678   1.298   .     A
C1548  O1656   1.321   .     A
C1548  C1614   1.512   .     S
C1549  C1615   1.485   .     S
C1549  O1683   1.311   .     A
C1549  O1657   1.297   .     A
C1550  O1658   1.321   .     A
C1550  O1684   1.300   .     A
C1550  C1616   1.511   .     S
C1551  O1659   1.299   .     A
C1551  O1681   1.309   .     A
C1551  C1609   1.487   .     S
C1552  O1660   1.322   .     A
C1552  O1682   1.298   .     A
C1552  C1610   1.513   .     S
C1553  C1619   1.487   .     S
C1553  O1661   1.308   .     A
C1553  O1671   1.299   .     A
C1554  O1662   1.298   .     A
C1554  C1620   1.512   .     S
C1554  O1672   1.322   .     A
C1555  O1663   1.310   .     A
C1555  C1621   1.485   .     S
C1555  O1669   1.297   .     A
C1556  O1670   1.321   .     A
C1556  O1664   1.299   .     A
C1556  C1622   1.512   .     S
C1557  C1623   1.487   .     S
C1557  O1675   1.299   .     A
C1557  O1665   1.308   .     A
C1558  O1666   1.299   .     A
C1558  O1676   1.322   .     A
C1558  C1624   1.513   .     S
C1559  O1667   1.311   .     A
C1559  C1617   1.485   .     S
C1559  O1673   1.297   .     A
C1560  O1668   1.300   .     A
C1560  O1674   1.320   .     A
C1560  C1618   1.511   .     S
C1561  C1624   1.417   .     A
C1561  C1576   1.412   .     A
C1561  N1877   1.417   .     S
C1562  C1575   1.417   .     A
C1562  N1883   1.444   .     S
C1562  C1623   1.427   .     A
C1563  N1889   1.417   .     S
C1563  C1622   1.419   .     A
C1563  C1574   1.413   .     A
C1564  C1573   1.417   .     A
C1564  N1895   1.450   .     S
C1564  C1621   1.424   .     A
C1565  N1901   1.414   .     S
C1565  C1572   1.412   .     A
C1565  C1620   1.418   .     A
C1566  N1907   1.444   .     S
C1566  C1619   1.427   .     A
C1566  C1571   1.417   .     A
C1567  C1618   1.415   .     A
C1567  N1913   1.412   .     S
C1567  C1570   1.413   .     A
C1568  C1569   1.416   .     A
C1568  N1919   1.450   .     S
C1568  C1617   1.421   .     A
C1569  C1616   1.443   .     A
C1569  N1925   1.417   .     S
C1570  N1931   1.435   .     S
C1570  C1615   1.417   .     A
C1571  N1937   1.425   .     S
C1571  C1614   1.430   .     A
C1572  N1943   1.435   .     S
C1572  C1613   1.414   .     A
C1573  N1949   1.417   .     S
C1573  C1612   1.436   .     A
C1574  C1611   1.418   .     A
C1574  N1955   1.434   .     S
C1575  N1961   1.427   .     S
C1575  C1610   1.430   .     A
C1576  N1967   1.437   .     S
C1576  C1609   1.412   .     A
C1577  C1610   1.415   .     A
C1577  N1973   1.416   .     S
C1577  C1592   1.412   .     A
C1578  N1979   1.445   .     S
C1578  C1591   1.417   .     A
C1578  C1609   1.427   .     A
C1579  C1590   1.413   .     A
C1579  C1612   1.418   .     A
C1579  N1985   1.415   .     S
C1580  C1589   1.416   .     A
C1580  N1991   1.450   .     S
C1580  C1611   1.423   .     A
C1581  C1588   1.412   .     A
C1581  N1997   1.416   .     S
C1581  C1614   1.419   .     A
C1582  C1587   1.417   .     A
C1582  N2003   1.443   .     S
C1582  C1613   1.427   .     A
C1583  C1586   1.413   .     A
C1583  N2009   1.415   .     S
C1583  C1616   1.417   .     A
C1584  C1615   1.421   .     A
C1584  C1585   1.416   .     A
C1584  N2015   1.450   .     S
C1585  N2021   1.415   .     S
C1585  C1618   1.439   .     A
C1586  C1617   1.417   .     A
C1586  N2027   1.436   .     S
C1587  N2033   1.425   .     S
C1587  C1620   1.430   .     A
C1588  C1619   1.415   .     A
C1588  N2039   1.435   .     S
C1589  N2045   1.417   .     S
C1589  C1622   1.437   .     A
C1590  C1621   1.418   .     A
C1590  N2051   1.435   .     S
C1591  C1624   1.430   .     A
C1591  N2057   1.427   .     S
C1592  C1623   1.413   .     A
C1592  N2063   1.437   .     S
C1593  C1625   1.409   .     A
C1594  C2250   1.435   .     S
C1594  C2374   1.415   .     S
C1596  C1628   1.419   .     A
C1596  C8      1.431   1_565 S
C1597  C2373   1.409   .     S
C1598  C1626   1.414   .     A
C1598  C2246   1.436   1_455 S
C1599  C1627   1.414   .     A
C1601  C1629   1.409   .     A
C1603  C1631   1.414   .     A
C1604  C2380   1.419   .     S
C1606  C1630   1.415   .     A
C1607  C2379   1.414   .     S
C1608  C1632   1.419   .     A
C1625  C1626   1.429   .     A
C1625  C2345   1.409   1_455 S
C1626  C2342   1.415   1_455 S
C1627  C1628   1.424   .     A
C1627  C99     1.413   1_565 S
C1628  C104    1.419   1_565 S
C1629  C109    1.409   1_565 S
C1629  C1630   1.429   1_556 S
C1630  C106    1.414   1_565 S
C1630  C1629   1.429   1_554 S
C1631  C2355   1.414   1_455 S
C1631  C1632   1.424   1_556 S
C1632  C2352   1.419   1_455 S
C1632  C1631   1.424   1_554 S
O1633  Zn1689  1.991   .     S
O1633  Zn1696  1.991   .     S
O1633  Zn1685  1.990   .     S
O1634  Zn1686  1.990   .     S
O1634  Zn1690  1.991   .     S
O1634  Zn1699  1.993   .     S
O1635  Zn1691  1.993   .     S
O1635  Zn1694  1.990   .     S
O1635  Zn1687  1.991   .     S
O1635  Zn2446  1.991   1_455 S
O1636  Zn2441  1.990   1_455 S
O1636  Zn1688  1.991   .     S
O1636  Zn1692  1.993   .     S
O1636  Zn1697  1.991   .     S
O1637  Zn1700  1.978   .     S
O1637  C41     1.307   1_565 S
O1638  Zn1699  1.978   .     S
O1639  Zn1694  1.979   .     S
O1640  Zn1693  1.979   .     S
O1640  C2288   1.306   .     S
O1641  Zn1696  1.979   .     S
O1642  Zn1695  1.979   .     S
O1643  Zn1698  1.979   .     S
O1643  C2287   1.308   .     S
O1644  Zn1697  1.979   .     S
O1645  Zn1692  1.978   .     S
O1646  Zn1691  1.978   .     S
O1646  C2290   1.304   1_455 S
O1647  Zn1686  1.979   .     S
O1648  Zn1685  1.979   .     S
O1649  Zn1688  1.979   .     S
O1650  Zn1687  1.979   .     S
O1650  C2290   1.306   1_455 S
O1651  Zn1690  1.979   .     S
O1652  Zn1689  1.979   .     S
O1653  Zn1696  1.986   .     S
O1654  Zn1695  1.986   .     S
O1655  Zn1698  1.986   .     S
O1656  Zn1697  1.986   .     S
O1657  Zn1700  1.986   .     S
O1658  Zn1699  1.986   .     S
O1659  Zn1694  1.986   .     S
O1660  Zn1693  1.986   .     S
O1661  Zn1695  1.986   .     S
O1662  Zn1696  1.986   .     S
O1663  Zn1693  1.986   .     S
O1664  Zn1694  1.986   .     S
O1665  Zn1699  1.985   .     S
O1666  Zn1700  1.985   .     S
O1667  Zn1697  1.987   .     S
O1668  Zn1698  1.987   .     S
O1669  Zn2436  1.986   .     S
O1670  Zn1687  1.986   .     S
O1671  Zn194   1.986   1_565 S
O1672  Zn1689  1.986   .     S
O1673  Zn1692  1.986   .     S
O1674  Zn2439  1.986   .     S
O1675  Zn1686  1.986   .     S
O1676  Zn189   1.986   1_565 S
O1677  Zn2435  1.986   .     S
O1678  Zn1688  1.986   .     S
O1679  Zn1685  1.986   .     S
O1680  Zn190   1.986   1_565 S
O1681  Zn1691  1.985   .     S
O1682  Zn2440  1.985   .     S
O1683  Zn193   1.987   1_565 S
O1684  Zn1690  1.987   .     S
Zn1687 O2425   1.986   1_455 S
Zn1688 O2417   1.986   1_455 S
Zn1691 O2422   1.986   1_455 S
Zn1692 O2430   1.985   1_455 S
Zn1693 O2384   1.990   .     S
Zn1695 O138    1.991   1_565 S
Zn1698 O2383   1.991   .     S
Zn1700 O137    1.993   1_565 S
O1701  C2450   1.411   1_455 S
C1702  H1703   1.111   .     S
C1702  H1704   1.110   .     S
C1702  C1705   1.519   .     S
C1702  O2449   1.411   .     S
C1705  H1706   1.111   .     S
C1705  C1708   1.516   .     S
C1705  H1707   1.112   .     S
C1708  H1711   1.110   .     S
C1708  H1709   1.114   .     S
C1708  H1710   1.107   .     S
O1712  C1713   1.402   .     S
C1713  H1714   1.113   .     S
C1713  C1716   1.515   .     S
C1713  H1715   1.121   .     S
C1716  H1717   1.113   .     S
C1716  H1718   1.114   .     S
C1716  C1719   1.505   .     S
C1719  H1720   1.111   .     S
C1719  H1722   1.113   .     S
C1719  H1721   1.092   .     S
C1724  H1725   1.111   .     S
C1724  C1727   1.521   .     S
C1724  H1726   1.111   .     S
C1724  O227    1.412   1_565 S
C1727  C1730   1.516   .     S
C1727  H1729   1.112   .     S
C1727  H1728   1.110   .     S
C1730  H1732   1.109   .     S
C1730  H1733   1.111   .     S
C1730  H1731   1.114   .     S
O1734  C1735   1.403   .     S
C1735  H1737   1.120   .     S
C1735  H1736   1.111   .     S
C1735  C1738   1.518   .     S
C1738  H1740   1.114   .     S
C1738  C1741   1.507   .     S
C1738  H1739   1.113   .     S
C1741  H1742   1.112   .     S
C1741  H1743   1.094   .     S
C1741  H1744   1.115   .     S
O1745  C2494   1.411   .     S
C1746  H1748   1.110   .     S
C1746  C1749   1.522   .     S
C1746  H1747   1.110   .     S
C1746  O2493   1.411   1_455 S
C1749  H1750   1.111   .     S
C1749  C1752   1.514   .     S
C1749  H1751   1.111   .     S
C1752  H1755   1.109   .     S
C1752  H1754   1.107   .     S
C1752  H1753   1.113   .     S
O1756  C1757   1.401   .     S
C1757  H1759   1.120   .     S
C1757  C1760   1.514   .     S
C1757  H1758   1.111   .     S
C1760  H1761   1.113   .     S
C1760  C1763   1.505   .     S
C1760  H1762   1.114   .     S
C1763  H1766   1.114   .     S
C1763  H1764   1.111   .     S
C1763  H1765   1.092   .     S
O1767  C272    1.412   1_565 S
C1768  H1770   1.111   .     S
C1768  H1769   1.111   .     S
C1768  C1771   1.521   .     S
C1771  C1774   1.517   .     S
C1771  H1773   1.112   .     S
C1771  H1772   1.110   .     S
C1774  H1777   1.110   .     S
C1774  H1775   1.113   .     S
C1774  H1776   1.109   .     S
O1778  C1779   1.400   .     S
C1779  H1780   1.110   .     S
C1779  H1781   1.120   .     S
C1779  C1782   1.518   .     S
C1782  C1785   1.502   .     S
C1782  H1784   1.112   .     S
C1782  H1783   1.113   .     S
C1785  H1788   1.113   .     S
C1785  H1786   1.111   .     S
C1785  H1787   1.091   .     S
O1789  C1790   1.412   .     S
C1790  H1791   1.110   .     S
C1790  C1793   1.523   .     S
C1790  H1792   1.111   .     S
C1793  H1795   1.112   .     S
C1793  H1794   1.110   .     S
C1793  C1796   1.515   .     S
C1796  H1797   1.114   .     S
C1796  H1799   1.110   .     S
C1796  H1798   1.108   .     S
O1800  C1801   1.401   .     S
C1801  H1803   1.120   .     S
C1801  H1802   1.112   .     S
C1801  C1804   1.514   .     S
C1804  H1806   1.114   .     S
C1804  H1805   1.112   .     S
C1804  C1807   1.506   .     S
C1807  H1809   1.091   .     S
C1807  H1808   1.110   .     S
C1807  H1810   1.112   .     S
O1811  C1812   1.412   .     S
C1812  H1813   1.111   .     S
C1812  C1815   1.521   .     S
C1812  H1814   1.111   .     S
C1815  H1817   1.112   .     S
C1815  H1816   1.109   .     S
C1815  C1818   1.516   .     S
C1818  H1820   1.108   .     S
C1818  H1821   1.109   .     S
C1818  H1819   1.113   .     S
O1822  C1823   1.401   .     S
C1823  H1825   1.120   .     S
C1823  H1824   1.111   .     S
C1823  C1826   1.517   .     S
C1826  H1827   1.112   .     S
C1826  H1828   1.113   .     S
C1826  C1829   1.504   .     S
C1829  H1830   1.110   .     S
C1829  H1832   1.113   .     S
C1829  H1831   1.092   .     S
O1833  C1834   1.411   .     S
C1834  H1836   1.110   .     S
C1834  C1837   1.520   .     S
C1834  H1835   1.110   .     S
C1837  H1839   1.111   .     S
C1837  C1840   1.515   .     S
C1837  H1838   1.110   .     S
C1840  H1842   1.107   .     S
C1840  H1843   1.109   .     S
C1840  H1841   1.113   .     S
O1844  C1845   1.400   .     S
C1845  H1846   1.111   .     S
C1845  C1848   1.515   .     S
C1845  H1847   1.120   .     S
C1848  H1849   1.113   .     S
C1848  C1851   1.504   .     S
C1848  H1850   1.114   .     S
C1851  H1853   1.091   .     S
C1851  H1852   1.110   .     S
C1851  H1854   1.113   .     S
O1855  C1856   1.411   .     S
C1856  H1857   1.111   .     S
C1856  H1858   1.111   .     S
C1856  C1859   1.518   .     S
C1859  C1862   1.516   .     S
C1859  H1860   1.110   .     S
C1859  H1861   1.112   .     S
C1862  H1865   1.109   .     S
C1862  H1863   1.113   .     S
C1862  H1864   1.108   .     S
O1866  C1867   1.403   .     S
C1867  C1870   1.517   .     S
C1867  H1868   1.111   .     S
C1867  H1869   1.120   .     S
C1870  H1871   1.113   .     S
C1870  C1873   1.505   .     S
C1870  H1872   1.112   .     S
C1873  H1876   1.114   .     S
C1873  H1875   1.092   .     S
C1873  H1874   1.111   .     S
N1877  H1878   1.021   .     S
N1877  C1879   1.451   .     S
C1879  H1880   1.104   .     S
C1879  H1882   1.112   .     S
C1879  H1881   1.115   .     S
N1883  C1885   1.463   .     S
N1883  H1884   1.030   .     S
C1885  H1888   1.113   .     S
C1885  H1887   1.116   .     S
C1885  H1886   1.099   .     S
N1889  H1890   1.016   .     S
N1889  C1891   1.451   .     S
C1891  H1894   1.116   .     S
C1891  H1892   1.103   .     S
C1891  H1893   1.114   .     S
N1895  C1897   1.464   .     S
N1895  H1896   1.029   .     S
C1897  H1899   1.118   .     S
C1897  H1898   1.104   .     S
C1897  H1900   1.111   .     S
N1901  H1902   1.020   .     S
N1901  C1903   1.452   .     S
C1903  H1906   1.112   .     S
C1903  H1905   1.114   .     S
C1903  H1904   1.105   .     S
N1907  C1909   1.463   .     S
N1907  H1908   1.030   .     S
C1909  H1911   1.117   .     S
C1909  H1910   1.101   .     S
C1909  H1912   1.113   .     S
N1913  C1915   1.450   .     S
N1913  H1914   1.016   .     S
C1915  H1918   1.116   .     S
C1915  H1917   1.113   .     S
C1915  H1916   1.103   .     S
N1919  H1920   1.030   .     S
N1919  C1921   1.465   .     S
C1921  H1922   1.103   .     S
C1921  H1924   1.111   .     S
C1921  H1923   1.118   .     S
N1925  H1926   1.010   .     S
N1925  C1927   1.448   .     S
C1927  H1930   1.119   .     S
C1927  H1928   1.119   .     S
C1927  H1929   1.121   .     S
N1931  C1933   1.457   .     S
N1931  H1932   1.032   .     S
C1933  H1935   1.112   .     S
C1933  H1934   1.113   .     S
C1933  H1936   1.109   .     S
N1937  C1939   1.443   .     S
N1937  H1938   1.018   .     S
C1939  H1940   1.114   .     S
C1939  H1941   1.111   .     S
C1939  H1942   1.106   .     S
N1943  H1944   1.034   .     S
N1943  C1945   1.457   .     S
C1945  H1947   1.113   .     S
C1945  H1948   1.109   .     S
C1945  H1946   1.113   .     S
N1949  C1951   1.447   .     S
N1949  H1950   1.012   .     S
C1951  H1953   1.113   .     S
C1951  H1952   1.117   .     S
C1951  H1954   1.110   .     S
N1955  H1956   1.032   .     S
N1955  C1957   1.457   .     S
C1957  H1960   1.109   .     S
C1957  H1958   1.113   .     S
C1957  H1959   1.112   .     S
N1961  C1963   1.443   .     S
N1961  H1962   1.017   .     S
C1963  H1966   1.107   .     S
C1963  H1964   1.114   .     S
C1963  H1965   1.111   .     S
N1967  C1969   1.456   .     S
N1967  H1968   1.034   .     S
C1969  H1972   1.109   .     S
C1969  H1970   1.112   .     S
C1969  H1971   1.113   .     S
N1973  C1975   1.452   .     S
N1973  H1974   1.021   .     S
C1975  H1978   1.113   .     S
C1975  H1976   1.105   .     S
C1975  H1977   1.115   .     S
N1979  C1981   1.463   .     S
N1979  H1980   1.030   .     S
C1981  H1982   1.099   .     S
C1981  H1984   1.113   .     S
C1981  H1983   1.117   .     S
N1985  H1986   1.016   .     S
N1985  C1987   1.451   .     S
C1987  H1989   1.113   .     S
C1987  H1990   1.116   .     S
C1987  H1988   1.103   .     S
N1991  H1992   1.029   .     S
N1991  C1993   1.464   .     S
C1993  H1995   1.118   .     S
C1993  H1996   1.111   .     S
C1993  H1994   1.104   .     S
N1997  C1999   1.452   .     S
N1997  H1998   1.020   .     S
C1999  H2001   1.114   .     S
C1999  H2000   1.105   .     S
C1999  H2002   1.113   .     S
N2003  C2005   1.462   .     S
N2003  H2004   1.030   .     S
C2005  H2006   1.100   .     S
C2005  H2007   1.117   .     S
C2005  H2008   1.112   .     S
N2009  C2011   1.452   .     S
N2009  H2010   1.018   .     S
C2011  H2013   1.114   .     S
C2011  H2014   1.118   .     S
C2011  H2012   1.104   .     S
N2015  H2016   1.029   .     S
N2015  C2017   1.465   .     S
C2017  H2019   1.118   .     S
C2017  H2020   1.111   .     S
C2017  H2018   1.103   .     S
N2021  H2022   1.002   .     S
N2021  C2023   1.447   .     S
C2023  H2026   1.110   .     S
C2023  H2025   1.111   .     S
C2023  H2024   1.109   .     S
N2027  H2028   1.033   .     S
N2027  C2029   1.458   .     S
C2029  H2031   1.112   .     S
C2029  H2030   1.113   .     S
C2029  H2032   1.109   .     S
N2033  C2035   1.443   .     S
N2033  H2034   1.017   .     S
C2035  H2038   1.106   .     S
C2035  H2036   1.114   .     S
C2035  H2037   1.111   .     S
N2039  H2040   1.034   .     S
N2039  C2041   1.457   .     S
C2041  H2044   1.109   .     S
C2041  H2043   1.113   .     S
C2041  H2042   1.113   .     S
N2045  C2047   1.446   .     S
N2045  H2046   1.018   .     S
C2047  H2049   1.110   .     S
C2047  H2050   1.108   .     S
C2047  H2048   1.113   .     S
N2051  C2053   1.458   .     S
N2051  H2052   1.032   .     S
C2053  H2054   1.114   .     S
C2053  H2056   1.110   .     S
C2053  H2055   1.113   .     S
N2057  C2059   1.443   .     S
N2057  H2058   1.018   .     S
C2059  H2060   1.114   .     S
C2059  H2061   1.111   .     S
C2059  H2062   1.107   .     S
N2063  H2064   1.034   .     S
N2063  C2065   1.457   .     S
C2065  H2068   1.109   .     S
C2065  H2067   1.113   .     S
C2065  H2066   1.112   .     S
O2069  C2070   1.419   .     S
C2070  H2071   1.111   .     S
C2070  C2073   1.503   .     S
C2070  H2072   1.116   .     S
C2073  C2076   1.529   .     S
C2073  H2074   1.114   .     S
C2073  H2075   1.111   .     S
C2076  H2077   1.109   .     S
C2076  H2079   1.112   .     S
C2076  H2078   1.109   .     S
O2080  C2081   1.417   .     S
C2081  H2082   1.115   .     S
C2081  H2083   1.108   .     S
C2081  C2084   1.508   .     S
C2084  C2087   1.529   .     S
C2084  H2085   1.111   .     S
C2084  H2086   1.109   .     S
C2087  H2090   1.115   .     S
C2087  H2089   1.107   .     S
C2087  H2088   1.106   .     S
O2091  C2092   1.418   .     S
C2092  H2093   1.112   .     S
C2092  C2095   1.506   .     S
C2092  H2094   1.117   .     S
C2095  C2098   1.525   .     S
C2095  H2097   1.111   .     S
C2095  H2096   1.112   .     S
C2098  H2100   1.105   .     S
C2098  H2101   1.111   .     S
C2098  H2099   1.109   .     S
O2102  C2103   1.418   .     S
C2103  C2106   1.516   .     S
C2103  H2104   1.118   .     S
C2103  H2105   1.108   .     S
C2106  C2109   1.531   .     S
C2106  H2107   1.116   .     S
C2106  H2108   1.112   .     S
C2109  H2110   1.108   .     S
C2109  H2111   1.109   .     S
C2109  H2112   1.114   .     S
O2113  C2114   1.420   .     S
C2114  H2115   1.111   .     S
C2114  H2116   1.116   .     S
C2114  C2117   1.503   .     S
C2117  H2118   1.114   .     S
C2117  C2120   1.529   .     S
C2117  H2119   1.111   .     S
C2120  H2123   1.113   .     S
C2120  H2122   1.109   .     S
C2120  H2121   1.110   .     S
O2124  C2125   1.418   .     S
C2125  H2127   1.106   .     S
C2125  H2126   1.115   .     S
C2125  C2128   1.515   .     S
C2128  C2131   1.528   .     S
C2128  H2130   1.109   .     S
C2128  H2129   1.111   .     S
C2131  H2133   1.110   .     S
C2131  H2132   1.108   .     S
C2131  H2134   1.113   .     S
O2135  C2136   1.419   .     S
C2136  H2137   1.112   .     S
C2136  C2139   1.506   .     S
C2136  H2138   1.117   .     S
C2139  C2142   1.527   .     S
C2139  H2140   1.113   .     S
C2139  H2141   1.111   .     S
C2142  H2145   1.111   .     S
C2142  H2144   1.107   .     S
C2142  H2143   1.110   .     S
O2146  C2147   1.417   .     S
C2147  C2150   1.515   .     S
C2147  H2148   1.113   .     S
C2147  H2149   1.104   .     S
C2150  H2152   1.108   .     S
C2150  C2153   1.528   .     S
C2150  H2151   1.113   .     S
C2153  H2155   1.109   .     S
C2153  H2154   1.107   .     S
C2153  H2156   1.114   .     S
O2157  C2158   1.420   .     S
C2158  C2161   1.504   .     S
C2158  H2160   1.116   .     S
C2158  H2159   1.111   .     S
C2161  H2163   1.111   .     S
C2161  C2164   1.529   .     S
C2161  H2162   1.114   .     S
C2164  H2165   1.110   .     S
C2164  H2167   1.113   .     S
C2164  H2166   1.108   .     S
O2168  C2169   1.417   .     S
C2169  H2170   1.116   .     S
C2169  C2172   1.516   .     S
C2169  H2171   1.105   .     S
C2172  H2173   1.111   .     S
C2172  C2175   1.526   .     S
C2172  H2174   1.110   .     S
C2175  H2177   1.107   .     S
C2175  H2176   1.107   .     S
C2175  H2178   1.113   .     S
O2179  C2180   1.419   .     S
C2180  H2181   1.112   .     S
C2180  C2183   1.505   .     S
C2180  H2182   1.117   .     S
C2183  C2186   1.526   .     S
C2183  H2185   1.111   .     S
C2183  H2184   1.112   .     S
C2186  H2188   1.106   .     S
C2186  H2187   1.109   .     S
C2186  H2189   1.111   .     S
O2190  C2191   1.417   .     S
C2191  C2194   1.515   .     S
C2191  H2192   1.113   .     S
C2191  H2193   1.104   .     S
C2194  H2196   1.108   .     S
C2194  C2197   1.527   .     S
C2194  H2195   1.113   .     S
C2197  H2198   1.107   .     S
C2197  H2199   1.108   .     S
C2197  H2200   1.113   .     S
O2201  C2202   1.419   .     S
C2202  H2204   1.116   .     S
C2202  C2205   1.504   .     S
C2202  H2203   1.111   .     S
C2205  C2208   1.530   .     S
C2205  H2207   1.111   .     S
C2205  H2206   1.114   .     S
C2208  H2209   1.109   .     S
C2208  H2210   1.109   .     S
C2208  H2211   1.112   .     S
O2212  C2213   1.417   .     S
C2213  C2216   1.511   .     S
C2213  H2215   1.106   .     S
C2213  H2214   1.114   .     S
C2216  C2219   1.529   .     S
C2216  H2217   1.110   .     S
C2216  H2218   1.108   .     S
C2219  H2220   1.107   .     S
C2219  H2221   1.108   .     S
C2219  H2222   1.113   .     S
O2223  C2224   1.419   .     S
C2224  C2227   1.506   .     S
C2224  H2226   1.117   .     S
C2224  H2225   1.112   .     S
C2227  C2230   1.526   .     S
C2227  H2228   1.113   .     S
C2227  H2229   1.111   .     S
C2230  H2231   1.110   .     S
C2230  H2233   1.113   .     S
C2230  H2232   1.106   .     S
O2234  C2235   1.417   .     S
C2235  C2238   1.514   .     S
C2235  H2236   1.114   .     S
C2235  H2237   1.106   .     S
C2238  H2240   1.110   .     S
C2238  H2239   1.114   .     S
C2238  C2241   1.530   .     S
C2241  H2243   1.108   .     S
C2241  H2242   1.107   .     S
C2241  H2244   1.114   .     S
C2245  C2345   1.428   .     A
C2245  O2817   1.388   .     S
C2245  C1513   1.406   1_655 S
C2246  O2828   1.390   .     S
C2246  C1514   1.404   1_655 S
C2246  C1598   1.436   1_655 S
C2247  C2347   1.424   .     A
C2247  O2839   1.391   .     S
C2247  C767    1.408   1_565 S
C2248  O2850   1.392   .     S
C2248  C2264   1.405   .     A
C2248  C852    1.431   1_565 S
C2249  C2341   1.424   .     A
C2249  O2861   1.389   .     S
C2249  C2261   1.404   .     A
C2250  O2872   1.390   .     S
C2250  C2262   1.405   .     A
C2251  C2343   1.421   .     A
C2251  C2263   1.405   .     A
C2251  O2883   1.390   .     S
C2252  O2894   1.393   .     S
C2253  C2353   1.426   .     A
C2253  O2905   1.389   .     S
C2254  O2916   1.389   .     S
C2254  C2266   1.404   .     A
C2254  C2354   1.434   .     A
C2255  C2355   1.422   .     A
C2255  O2927   1.391   .     S
C2255  C1519   1.406   1_655 S
C2256  O2938   1.392   .     S
C2256  C2356   1.431   .     A
C2256  C2268   1.405   .     A
C2257  C2265   1.405   .     A
C2257  C2349   1.425   .     A
C2257  O2949   1.389   .     S
C2258  O2960   1.389   .     S
C2258  C2350   1.436   .     A
C2259  O2971   1.391   .     S
C2259  C2351   1.425   .     A
C2259  C2267   1.408   .     A
C2260  O2982   1.393   .     S
C2260  C2352   1.430   .     A
C2260  C1520   1.404   1_655 S
C2261  C2287   1.489   .     S
C2262  C2288   1.489   .     S
C2263  C2285   1.487   .     S
C2264  C2286   1.484   .     S
C2264  C756    1.405   1_565 S
C2265  C757    1.405   1_565 S
C2265  C795    1.487   1_565 S
C2266  C2292   1.490   .     S
C2266  C762    1.404   1_565 S
C2267  C2289   1.488   .     S
C2269  C2341   1.408   .     A
C2269  O2449   1.385   .     S
C2269  C2274   1.389   .     A
C2270  O2460   1.376   .     S
C2270  C2342   1.417   .     A
C2270  C2273   1.393   .     A
C2271  C2343   1.409   .     A
C2271  O2471   1.385   .     S
C2271  C2276   1.385   .     A
C2272  O2482   1.377   .     S
C2272  C2275   1.386   .     A
C2272  C2344   1.421   .     A
C2273  O2493   1.384   .     S
C2273  C2345   1.410   .     A
C2274  C2346   1.419   .     A
C2274  O2504   1.374   .     S
C2275  O2515   1.385   .     S
C2275  C2347   1.412   .     A
C2276  C2348   1.420   .     A
C2276  O2526   1.375   .     S
C2277  C2349   1.408   .     A
C2277  O2537   1.384   .     S
C2277  C2282   1.391   1_556 S
C2278  C2350   1.418   .     A
C2278  O2548   1.374   .     S
C2278  C2281   1.390   1_554 S
C2279  C2351   1.412   .     A
C2279  O2559   1.384   .     S
C2279  C2284   1.387   1_556 S
C2280  C2352   1.421   .     A
C2280  O2570   1.376   .     S
C2280  C2283   1.385   1_554 S
C2281  C2353   1.409   .     A
C2281  O2581   1.384   .     S
C2281  C2278   1.390   1_556 S
C2282  C2354   1.417   .     A
C2282  O2592   1.374   .     S
C2282  C2277   1.391   1_554 S
C2283  O2603   1.385   .     S
C2283  C2355   1.412   .     A
C2283  C2280   1.385   1_556 S
C2284  C2356   1.420   .     A
C2284  O2614   1.376   .     S
C2284  C2279   1.387   1_554 S
C2285  O2389   1.307   .     A
C2286  O2390   1.305   .     A
C2286  O890    1.306   1_565 S
C2287  O2387   1.305   .     A
C2288  O2392   1.305   .     A
C2289  O2393   1.307   .     A
C2289  O2397   1.308   .     A
C2290  C1520   1.483   1_655 S
C2290  O1646   1.304   1_655 S
C2290  O1650   1.306   1_655 S
C2291  O2395   1.307   .     S
C2291  O2399   1.305   .     S
C2292  O900    1.306   1_565 A
C2292  O904    1.305   1_565 A
C2293  C2359   1.484   .     S
C2293  O2401   1.297   .     A
C2293  O2427   1.309   .     A
C2294  O2428   1.298   .     A
C2294  O2402   1.321   .     A
C2294  C2360   1.512   .     S
C2295  O2425   1.308   .     A
C2295  O2403   1.299   .     A
C2295  C2361   1.487   .     S
C2296  O2426   1.298   .     A
C2296  O2404   1.321   .     A
C2296  C2362   1.512   .     S
C2297  C2363   1.485   .     S
C2297  O2431   1.311   .     A
C2297  O2405   1.297   .     A
C2298  O2406   1.321   .     A
C2298  O2432   1.300   .     A
C2298  C2364   1.511   .     S
C2299  O2407   1.299   .     A
C2299  O2429   1.309   .     A
C2299  C2357   1.487   .     S
C2300  O2408   1.322   .     A
C2300  O2430   1.298   .     A
C2300  C2358   1.513   .     S
C2301  C2367   1.487   .     S
C2301  O2409   1.308   .     A
C2301  O2419   1.299   .     A
C2302  O2410   1.298   .     A
C2302  C2368   1.512   .     S
C2302  O2420   1.322   .     A
C2303  O2411   1.310   .     A
C2303  C2369   1.485   .     S
C2303  O2417   1.297   .     A
C2304  O2418   1.321   .     A
C2304  O2412   1.299   .     A
C2304  C2370   1.512   .     S
C2305  C2371   1.487   .     S
C2305  O2423   1.299   .     A
C2305  O2413   1.308   .     A
C2306  O2414   1.299   .     A
C2306  O2424   1.322   .     A
C2306  C2372   1.513   .     S
C2307  O2415   1.311   .     A
C2307  C2365   1.485   .     S
C2307  O2421   1.297   .     A
C2308  O2416   1.300   .     A
C2308  O2422   1.320   .     A
C2308  C2366   1.511   .     S
C2309  C2372   1.417   .     A
C2309  C2324   1.412   .     A
C2309  N2625   1.417   .     S
C2310  C2323   1.417   .     A
C2310  N2631   1.444   .     S
C2310  C2371   1.427   .     A
C2311  N2637   1.417   .     S
C2311  C2370   1.419   .     A
C2311  C2322   1.413   .     A
C2312  C2321   1.417   .     A
C2312  N2643   1.450   .     S
C2312  C2369   1.424   .     A
C2313  N2649   1.414   .     S
C2313  C2320   1.412   .     A
C2313  C2368   1.418   .     A
C2314  N2655   1.444   .     S
C2314  C2367   1.427   .     A
C2314  C2319   1.417   .     A
C2315  C2366   1.415   .     A
C2315  N2661   1.412   .     S
C2315  C2318   1.413   .     A
C2316  C2317   1.416   .     A
C2316  N2667   1.450   .     S
C2316  C2365   1.421   .     A
C2317  C2364   1.443   .     A
C2317  N2673   1.417   .     S
C2318  N2679   1.435   .     S
C2318  C2363   1.417   .     A
C2319  N2685   1.425   .     S
C2319  C2362   1.430   .     A
C2320  N2691   1.435   .     S
C2320  C2361   1.414   .     A
C2321  N2697   1.417   .     S
C2321  C2360   1.436   .     A
C2322  C2359   1.418   .     A
C2322  N2703   1.434   .     S
C2323  N2709   1.427   .     S
C2323  C2358   1.430   .     A
C2324  N2715   1.437   .     S
C2324  C2357   1.412   .     A
C2325  C2358   1.415   .     A
C2325  N2721   1.416   .     S
C2325  C2340   1.412   .     A
C2326  N2727   1.445   .     S
C2326  C2339   1.417   .     A
C2326  C2357   1.427   .     A
C2327  C2338   1.413   .     A
C2327  C2360   1.418   .     A
C2327  N2733   1.415   .     S
C2328  C2337   1.416   .     A
C2328  N2739   1.450   .     S
C2328  C2359   1.423   .     A
C2329  C2336   1.412   .     A
C2329  N2745   1.416   .     S
C2329  C2362   1.419   .     A
C2330  C2335   1.417   .     A
C2330  N2751   1.443   .     S
C2330  C2361   1.427   .     A
C2331  C2334   1.413   .     A
C2331  N2757   1.415   .     S
C2331  C2364   1.417   .     A
C2332  C2363   1.421   .     A
C2332  C2333   1.416   .     A
C2332  N2763   1.450   .     S
C2333  N2769   1.415   .     S
C2333  C2366   1.439   .     A
C2334  C2365   1.417   .     A
C2334  N2775   1.436   .     S
C2335  N2781   1.425   .     S
C2335  C2368   1.430   .     A
C2336  C2367   1.415   .     A
C2336  N2787   1.435   .     S
C2337  N2793   1.417   .     S
C2337  C2370   1.437   .     A
C2338  C2369   1.418   .     A
C2338  N2799   1.435   .     S
C2339  C2372   1.430   .     A
C2339  N2805   1.427   .     S
C2340  C2371   1.413   .     A
C2340  N2811   1.437   .     S
C2341  C2373   1.409   .     A
C2342  C1502   1.435   1_655 S
C2342  C1626   1.415   1_655 S
C2344  C2376   1.419   .     A
C2344  C756    1.431   1_565 S
C2345  C1625   1.409   1_655 S
C2346  C2374   1.414   .     A
C2347  C2375   1.414   .     A
C2349  C2377   1.409   .     A
C2351  C2379   1.414   .     A
C2352  C1632   1.419   1_655 S
C2354  C2378   1.415   .     A
C2355  C1631   1.414   1_655 S
C2356  C2380   1.419   .     A
C2373  C2374   1.429   .     A
C2375  C2376   1.424   .     A
C2375  C847    1.413   1_565 S
C2376  C852    1.419   1_565 S
C2377  C857    1.409   1_565 S
C2377  C2378   1.429   1_556 S
C2378  C854    1.414   1_565 S
C2378  C2377   1.429   1_554 S
C2379  C2380   1.424   1_556 S
C2380  C2379   1.424   1_554 S
O2381  Zn2437  1.991   .     S
O2381  Zn2444  1.991   .     S
O2381  Zn2433  1.990   .     S
O2382  Zn2434  1.990   .     S
O2382  Zn2438  1.991   .     S
O2382  Zn2447  1.993   .     S
O2383  Zn2439  1.993   .     S
O2383  Zn2442  1.990   .     S
O2383  Zn2435  1.991   .     S
O2384  Zn2436  1.991   .     S
O2384  Zn2440  1.993   .     S
O2384  Zn2445  1.991   .     S
O2385  Zn2448  1.978   .     S
O2385  C789    1.307   1_565 S
O2386  Zn2447  1.978   .     S
O2387  Zn2442  1.979   .     S
O2388  Zn2441  1.979   .     S
O2388  C1540   1.306   1_655 S
O2389  Zn2444  1.979   .     S
O2390  Zn2443  1.979   .     S
O2391  Zn2446  1.979   .     S
O2391  C1539   1.308   1_655 S
O2392  Zn2445  1.979   .     S
O2393  Zn2440  1.978   .     S
O2394  Zn2439  1.978   .     S
O2395  Zn2434  1.979   .     S
O2396  Zn2433  1.979   .     S
O2397  Zn2436  1.979   .     S
O2398  Zn2435  1.979   .     S
O2399  Zn2438  1.979   .     S
O2400  Zn2437  1.979   .     S
O2401  Zn2444  1.986   .     S
O2402  Zn2443  1.986   .     S
O2403  Zn2446  1.986   .     S
O2404  Zn2445  1.986   .     S
O2405  Zn2448  1.986   .     S
O2406  Zn2447  1.986   .     S
O2407  Zn2442  1.986   .     S
O2408  Zn2441  1.986   .     S
O2409  Zn2443  1.986   .     S
O2410  Zn2444  1.986   .     S
O2411  Zn2441  1.986   .     S
O2412  Zn2442  1.986   .     S
O2413  Zn2447  1.985   .     S
O2414  Zn2448  1.985   .     S
O2415  Zn2445  1.987   .     S
O2416  Zn2446  1.987   .     S
O2417  Zn1688  1.986   1_655 S
O2418  Zn2435  1.986   .     S
O2419  Zn942   1.986   1_565 S
O2420  Zn2437  1.986   .     S
O2421  Zn2440  1.986   .     S
O2422  Zn1691  1.986   1_655 S
O2423  Zn2434  1.986   .     S
O2424  Zn937   1.986   1_565 S
O2425  Zn1687  1.986   1_655 S
O2426  Zn2436  1.986   .     S
O2427  Zn2433  1.986   .     S
O2428  Zn938   1.986   1_565 S
O2429  Zn2439  1.985   .     S
O2430  Zn1692  1.985   1_655 S
O2431  Zn941   1.987   1_565 S
O2432  Zn2438  1.987   .     S
Zn2441 O1636   1.990   1_655 S
Zn2443 O886    1.991   1_565 S
Zn2446 O1635   1.991   1_655 S
Zn2448 O885    1.993   1_565 S
C2450  H2451   1.111   .     S
C2450  H2452   1.110   .     S
C2450  C2453   1.519   .     S
C2450  O1701   1.411   1_655 S
C2453  H2454   1.111   .     S
C2453  C2456   1.516   .     S
C2453  H2455   1.112   .     S
C2456  H2459   1.110   .     S
C2456  H2457   1.114   .     S
C2456  H2458   1.107   .     S
O2460  C2461   1.402   .     S
C2461  H2462   1.113   .     S
C2461  C2464   1.515   .     S
C2461  H2463   1.121   .     S
C2464  H2465   1.113   .     S
C2464  H2466   1.114   .     S
C2464  C2467   1.505   .     S
C2467  H2468   1.111   .     S
C2467  H2470   1.113   .     S
C2467  H2469   1.092   .     S
C2472  H2473   1.111   .     S
C2472  C2475   1.521   .     S
C2472  H2474   1.111   .     S
C2472  O975    1.412   1_565 S
C2475  C2478   1.516   .     S
C2475  H2477   1.112   .     S
C2475  H2476   1.110   .     S
C2478  H2480   1.109   .     S
C2478  H2481   1.111   .     S
C2478  H2479   1.114   .     S
O2482  C2483   1.403   .     S
C2483  H2485   1.120   .     S
C2483  H2484   1.111   .     S
C2483  C2486   1.518   .     S
C2486  H2488   1.114   .     S
C2486  C2489   1.507   .     S
C2486  H2487   1.113   .     S
C2489  H2490   1.112   .     S
C2489  H2491   1.094   .     S
C2489  H2492   1.115   .     S
O2493  C1746   1.411   1_655 S
C2494  H2496   1.110   .     S
C2494  C2497   1.522   .     S
C2494  H2495   1.110   .     S
C2497  H2498   1.111   .     S
C2497  C2500   1.514   .     S
C2497  H2499   1.111   .     S
C2500  H2503   1.109   .     S
C2500  H2502   1.107   .     S
C2500  H2501   1.113   .     S
O2504  C2505   1.401   .     S
C2505  H2507   1.120   .     S
C2505  C2508   1.514   .     S
C2505  H2506   1.111   .     S
C2508  H2509   1.113   .     S
C2508  C2511   1.505   .     S
C2508  H2510   1.114   .     S
C2511  H2514   1.114   .     S
C2511  H2512   1.111   .     S
C2511  H2513   1.092   .     S
O2515  C1020   1.412   1_565 S
C2516  H2518   1.111   .     S
C2516  H2517   1.111   .     S
C2516  C2519   1.521   .     S
C2519  C2522   1.517   .     S
C2519  H2521   1.112   .     S
C2519  H2520   1.110   .     S
C2522  H2525   1.110   .     S
C2522  H2523   1.113   .     S
C2522  H2524   1.109   .     S
O2526  C2527   1.400   .     S
C2527  H2528   1.110   .     S
C2527  H2529   1.120   .     S
C2527  C2530   1.518   .     S
C2530  C2533   1.502   .     S
C2530  H2532   1.112   .     S
C2530  H2531   1.113   .     S
C2533  H2536   1.113   .     S
C2533  H2534   1.111   .     S
C2533  H2535   1.091   .     S
O2537  C2538   1.412   .     S
C2538  H2539   1.110   .     S
C2538  C2541   1.523   .     S
C2538  H2540   1.111   .     S
C2541  H2543   1.112   .     S
C2541  H2542   1.110   .     S
C2541  C2544   1.515   .     S
C2544  H2545   1.114   .     S
C2544  H2547   1.110   .     S
C2544  H2546   1.108   .     S
O2548  C2549   1.401   .     S
C2549  H2551   1.120   .     S
C2549  H2550   1.112   .     S
C2549  C2552   1.514   .     S
C2552  H2554   1.114   .     S
C2552  H2553   1.112   .     S
C2552  C2555   1.506   .     S
C2555  H2557   1.091   .     S
C2555  H2556   1.110   .     S
C2555  H2558   1.112   .     S
O2559  C2560   1.412   .     S
C2560  H2561   1.111   .     S
C2560  C2563   1.521   .     S
C2560  H2562   1.111   .     S
C2563  H2565   1.112   .     S
C2563  H2564   1.109   .     S
C2563  C2566   1.516   .     S
C2566  H2568   1.108   .     S
C2566  H2569   1.109   .     S
C2566  H2567   1.113   .     S
O2570  C2571   1.401   .     S
C2571  H2573   1.120   .     S
C2571  H2572   1.111   .     S
C2571  C2574   1.517   .     S
C2574  H2575   1.112   .     S
C2574  H2576   1.113   .     S
C2574  C2577   1.504   .     S
C2577  H2578   1.110   .     S
C2577  H2580   1.113   .     S
C2577  H2579   1.092   .     S
O2581  C2582   1.411   .     S
C2582  H2584   1.110   .     S
C2582  C2585   1.520   .     S
C2582  H2583   1.110   .     S
C2585  H2587   1.111   .     S
C2585  C2588   1.515   .     S
C2585  H2586   1.110   .     S
C2588  H2590   1.107   .     S
C2588  H2591   1.109   .     S
C2588  H2589   1.113   .     S
O2592  C2593   1.400   .     S
C2593  H2594   1.111   .     S
C2593  C2596   1.515   .     S
C2593  H2595   1.120   .     S
C2596  H2597   1.113   .     S
C2596  C2599   1.504   .     S
C2596  H2598   1.114   .     S
C2599  H2601   1.091   .     S
C2599  H2600   1.110   .     S
C2599  H2602   1.113   .     S
O2603  C2604   1.411   .     S
C2604  H2605   1.111   .     S
C2604  H2606   1.111   .     S
C2604  C2607   1.518   .     S
C2607  C2610   1.516   .     S
C2607  H2608   1.110   .     S
C2607  H2609   1.112   .     S
C2610  H2613   1.109   .     S
C2610  H2611   1.113   .     S
C2610  H2612   1.108   .     S
O2614  C2615   1.403   .     S
C2615  C2618   1.517   .     S
C2615  H2616   1.111   .     S
C2615  H2617   1.120   .     S
C2618  H2619   1.113   .     S
C2618  C2621   1.505   .     S
C2618  H2620   1.112   .     S
C2621  H2624   1.114   .     S
C2621  H2623   1.092   .     S
C2621  H2622   1.111   .     S
N2625  H2626   1.021   .     S
N2625  C2627   1.451   .     S
C2627  H2628   1.104   .     S
C2627  H2630   1.112   .     S
C2627  H2629   1.115   .     S
N2631  C2633   1.463   .     S
N2631  H2632   1.030   .     S
C2633  H2636   1.113   .     S
C2633  H2635   1.116   .     S
C2633  H2634   1.099   .     S
N2637  H2638   1.016   .     S
N2637  C2639   1.451   .     S
C2639  H2642   1.116   .     S
C2639  H2640   1.103   .     S
C2639  H2641   1.114   .     S
N2643  C2645   1.464   .     S
N2643  H2644   1.029   .     S
C2645  H2647   1.118   .     S
C2645  H2646   1.104   .     S
C2645  H2648   1.111   .     S
N2649  H2650   1.020   .     S
N2649  C2651   1.452   .     S
C2651  H2654   1.112   .     S
C2651  H2653   1.114   .     S
C2651  H2652   1.105   .     S
N2655  C2657   1.463   .     S
N2655  H2656   1.030   .     S
C2657  H2659   1.117   .     S
C2657  H2658   1.101   .     S
C2657  H2660   1.113   .     S
N2661  C2663   1.450   .     S
N2661  H2662   1.016   .     S
C2663  H2666   1.116   .     S
C2663  H2665   1.113   .     S
C2663  H2664   1.103   .     S
N2667  H2668   1.030   .     S
N2667  C2669   1.465   .     S
C2669  H2670   1.103   .     S
C2669  H2672   1.111   .     S
C2669  H2671   1.118   .     S
N2673  H2674   1.010   .     S
N2673  C2675   1.448   .     S
C2675  H2678   1.119   .     S
C2675  H2676   1.119   .     S
C2675  H2677   1.121   .     S
N2679  C2681   1.457   .     S
N2679  H2680   1.032   .     S
C2681  H2683   1.112   .     S
C2681  H2682   1.113   .     S
C2681  H2684   1.109   .     S
N2685  C2687   1.443   .     S
N2685  H2686   1.018   .     S
C2687  H2688   1.114   .     S
C2687  H2689   1.111   .     S
C2687  H2690   1.106   .     S
N2691  H2692   1.034   .     S
N2691  C2693   1.457   .     S
C2693  H2695   1.113   .     S
C2693  H2696   1.109   .     S
C2693  H2694   1.113   .     S
N2697  C2699   1.447   .     S
N2697  H2698   1.012   .     S
C2699  H2701   1.113   .     S
C2699  H2700   1.117   .     S
C2699  H2702   1.110   .     S
N2703  H2704   1.032   .     S
N2703  C2705   1.457   .     S
C2705  H2708   1.109   .     S
C2705  H2706   1.113   .     S
C2705  H2707   1.112   .     S
N2709  C2711   1.443   .     S
N2709  H2710   1.017   .     S
C2711  H2714   1.107   .     S
C2711  H2712   1.114   .     S
C2711  H2713   1.111   .     S
N2715  C2717   1.456   .     S
N2715  H2716   1.034   .     S
C2717  H2720   1.109   .     S
C2717  H2718   1.112   .     S
C2717  H2719   1.113   .     S
N2721  C2723   1.452   .     S
N2721  H2722   1.021   .     S
C2723  H2726   1.113   .     S
C2723  H2724   1.105   .     S
C2723  H2725   1.115   .     S
N2727  C2729   1.463   .     S
N2727  H2728   1.030   .     S
C2729  H2730   1.099   .     S
C2729  H2732   1.113   .     S
C2729  H2731   1.117   .     S
N2733  H2734   1.016   .     S
N2733  C2735   1.451   .     S
C2735  H2737   1.113   .     S
C2735  H2738   1.116   .     S
C2735  H2736   1.103   .     S
N2739  H2740   1.029   .     S
N2739  C2741   1.464   .     S
C2741  H2743   1.118   .     S
C2741  H2744   1.111   .     S
C2741  H2742   1.104   .     S
N2745  C2747   1.452   .     S
N2745  H2746   1.020   .     S
C2747  H2749   1.114   .     S
C2747  H2748   1.105   .     S
C2747  H2750   1.113   .     S
N2751  C2753   1.462   .     S
N2751  H2752   1.030   .     S
C2753  H2754   1.100   .     S
C2753  H2755   1.117   .     S
C2753  H2756   1.112   .     S
N2757  C2759   1.452   .     S
N2757  H2758   1.018   .     S
C2759  H2761   1.114   .     S
C2759  H2762   1.118   .     S
C2759  H2760   1.104   .     S
N2763  H2764   1.029   .     S
N2763  C2765   1.465   .     S
C2765  H2767   1.118   .     S
C2765  H2768   1.111   .     S
C2765  H2766   1.103   .     S
N2769  H2770   1.002   .     S
N2769  C2771   1.447   .     S
C2771  H2774   1.110   .     S
C2771  H2773   1.111   .     S
C2771  H2772   1.109   .     S
N2775  H2776   1.033   .     S
N2775  C2777   1.458   .     S
C2777  H2779   1.112   .     S
C2777  H2778   1.113   .     S
C2777  H2780   1.109   .     S
N2781  C2783   1.443   .     S
N2781  H2782   1.017   .     S
C2783  H2786   1.106   .     S
C2783  H2784   1.114   .     S
C2783  H2785   1.111   .     S
N2787  H2788   1.034   .     S
N2787  C2789   1.457   .     S
C2789  H2792   1.109   .     S
C2789  H2791   1.113   .     S
C2789  H2790   1.113   .     S
N2793  C2795   1.446   .     S
N2793  H2794   1.018   .     S
C2795  H2797   1.110   .     S
C2795  H2798   1.108   .     S
C2795  H2796   1.113   .     S
N2799  C2801   1.458   .     S
N2799  H2800   1.032   .     S
C2801  H2802   1.114   .     S
C2801  H2804   1.110   .     S
C2801  H2803   1.113   .     S
N2805  C2807   1.443   .     S
N2805  H2806   1.018   .     S
C2807  H2808   1.114   .     S
C2807  H2809   1.111   .     S
C2807  H2810   1.107   .     S
N2811  H2812   1.034   .     S
N2811  C2813   1.457   .     S
C2813  H2816   1.109   .     S
C2813  H2815   1.113   .     S
C2813  H2814   1.112   .     S
O2817  C2818   1.419   .     S
C2818  H2819   1.111   .     S
C2818  C2821   1.503   .     S
C2818  H2820   1.116   .     S
C2821  C2824   1.529   .     S
C2821  H2822   1.114   .     S
C2821  H2823   1.111   .     S
C2824  H2825   1.109   .     S
C2824  H2827   1.112   .     S
C2824  H2826   1.109   .     S
O2828  C2829   1.417   .     S
C2829  H2830   1.115   .     S
C2829  H2831   1.108   .     S
C2829  C2832   1.508   .     S
C2832  C2835   1.529   .     S
C2832  H2833   1.111   .     S
C2832  H2834   1.109   .     S
C2835  H2838   1.115   .     S
C2835  H2837   1.107   .     S
C2835  H2836   1.106   .     S
O2839  C2840   1.418   .     S
C2840  H2841   1.112   .     S
C2840  C2843   1.506   .     S
C2840  H2842   1.117   .     S
C2843  C2846   1.525   .     S
C2843  H2845   1.111   .     S
C2843  H2844   1.112   .     S
C2846  H2848   1.105   .     S
C2846  H2849   1.111   .     S
C2846  H2847   1.109   .     S
O2850  C2851   1.418   .     S
C2851  C2854   1.516   .     S
C2851  H2852   1.118   .     S
C2851  H2853   1.108   .     S
C2854  C2857   1.531   .     S
C2854  H2855   1.116   .     S
C2854  H2856   1.112   .     S
C2857  H2858   1.108   .     S
C2857  H2859   1.109   .     S
C2857  H2860   1.114   .     S
O2861  C2862   1.420   .     S
C2862  H2863   1.111   .     S
C2862  H2864   1.116   .     S
C2862  C2865   1.503   .     S
C2865  H2866   1.114   .     S
C2865  C2868   1.529   .     S
C2865  H2867   1.111   .     S
C2868  H2871   1.113   .     S
C2868  H2870   1.109   .     S
C2868  H2869   1.110   .     S
O2872  C2873   1.418   .     S
C2873  H2875   1.106   .     S
C2873  H2874   1.115   .     S
C2873  C2876   1.515   .     S
C2876  C2879   1.528   .     S
C2876  H2878   1.109   .     S
C2876  H2877   1.111   .     S
C2879  H2881   1.110   .     S
C2879  H2880   1.108   .     S
C2879  H2882   1.113   .     S
O2883  C2884   1.419   .     S
C2884  H2885   1.112   .     S
C2884  C2887   1.506   .     S
C2884  H2886   1.117   .     S
C2887  C2890   1.527   .     S
C2887  H2888   1.113   .     S
C2887  H2889   1.111   .     S
C2890  H2893   1.111   .     S
C2890  H2892   1.107   .     S
C2890  H2891   1.110   .     S
O2894  C2895   1.417   .     S
C2895  C2898   1.515   .     S
C2895  H2896   1.113   .     S
C2895  H2897   1.104   .     S
C2898  H2900   1.108   .     S
C2898  C2901   1.528   .     S
C2898  H2899   1.113   .     S
C2901  H2903   1.109   .     S
C2901  H2902   1.107   .     S
C2901  H2904   1.114   .     S
O2905  C2906   1.420   .     S
C2906  C2909   1.504   .     S
C2906  H2908   1.116   .     S
C2906  H2907   1.111   .     S
C2909  H2911   1.111   .     S
C2909  C2912   1.529   .     S
C2909  H2910   1.114   .     S
C2912  H2913   1.110   .     S
C2912  H2915   1.113   .     S
C2912  H2914   1.108   .     S
O2916  C2917   1.417   .     S
C2917  H2918   1.116   .     S
C2917  C2920   1.516   .     S
C2917  H2919   1.105   .     S
C2920  H2921   1.111   .     S
C2920  C2923   1.526   .     S
C2920  H2922   1.110   .     S
C2923  H2925   1.107   .     S
C2923  H2924   1.107   .     S
C2923  H2926   1.113   .     S
O2927  C2928   1.419   .     S
C2928  H2929   1.112   .     S
C2928  C2931   1.505   .     S
C2928  H2930   1.117   .     S
C2931  C2934   1.526   .     S
C2931  H2933   1.111   .     S
C2931  H2932   1.112   .     S
C2934  H2936   1.106   .     S
C2934  H2935   1.109   .     S
C2934  H2937   1.111   .     S
O2938  C2939   1.417   .     S
C2939  C2942   1.515   .     S
C2939  H2940   1.113   .     S
C2939  H2941   1.104   .     S
C2942  H2944   1.108   .     S
C2942  C2945   1.527   .     S
C2942  H2943   1.113   .     S
C2945  H2946   1.107   .     S
C2945  H2947   1.108   .     S
C2945  H2948   1.113   .     S
O2949  C2950   1.419   .     S
C2950  H2952   1.116   .     S
C2950  C2953   1.504   .     S
C2950  H2951   1.111   .     S
C2953  C2956   1.530   .     S
C2953  H2955   1.111   .     S
C2953  H2954   1.114   .     S
C2956  H2957   1.109   .     S
C2956  H2958   1.109   .     S
C2956  H2959   1.112   .     S
O2960  C2961   1.417   .     S
C2961  C2964   1.511   .     S
C2961  H2963   1.106   .     S
C2961  H2962   1.114   .     S
C2964  C2967   1.529   .     S
C2964  H2965   1.110   .     S
C2964  H2966   1.108   .     S
C2967  H2968   1.107   .     S
C2967  H2969   1.108   .     S
C2967  H2970   1.113   .     S
O2971  C2972   1.419   .     S
C2972  C2975   1.506   .     S
C2972  H2974   1.117   .     S
C2972  H2973   1.112   .     S
C2975  C2978   1.526   .     S
C2975  H2976   1.113   .     S
C2975  H2977   1.111   .     S
C2978  H2979   1.110   .     S
C2978  H2981   1.113   .     S
C2978  H2980   1.106   .     S
O2982  C2983   1.417   .     S
C2983  C2986   1.514   .     S
C2983  H2984   1.114   .     S
C2983  H2985   1.106   .     S
C2986  H2988   1.110   .     S
C2986  H2987   1.114   .     S
C2986  C2989   1.530   .     S
C2989  H2991   1.108   .     S
C2989  H2990   1.107   .     S
C2989  H2992   1.114   .     S
