data_str_m1_o1_o17_pcu_sym.111
_audit_creation_date              2020-01-03
_audit_creation_method            'Materials Studio'
_symmetry_space_group_name_H-M    'P1'
_symmetry_Int_Tables_number       1
_symmetry_cell_setting            triclinic
loop_
_symmetry_equiv_pos_as_xyz
  x,y,z
_cell_length_a                    36.5978
_cell_length_b                    36.5475
_cell_length_c                    34.3665
_cell_angle_alpha                 90.0350
_cell_angle_beta                  89.9701
_cell_angle_gamma                 89.9797
loop_
_atom_site_label
_atom_site_type_symbol
_atom_site_fract_x
_atom_site_fract_y
_atom_site_fract_z
_atom_site_U_iso_or_equiv
_atom_site_adp_type
_atom_site_occupancy
C1     C     0.49611   0.28396   0.41787   0.00000  Uiso   1.00
C2     C     0.24883   0.46609   0.08179   0.00000  Uiso   1.00
C3     C     0.21773   0.49036   0.54103   0.00000  Uiso   1.00
C4     C     0.49906   0.28421   0.45895   0.00000  Uiso   1.00
C5     C     0.49058   0.21696   0.54076   0.00000  Uiso   1.00
C6     C     0.21757   0.49097   0.45902   0.00000  Uiso   1.00
C7     C     0.28190   0.01047   0.54097   0.00000  Uiso   1.00
C8     C     0.24651   0.46652   0.95883   0.00000  Uiso   1.00
C9     C     0.24381   0.03347   0.04120   0.00000  Uiso   1.00
C10    C     0.03267   0.26155   0.95922   0.00000  Uiso   1.00
C11    C     0.46608   0.24887   0.04109   0.00000  Uiso   1.00
C12    C     0.24579   0.03382   0.95908   0.00000  Uiso   1.00
C13    C     0.46704   0.24605   0.91811   0.00000  Uiso   1.00
C14    C     0.24383   0.46599   0.04084   0.00000  Uiso   1.00
C15    C     0.46615   0.25067   0.95898   0.00000  Uiso   1.00
C16    C     0.03255   0.25876   0.04127   0.00000  Uiso   1.00
C17    C     0.09786   0.34824   0.24972   0.00000  Uiso   1.00
C18    C     0.40208   0.15172   0.75030   0.00000  Uiso   1.00
C19    C     0.15190   0.09808   0.24994   0.00000  Uiso   1.00
C20    C     0.34795   0.40182   0.74944   0.00000  Uiso   1.00
C21    C     0.40210   0.15177   0.24975   0.00000  Uiso   1.00
C22    C     0.09821   0.34795   0.74978   0.00000  Uiso   1.00
C23    C     0.34793   0.40177   0.25026   0.00000  Uiso   1.00
C24    C     0.03293   0.25061   0.08158   0.00000  Uiso   1.00
C25    C     0.15173   0.09791   0.75019   0.00000  Uiso   1.00
C26    C     0.09822   0.15207   0.74973   0.00000  Uiso   1.00
C27    C     0.40207   0.34822   0.24973   0.00000  Uiso   1.00
C28    C     0.15179   0.40204   0.75020   0.00000  Uiso   1.00
C29    C     0.34788   0.09832   0.25024   0.00000  Uiso   1.00
C30    C     0.40206   0.34817   0.75057   0.00000  Uiso   1.00
C31    C     0.09795   0.15176   0.25025   0.00000  Uiso   1.00
C32    C     0.34783   0.09829   0.74978   0.00000  Uiso   1.00
C33    C     0.15213   0.40166   0.25028   0.00000  Uiso   1.00
C34    C     0.49504   0.25068   0.47940   0.00000  Uiso   1.00
C35    C     0.25462   0.46742   0.91850   0.00000  Uiso   1.00
C36    C     0.49451   0.25054   0.52049   0.00000  Uiso   1.00
C37    C     0.24982   0.00039   0.47954   0.00000  Uiso   1.00
C38    C     0.24981   0.00041   0.52047   0.00000  Uiso   1.00
C39    C     0.24517   0.00004   0.97949   0.00000  Uiso   1.00
C40    C     0.24453   0.49980   0.02057   0.00000  Uiso   1.00
C41    C     0.49945   0.25540   0.97955   0.00000  Uiso   1.00
C42    C     0.49931   0.25475   0.02063   0.00000  Uiso   1.00
C43    C     0.46293   0.15555   0.45576   0.00000  Uiso   1.00
C44    C     0.47602   0.34989   0.53645   0.00000  Uiso   1.00
C45    C     0.33898   0.04814   0.45736   0.00000  Uiso   1.00
C46    C     0.24846   0.03330   0.08207   0.00000  Uiso   1.00
C47    C     0.16256   0.44967   0.54232   0.00000  Uiso   1.00
C48    C     0.02693   0.34743   0.46389   0.00000  Uiso   1.00
C49    C     0.45958   0.15555   0.54056   0.00000  Uiso   1.00
C50    C     0.16042   0.45297   0.45749   0.00000  Uiso   1.00
C51    C     0.33657   0.05182   0.54232   0.00000  Uiso   1.00
C52    C     0.22354   0.40197   0.95568   0.00000  Uiso   1.00
C53    C     0.21621   0.09680   0.03665   0.00000  Uiso   1.00
C54    C     0.09245   0.29564   0.95992   0.00000  Uiso   1.00
C55    C     0.40461   0.21748   0.03630   0.00000  Uiso   1.00
C56    C     0.26723   0.09951   0.96419   0.00000  Uiso   1.00
C57    C     0.03327   0.25688   0.91820   0.00000  Uiso   1.00
C58    C     0.21900   0.40179   0.04027   0.00000  Uiso   1.00
C59    C     0.39930   0.26787   0.96359   0.00000  Uiso   1.00
C60    C     0.09250   0.29176   0.04449   0.00000  Uiso   1.00
C61    C     0.17107   0.38639   0.18203   0.00000  Uiso   1.00
C62    C     0.32785   0.11460   0.81746   0.00000  Uiso   1.00
C63    C     0.11159   0.16948   0.18171   0.00000  Uiso   1.00
C64    C     0.37093   0.31588   0.80677   0.00000  Uiso   1.00
C65    C     0.32951   0.11307   0.18167   0.00000  Uiso   1.00
C66    C     0.11326   0.44395   0.70956   0.00000  Uiso   1.00
C67    C     0.44159   0.38443   0.29517   0.00000  Uiso   1.00
C68    C     0.46611   0.25196   0.08216   0.00000  Uiso   1.00
C69    C     0.11415   0.17192   0.81752   0.00000  Uiso   1.00
C70    C     0.17537   0.11876   0.81506   0.00000  Uiso   1.00
C71    C     0.38684   0.44449   0.28949   0.00000  Uiso   1.00
C72    C     0.05368   0.38888   0.71545   0.00000  Uiso   1.00
C73    C     0.38207   0.17476   0.18429   0.00000  Uiso   1.00
C74    C     0.31728   0.37553   0.80847   0.00000  Uiso   1.00
C75    C     0.17080   0.11344   0.18147   0.00000  Uiso   1.00
C76    C     0.38089   0.17597   0.81480   0.00000  Uiso   1.00
C77    C     0.11785   0.32530   0.18416   0.00000  Uiso   1.00
C78    C     0.42249   0.13490   0.68299   0.00000  Uiso   1.00
C79    C     0.49972   0.25048   0.39806   0.00000  Uiso   1.00
C80    C     0.07890   0.36346   0.31804   0.00000  Uiso   1.00
C81    C     0.37934   0.43421   0.69336   0.00000  Uiso   1.00
C82    C     0.13977   0.08246   0.31994   0.00000  Uiso   1.00
C83    C     0.13676   0.30603   0.79043   0.00000  Uiso   1.00
C84    C     0.42076   0.13681   0.31820   0.00000  Uiso   1.00
C85    C     0.13583   0.07810   0.68237   0.00000  Uiso   1.00
C86    C     0.30836   0.36552   0.20489   0.00000  Uiso   1.00
C87    C     0.36326   0.30558   0.21031   0.00000  Uiso   1.00
C88    C     0.07454   0.13122   0.68485   0.00000  Uiso   1.00
C89    C     0.36736   0.07595   0.31609   0.00000  Uiso   1.00
C90    C     0.49934   0.24991   0.60187   0.00000  Uiso   1.00
C91    C     0.19642   0.36101   0.78426   0.00000  Uiso   1.00
C92    C     0.07758   0.13414   0.31748   0.00000  Uiso   1.00
C93    C     0.43256   0.37424   0.69137   0.00000  Uiso   1.00
C94    C     0.13257   0.42408   0.31612   0.00000  Uiso   1.00
C95    C     0.36878   0.07426   0.68505   0.00000  Uiso   1.00
C96    C     0.48573   0.31736   0.39542   0.00000  Uiso   1.00
C97    C     0.00391   0.18133   0.60210   0.00000  Uiso   1.00
C98    C     0.18088   0.00353   0.39832   0.00000  Uiso   1.00
C99    C     0.31817   0.00036   0.60322   0.00000  Uiso   1.00
C100   C     0.01269   0.18338   0.39755   0.00000  Uiso   1.00
C101   C     0.24996   0.00007   0.39804   0.00000  Uiso   1.00
C102   C     0.01433   0.31630   0.60417   0.00000  Uiso   1.00
C103   C     0.31909   0.49668   0.39859   0.00000  Uiso   1.00
C104   C     0.18174   0.00045   0.60356   0.00000  Uiso   1.00
C105   C     0.22968   0.06569   0.89560   0.00000  Uiso   1.00
C106   C     0.25926   0.43175   0.10263   0.00000  Uiso   1.00
C107   C     0.43513   0.23114   0.89617   0.00000  Uiso   1.00
C108   C     0.06718   0.24023   0.10240   0.00000  Uiso   1.00
C109   C     0.27005   0.43510   0.89766   0.00000  Uiso   1.00
C110   C     0.25824   0.06719   0.10408   0.00000  Uiso   1.00
C111   C     0.06871   0.25229   0.89711   0.00000  Uiso   1.00
C112   C     0.49590   0.21651   0.58164   0.00000  Uiso   1.00
C113   C     0.24995   0.00007   0.60192   0.00000  Uiso   1.00
C114   C     0.43223   0.26073   0.10457   0.00000  Uiso   1.00
C115   C     0.24980   0.00039   0.89813   0.00000  Uiso   1.00
C116   C     0.24928   0.49971   0.10193   0.00000  Uiso   1.00
C117   C     0.00022   0.25082   0.89815   0.00000  Uiso   1.00
C118   C     0.49965   0.25016   0.10196   0.00000  Uiso   1.00
C119   C     0.48073   0.18533   0.47856   0.00000  Uiso   1.00
C120   C     0.49534   0.31730   0.51995   0.00000  Uiso   1.00
C121   C     0.31165   0.02625   0.47939   0.00000  Uiso   1.00
C122   C     0.18832   0.47382   0.52062   0.00000  Uiso   1.00
C123   C     0.00452   0.31689   0.48030   0.00000  Uiso   1.00
C124   C     0.21659   0.49694   0.41831   0.00000  Uiso   1.00
C125   C     0.47933   0.18529   0.51974   0.00000  Uiso   1.00
C126   C     0.18789   0.47476   0.47944   0.00000  Uiso   1.00
C127   C     0.31115   0.02731   0.52057   0.00000  Uiso   1.00
C128   C     0.23775   0.43355   0.97856   0.00000  Uiso   1.00
C129   C     0.23865   0.06632   0.02008   0.00000  Uiso   1.00
C130   C     0.06366   0.27429   0.98039   0.00000  Uiso   1.00
C131   C     0.43383   0.24152   0.01979   0.00000  Uiso   1.00
C132   C     0.24789   0.06688   0.98046   0.00000  Uiso   1.00
C133   C     0.23596   0.43336   0.01972   0.00000  Uiso   1.00
C134   C     0.43292   0.25057   0.98014   0.00000  Uiso   1.00
C135   C     0.28301   0.00462   0.58172   0.00000  Uiso   1.00
C136   C     0.06368   0.27261   0.02156   0.00000  Uiso   1.00
C137   C     0.25001   0.00001   0.35576   0.00000  Uiso   1.00
C138   C     0.25001   0.00000   0.64425   0.00000  Uiso   1.00
C139   C     0.49998   0.25005   0.35573   0.00000  Uiso   1.00
C140   C     0.49997   0.24996   0.64425   0.00000  Uiso   1.00
C141   C     0.00014   0.25007   0.85576   0.00000  Uiso   1.00
C142   C     0.00002   0.24999   0.14427   0.00000  Uiso   1.00
C143   C     0.24999   0.00004   0.85575   0.00000  Uiso   1.00
C144   C     0.24996   0.49993   0.14427   0.00000  Uiso   1.00
C145   C     0.18003   0.06997   0.25002   0.00000  Uiso   1.00
C146   C     0.00090   0.21719   0.41844   0.00000  Uiso   1.00
C147   C     0.32009   0.43016   0.74972   0.00000  Uiso   1.00
C148   C     0.42995   0.18012   0.24980   0.00000  Uiso   1.00
C149   C     0.07004   0.31990   0.75007   0.00000  Uiso   1.00
C150   C     0.31991   0.42999   0.24998   0.00000  Uiso   1.00
C151   C     0.18011   0.07004   0.75016   0.00000  Uiso   1.00
C152   C     0.07004   0.31987   0.24978   0.00000  Uiso   1.00
C153   C     0.42996   0.18010   0.75019   0.00000  Uiso   1.00
C154   C     0.17996   0.43010   0.74992   0.00000  Uiso   1.00
C155   C     0.32005   0.06990   0.25020   0.00000  Uiso   1.00
C156   C     0.42991   0.31983   0.75031   0.00000  Uiso   1.00
C157   C     0.00168   0.28346   0.58203   0.00000  Uiso   1.00
C158   C     0.06982   0.17988   0.25021   0.00000  Uiso   1.00
C159   C     0.32001   0.06991   0.74984   0.00000  Uiso   1.00
C160   C     0.17995   0.43011   0.25022   0.00000  Uiso   1.00
C161   C     0.06986   0.17994   0.74979   0.00000  Uiso   1.00
C162   C     0.43009   0.32001   0.25001   0.00000  Uiso   1.00
C163   C     0.14767   0.37964   0.21683   0.00000  Uiso   1.00
C164   C     0.35166   0.12093   0.78284   0.00000  Uiso   1.00
C165   C     0.11836   0.14573   0.21599   0.00000  Uiso   1.00
C166   C     0.37388   0.34701   0.77875   0.00000  Uiso   1.00
C167   C     0.35247   0.12020   0.21674   0.00000  Uiso   1.00
C168   C     0.28327   0.00342   0.41837   0.00000  Uiso   1.00
C169   C     0.11813   0.40910   0.73157   0.00000  Uiso   1.00
C170   C     0.40797   0.38080   0.27091   0.00000  Uiso   1.00
C171   C     0.12065   0.14815   0.78286   0.00000  Uiso   1.00
C172   C     0.14824   0.12124   0.78277   0.00000  Uiso   1.00
C173   C     0.38090   0.40827   0.27044   0.00000  Uiso   1.00
C174   C     0.09071   0.38199   0.73209   0.00000  Uiso   1.00
C175   C     0.37929   0.14787   0.21685   0.00000  Uiso   1.00
C176   C     0.34675   0.37440   0.77834   0.00000  Uiso   1.00
C177   C     0.14587   0.11869   0.21568   0.00000  Uiso   1.00
C178   C     0.37856   0.14854   0.78272   0.00000  Uiso   1.00
C179   C     0.21679   0.49592   0.58185   0.00000  Uiso   1.00
C180   C     0.12074   0.35209   0.21684   0.00000  Uiso   1.00
C181   C     0.39830   0.12897   0.71732   0.00000  Uiso   1.00
C182   C     0.10231   0.37023   0.28318   0.00000  Uiso   1.00
C183   C     0.37618   0.40300   0.72128   0.00000  Uiso   1.00
C184   C     0.13129   0.10396   0.28417   0.00000  Uiso   1.00
C185   C     0.13188   0.34088   0.76840   0.00000  Uiso   1.00
C186   C     0.39755   0.12987   0.28324   0.00000  Uiso   1.00
C187   C     0.12930   0.10185   0.71704   0.00000  Uiso   1.00
C188   C     0.34203   0.36919   0.22908   0.00000  Uiso   1.00
C189   C     0.36914   0.34174   0.22949   0.00000  Uiso   1.00
C190   C     0.24289   0.03332   0.91800   0.00000  Uiso   1.00
C191   C     0.10170   0.12875   0.71713   0.00000  Uiso   1.00
C192   C     0.37056   0.10239   0.28322   0.00000  Uiso   1.00
C193   C     0.15932   0.36797   0.76782   0.00000  Uiso   1.00
C194   C     0.10328   0.13038   0.28396   0.00000  Uiso   1.00
C195   C     0.40321   0.37553   0.72161   0.00000  Uiso   1.00
C196   C     0.12935   0.39767   0.28320   0.00000  Uiso   1.00
C197   C     0.37128   0.10152   0.71731   0.00000  Uiso   1.00
C198   C     0.49282   0.21719   0.45878   0.00000  Uiso   1.00
C199   C     0.49717   0.28411   0.54112   0.00000  Uiso   1.00
C200   C     0.28211   0.00974   0.45902   0.00000  Uiso   1.00
H201   H     0.44484   0.16260   0.43188   0.00000  Uiso   1.00
H202   H     0.20527   0.09502   0.06589   0.00000  Uiso   1.00
H203   H     0.08452   0.31766   0.94049   0.00000  Uiso   1.00
H204   H     0.40663   0.20705   0.06571   0.00000  Uiso   1.00
H205   H     0.27832   0.09904   0.93497   0.00000  Uiso   1.00
H206   H     0.19655   0.40660   0.06028   0.00000  Uiso   1.00
H207   H     0.39934   0.27898   0.93437   0.00000  Uiso   1.00
H208   H     0.08458   0.30911   0.06873   0.00000  Uiso   1.00
H209   H     0.19939   0.39445   0.18569   0.00000  Uiso   1.00
H210   H     0.29976   0.10578   0.81368   0.00000  Uiso   1.00
H211   H     0.11602   0.19877   0.18393   0.00000  Uiso   1.00
H212   H     0.46476   0.34918   0.56559   0.00000  Uiso   1.00
H213   H     0.34425   0.30575   0.81535   0.00000  Uiso   1.00
H214   H     0.30132   0.10436   0.18492   0.00000  Uiso   1.00
H215   H     0.12489   0.46926   0.72043   0.00000  Uiso   1.00
H216   H     0.46733   0.37305   0.28519   0.00000  Uiso   1.00
H217   H     0.10559   0.20013   0.81377   0.00000  Uiso   1.00
H218   H     0.18559   0.09239   0.82447   0.00000  Uiso   1.00
H219   H     0.36410   0.45899   0.30266   0.00000  Uiso   1.00
H220   H     0.03862   0.36684   0.70164   0.00000  Uiso   1.00
H221   H     0.40844   0.18512   0.17509   0.00000  Uiso   1.00
H222   H     0.29028   0.38568   0.80113   0.00000  Uiso   1.00
H223   H     0.32969   0.06776   0.43582   0.00000  Uiso   1.00
H224   H     0.19791   0.10207   0.18562   0.00000  Uiso   1.00
H225   H     0.40718   0.18631   0.82424   0.00000  Uiso   1.00
H226   H     0.09143   0.31511   0.17491   0.00000  Uiso   1.00
H227   H     0.45079   0.14273   0.68723   0.00000  Uiso   1.00
H228   H     0.05066   0.35501   0.31448   0.00000  Uiso   1.00
H229   H     0.40607   0.44359   0.68407   0.00000  Uiso   1.00
H230   H     0.14818   0.05407   0.31763   0.00000  Uiso   1.00
H231   H     0.12488   0.28077   0.77973   0.00000  Uiso   1.00
H232   H     0.44897   0.14536   0.31478   0.00000  Uiso   1.00
H233   H     0.14448   0.04991   0.68610   0.00000  Uiso   1.00
H234   H     0.17296   0.43240   0.56550   0.00000  Uiso   1.00
H235   H     0.28262   0.37684   0.21495   0.00000  Uiso   1.00
H236   H     0.38602   0.29122   0.19697   0.00000  Uiso   1.00
H237   H     0.06426   0.15757   0.67538   0.00000  Uiso   1.00
H238   H     0.34076   0.06674   0.32586   0.00000  Uiso   1.00
H239   H     0.21154   0.38300   0.79809   0.00000  Uiso   1.00
H240   H     0.06734   0.16076   0.32610   0.00000  Uiso   1.00
H241   H     0.45970   0.36450   0.69875   0.00000  Uiso   1.00
H242   H     0.15919   0.43314   0.32595   0.00000  Uiso   1.00
H243   H     0.34242   0.06422   0.67542   0.00000  Uiso   1.00
H244   H     0.49483   0.32096   0.36561   0.00000  Uiso   1.00
H245   H     0.03763   0.34592   0.43454   0.00000  Uiso   1.00
H246   H     0.01847   0.15979   0.58684   0.00000  Uiso   1.00
H247   H     0.15814   0.01467   0.41480   0.00000  Uiso   1.00
H248   H     0.32037   0.00856   0.63346   0.00000  Uiso   1.00
H249   H     0.00619   0.17943   0.36704   0.00000  Uiso   1.00
H250   H     0.00505   0.32103   0.63375   0.00000  Uiso   1.00
H251   H     0.34193   0.48628   0.41541   0.00000  Uiso   1.00
H252   H     0.17951   0.49205   0.63374   0.00000  Uiso   1.00
H253   H     0.23915   0.07051   0.86612   0.00000  Uiso   1.00
H254   H     0.27625   0.41165   0.08801   0.00000  Uiso   1.00
H255   H     0.42967   0.24010   0.86665   0.00000  Uiso   1.00
H256   H     0.43798   0.16256   0.56089   0.00000  Uiso   1.00
H257   H     0.07065   0.24640   0.13306   0.00000  Uiso   1.00
H258   H     0.26405   0.43042   0.86714   0.00000  Uiso   1.00
H259   H     0.24904   0.07098   0.13384   0.00000  Uiso   1.00
H260   H     0.09100   0.23780   0.91111   0.00000  Uiso   1.00
H261   H     0.42912   0.25169   0.13447   0.00000  Uiso   1.00
H262   H     0.16960   0.43317   0.43604   0.00000  Uiso   1.00
H263   H     0.32597   0.06867   0.56579   0.00000  Uiso   1.00
H264   H     0.20471   0.40690   0.93185   0.00000  Uiso   1.00
O265   O     0.25000   0.00000   0.25000   0.00000  Uiso   1.00
O266   O     0.25000   0.46964   0.66245   0.00000  Uiso   1.00
O267   O     0.39625   0.06155   0.67005   0.00000  Uiso   1.00
O268   O     0.46567   0.34052   0.40960   0.00000  Uiso   1.00
O269   O     0.49405   0.17573   0.63550   0.00000  Uiso   1.00
O270   O     0.17616   0.49647   0.36398   0.00000  Uiso   1.00
O271   O     0.34458   0.48606   0.58769   0.00000  Uiso   1.00
O272   O     0.03123   0.16030   0.41398   0.00000  Uiso   1.00
O273   O     0.03645   0.33751   0.59006   0.00000  Uiso   1.00
O274   O     0.32378   0.00262   0.36401   0.00000  Uiso   1.00
O275   O     0.15548   0.01523   0.58829   0.00000  Uiso   1.00
O276   O     0.20709   0.08656   0.90948   0.00000  Uiso   1.00
O277   O     0.46964   0.25000   0.33755   0.00000  Uiso   1.00
O278   O     0.24863   0.42521   0.13557   0.00000  Uiso   1.00
O279   O     0.41555   0.20763   0.91040   0.00000  Uiso   1.00
O280   O     0.09123   0.22316   0.08572   0.00000  Uiso   1.00
O281   O     0.29099   0.41421   0.91415   0.00000  Uiso   1.00
O282   O     0.27798   0.09046   0.08965   0.00000  Uiso   1.00
O283   O     0.07368   0.26515   0.86476   0.00000  Uiso   1.00
O284   O     0.40807   0.27943   0.09026   0.00000  Uiso   1.00
O285   O     0.03037   0.25000   0.66245   0.00000  Uiso   1.00
O286   O     0.00000   0.21964   0.83755   0.00000  Uiso   1.00
O287   O     0.00000   0.28037   0.16245   0.00000  Uiso   1.00
O288   O     0.28037   0.00000   0.83755   0.00000  Uiso   1.00
O289   O     0.21964   0.00000   0.16245   0.00000  Uiso   1.00
O290   O     0.00000   0.28037   0.83755   0.00000  Uiso   1.00
O291   O     0.00000   0.21964   0.16245   0.00000  Uiso   1.00
O292   O     0.21964   0.00000   0.83755   0.00000  Uiso   1.00
O293   O     0.25000   0.00000   0.75000   0.00000  Uiso   1.00
O294   O     0.28037   0.00000   0.16245   0.00000  Uiso   1.00
O295   O     0.20725   0.07308   0.27302   0.00000  Uiso   1.00
O296   O     0.29276   0.42693   0.72698   0.00000  Uiso   1.00
O297   O     0.42693   0.20725   0.27302   0.00000  Uiso   1.00
O298   O     0.07308   0.29276   0.72698   0.00000  Uiso   1.00
O299   O     0.29276   0.42693   0.27302   0.00000  Uiso   1.00
O300   O     0.20725   0.07308   0.72698   0.00000  Uiso   1.00
O301   O     0.07308   0.29276   0.27302   0.00000  Uiso   1.00
O302   O     0.42693   0.20725   0.72698   0.00000  Uiso   1.00
O303   O     0.20725   0.42693   0.72698   0.00000  Uiso   1.00
O304   O     0.00000   0.25000   0.25000   0.00000  Uiso   1.00
O305   O     0.29276   0.07308   0.27302   0.00000  Uiso   1.00
O306   O     0.42693   0.29276   0.72698   0.00000  Uiso   1.00
O307   O     0.07308   0.20725   0.27302   0.00000  Uiso   1.00
O308   O     0.29276   0.07308   0.72698   0.00000  Uiso   1.00
O309   O     0.20725   0.42693   0.27302   0.00000  Uiso   1.00
O310   O     0.07308   0.20725   0.72698   0.00000  Uiso   1.00
O311   O     0.42693   0.29276   0.27302   0.00000  Uiso   1.00
O312   O     0.45725   0.32308   0.77302   0.00000  Uiso   1.00
O313   O     0.04276   0.17693   0.22698   0.00000  Uiso   1.00
O314   O     0.17693   0.45725   0.77302   0.00000  Uiso   1.00
O315   O     0.00000   0.25000   0.75000   0.00000  Uiso   1.00
O316   O     0.32308   0.04276   0.22698   0.00000  Uiso   1.00
O317   O     0.04276   0.17693   0.77302   0.00000  Uiso   1.00
O318   O     0.45725   0.32308   0.22698   0.00000  Uiso   1.00
O319   O     0.32308   0.04276   0.77302   0.00000  Uiso   1.00
O320   O     0.17693   0.45725   0.22698   0.00000  Uiso   1.00
O321   O     0.45725   0.17693   0.22698   0.00000  Uiso   1.00
O322   O     0.04276   0.32308   0.77302   0.00000  Uiso   1.00
O323   O     0.17693   0.04276   0.22698   0.00000  Uiso   1.00
O324   O     0.32308   0.45725   0.77302   0.00000  Uiso   1.00
O325   O     0.04276   0.32308   0.22698   0.00000  Uiso   1.00
O326   O     0.25000   0.46964   0.33755   0.00000  Uiso   1.00
O327   O     0.45725   0.17693   0.77302   0.00000  Uiso   1.00
O328   O     0.32308   0.45725   0.22698   0.00000  Uiso   1.00
O329   O     0.17693   0.04276   0.77302   0.00000  Uiso   1.00
O330   O     0.46985   0.12338   0.46171   0.00000  Uiso   1.00
O331   O     0.46998   0.37704   0.51679   0.00000  Uiso   1.00
O332   O     0.37169   0.04265   0.46104   0.00000  Uiso   1.00
O333   O     0.12972   0.45022   0.53625   0.00000  Uiso   1.00
O334   O     0.03609   0.37353   0.48381   0.00000  Uiso   1.00
O335   O     0.46877   0.12360   0.53727   0.00000  Uiso   1.00
O336   O     0.12776   0.45874   0.46112   0.00000  Uiso   1.00
O337   O     0.25000   0.03037   0.66245   0.00000  Uiso   1.00
O338   O     0.36936   0.05205   0.53596   0.00000  Uiso   1.00
O339   O     0.23424   0.37083   0.96150   0.00000  Uiso   1.00
O340   O     0.20733   0.12315   0.01698   0.00000  Uiso   1.00
O341   O     0.12466   0.28736   0.96249   0.00000  Uiso   1.00
O342   O     0.37916   0.20671   0.01639   0.00000  Uiso   1.00
O343   O     0.27348   0.12647   0.98411   0.00000  Uiso   1.00
O344   O     0.23133   0.37090   0.03710   0.00000  Uiso   1.00
O345   O     0.37188   0.27245   0.98326   0.00000  Uiso   1.00
O346   O     0.12493   0.28676   0.03822   0.00000  Uiso   1.00
O347   O     0.15856   0.38459   0.14915   0.00000  Uiso   1.00
O348   O     0.03037   0.25000   0.33755   0.00000  Uiso   1.00
O349   O     0.33983   0.11754   0.85048   0.00000  Uiso   1.00
O350   O     0.09869   0.15679   0.15186   0.00000  Uiso   1.00
O351   O     0.39794   0.30169   0.82112   0.00000  Uiso   1.00
O352   O     0.34231   0.11525   0.14894   0.00000  Uiso   1.00
O353   O     0.09774   0.44440   0.67812   0.00000  Uiso   1.00
O354   O     0.44048   0.39855   0.32736   0.00000  Uiso   1.00
O355   O     0.11668   0.15977   0.85051   0.00000  Uiso   1.00
O356   O     0.18777   0.14627   0.83029   0.00000  Uiso   1.00
O357   O     0.41677   0.45926   0.28903   0.00000  Uiso   1.00
O358   O     0.03894   0.41872   0.71860   0.00000  Uiso   1.00
O359   O     0.46964   0.25000   0.66245   0.00000  Uiso   1.00
O360   O     0.35471   0.18686   0.16855   0.00000  Uiso   1.00
O361   O     0.32323   0.36667   0.84212   0.00000  Uiso   1.00
O362   O     0.16157   0.12097   0.14834   0.00000  Uiso   1.00
O363   O     0.35334   0.18851   0.82980   0.00000  Uiso   1.00
O364   O     0.14515   0.31310   0.16835   0.00000  Uiso   1.00
O365   O     0.41068   0.13264   0.64985   0.00000  Uiso   1.00
O366   O     0.09133   0.36564   0.35092   0.00000  Uiso   1.00
O367   O     0.35245   0.44935   0.67990   0.00000  Uiso   1.00
O368   O     0.13894   0.09667   0.35210   0.00000  Uiso   1.00
O369   O     0.15258   0.30552   0.82169   0.00000  Uiso   1.00
O370   O     0.25000   0.03037   0.33755   0.00000  Uiso   1.00
O371   O     0.40816   0.13465   0.35103   0.00000  Uiso   1.00
O372   O     0.13323   0.09024   0.64939   0.00000  Uiso   1.00
O373   O     0.30943   0.35143   0.17268   0.00000  Uiso   1.00
O374   O     0.33339   0.29070   0.21082   0.00000  Uiso   1.00
O375   O     0.06214   0.10368   0.66966   0.00000  Uiso   1.00
O376   O     0.39453   0.06307   0.33150   0.00000  Uiso   1.00
O377   O     0.21112   0.33118   0.78092   0.00000  Uiso   1.00
O378   O     0.06635   0.10724   0.33481   0.00000  Uiso   1.00
O379   O     0.42632   0.38245   0.65758   0.00000  Uiso   1.00
O380   O     0.10542   0.43708   0.33150   0.00000  Uiso   1.00
Zn381  Zn    0.20660   0.00000   0.21735   0.00000  Uiso   1.00
Zn382  Zn    0.04341   0.25000   0.28265   0.00000  Uiso   1.00
Zn383  Zn    0.25000   0.45660   0.71735   0.00000  Uiso   1.00
Zn384  Zn    0.25000   0.04341   0.28265   0.00000  Uiso   1.00
Zn385  Zn    0.04341   0.25000   0.71735   0.00000  Uiso   1.00
Zn386  Zn    0.45660   0.25000   0.28265   0.00000  Uiso   1.00
Zn387  Zn    0.25000   0.04341   0.71735   0.00000  Uiso   1.00
Zn388  Zn    0.25000   0.45660   0.28265   0.00000  Uiso   1.00
Zn389  Zn    0.29341   0.00000   0.78265   0.00000  Uiso   1.00
Zn390  Zn    0.00000   0.20660   0.21735   0.00000  Uiso   1.00
Zn391  Zn    0.00000   0.29341   0.78265   0.00000  Uiso   1.00
Zn392  Zn    0.29341   0.00000   0.21735   0.00000  Uiso   1.00
Zn393  Zn    0.20660   0.00000   0.78265   0.00000  Uiso   1.00
Zn394  Zn    0.00000   0.29341   0.21735   0.00000  Uiso   1.00
Zn395  Zn    0.00000   0.20660   0.78265   0.00000  Uiso   1.00
Zn396  Zn    0.45660   0.25000   0.71735   0.00000  Uiso   1.00
C397   C     0.99611   0.28396   0.41787   0.00000  Uiso   1.00
C398   C     0.74883   0.46609   0.08179   0.00000  Uiso   1.00
C399   C     0.71773   0.49036   0.54103   0.00000  Uiso   1.00
C400   C     0.99906   0.28421   0.45895   0.00000  Uiso   1.00
C401   C     0.99058   0.21696   0.54076   0.00000  Uiso   1.00
C402   C     0.71757   0.49097   0.45902   0.00000  Uiso   1.00
C403   C     0.78190   0.01047   0.54097   0.00000  Uiso   1.00
C404   C     0.74651   0.46652   0.95883   0.00000  Uiso   1.00
C405   C     0.74381   0.03347   0.04120   0.00000  Uiso   1.00
C406   C     0.53267   0.26155   0.95922   0.00000  Uiso   1.00
C407   C     0.96608   0.24887   0.04109   0.00000  Uiso   1.00
C408   C     0.74579   0.03382   0.95908   0.00000  Uiso   1.00
C409   C     0.96704   0.24605   0.91811   0.00000  Uiso   1.00
C410   C     0.74383   0.46599   0.04084   0.00000  Uiso   1.00
C411   C     0.96615   0.25067   0.95898   0.00000  Uiso   1.00
C412   C     0.53255   0.25876   0.04127   0.00000  Uiso   1.00
C413   C     0.59786   0.34824   0.24972   0.00000  Uiso   1.00
C414   C     0.90208   0.15172   0.75030   0.00000  Uiso   1.00
C415   C     0.65190   0.09808   0.24994   0.00000  Uiso   1.00
C416   C     0.84795   0.40182   0.74944   0.00000  Uiso   1.00
C417   C     0.90210   0.15177   0.24975   0.00000  Uiso   1.00
C418   C     0.59821   0.34795   0.74978   0.00000  Uiso   1.00
C419   C     0.84793   0.40177   0.25026   0.00000  Uiso   1.00
C420   C     0.53293   0.25061   0.08158   0.00000  Uiso   1.00
C421   C     0.65173   0.09791   0.75019   0.00000  Uiso   1.00
C422   C     0.59822   0.15207   0.74973   0.00000  Uiso   1.00
C423   C     0.90207   0.34822   0.24973   0.00000  Uiso   1.00
C424   C     0.65179   0.40204   0.75020   0.00000  Uiso   1.00
C425   C     0.84788   0.09832   0.25024   0.00000  Uiso   1.00
C426   C     0.90206   0.34817   0.75057   0.00000  Uiso   1.00
C427   C     0.59795   0.15176   0.25025   0.00000  Uiso   1.00
C428   C     0.84783   0.09829   0.74978   0.00000  Uiso   1.00
C429   C     0.65213   0.40166   0.25028   0.00000  Uiso   1.00
C430   C     0.99504   0.25068   0.47940   0.00000  Uiso   1.00
C431   C     0.75462   0.46742   0.91850   0.00000  Uiso   1.00
C432   C     0.99451   0.25054   0.52049   0.00000  Uiso   1.00
C433   C     0.74982   0.00039   0.47954   0.00000  Uiso   1.00
C434   C     0.74981   0.00041   0.52047   0.00000  Uiso   1.00
C435   C     0.74517   0.00004   0.97949   0.00000  Uiso   1.00
C436   C     0.74453   0.49980   0.02057   0.00000  Uiso   1.00
C437   C     0.99945   0.25540   0.97955   0.00000  Uiso   1.00
C438   C     0.99931   0.25475   0.02063   0.00000  Uiso   1.00
C439   C     0.96293   0.15555   0.45576   0.00000  Uiso   1.00
C440   C     0.97602   0.34989   0.53645   0.00000  Uiso   1.00
C441   C     0.83898   0.04814   0.45736   0.00000  Uiso   1.00
C442   C     0.74846   0.03330   0.08207   0.00000  Uiso   1.00
C443   C     0.66256   0.44967   0.54232   0.00000  Uiso   1.00
C444   C     0.52693   0.34743   0.46389   0.00000  Uiso   1.00
C445   C     0.95958   0.15555   0.54056   0.00000  Uiso   1.00
C446   C     0.66042   0.45297   0.45749   0.00000  Uiso   1.00
C447   C     0.83657   0.05182   0.54232   0.00000  Uiso   1.00
C448   C     0.72354   0.40197   0.95568   0.00000  Uiso   1.00
C449   C     0.71621   0.09680   0.03665   0.00000  Uiso   1.00
C450   C     0.59245   0.29564   0.95992   0.00000  Uiso   1.00
C451   C     0.90461   0.21748   0.03630   0.00000  Uiso   1.00
C452   C     0.76723   0.09951   0.96419   0.00000  Uiso   1.00
C453   C     0.53327   0.25688   0.91820   0.00000  Uiso   1.00
C454   C     0.71900   0.40179   0.04027   0.00000  Uiso   1.00
C455   C     0.89930   0.26787   0.96359   0.00000  Uiso   1.00
C456   C     0.59250   0.29176   0.04449   0.00000  Uiso   1.00
C457   C     0.67107   0.38639   0.18203   0.00000  Uiso   1.00
C458   C     0.82785   0.11460   0.81746   0.00000  Uiso   1.00
C459   C     0.61159   0.16948   0.18171   0.00000  Uiso   1.00
C460   C     0.87093   0.31588   0.80677   0.00000  Uiso   1.00
C461   C     0.82951   0.11307   0.18167   0.00000  Uiso   1.00
C462   C     0.61326   0.44395   0.70956   0.00000  Uiso   1.00
C463   C     0.94159   0.38443   0.29517   0.00000  Uiso   1.00
C464   C     0.96611   0.25196   0.08216   0.00000  Uiso   1.00
C465   C     0.61415   0.17192   0.81752   0.00000  Uiso   1.00
C466   C     0.67537   0.11876   0.81506   0.00000  Uiso   1.00
C467   C     0.88684   0.44449   0.28949   0.00000  Uiso   1.00
C468   C     0.55368   0.38888   0.71545   0.00000  Uiso   1.00
C469   C     0.88207   0.17476   0.18429   0.00000  Uiso   1.00
C470   C     0.81728   0.37553   0.80847   0.00000  Uiso   1.00
C471   C     0.67080   0.11344   0.18147   0.00000  Uiso   1.00
C472   C     0.88089   0.17597   0.81480   0.00000  Uiso   1.00
C473   C     0.61785   0.32530   0.18416   0.00000  Uiso   1.00
C474   C     0.92249   0.13490   0.68299   0.00000  Uiso   1.00
C475   C     0.99972   0.25048   0.39806   0.00000  Uiso   1.00
C476   C     0.57890   0.36346   0.31804   0.00000  Uiso   1.00
C477   C     0.87934   0.43421   0.69336   0.00000  Uiso   1.00
C478   C     0.63977   0.08246   0.31994   0.00000  Uiso   1.00
C479   C     0.63676   0.30603   0.79043   0.00000  Uiso   1.00
C480   C     0.92076   0.13681   0.31820   0.00000  Uiso   1.00
C481   C     0.63583   0.07810   0.68237   0.00000  Uiso   1.00
C482   C     0.80836   0.36552   0.20489   0.00000  Uiso   1.00
C483   C     0.86326   0.30558   0.21031   0.00000  Uiso   1.00
C484   C     0.57454   0.13122   0.68485   0.00000  Uiso   1.00
C485   C     0.86736   0.07595   0.31609   0.00000  Uiso   1.00
C486   C     0.99934   0.24991   0.60187   0.00000  Uiso   1.00
C487   C     0.69642   0.36101   0.78426   0.00000  Uiso   1.00
C488   C     0.57758   0.13414   0.31748   0.00000  Uiso   1.00
C489   C     0.93256   0.37424   0.69137   0.00000  Uiso   1.00
C490   C     0.63257   0.42408   0.31612   0.00000  Uiso   1.00
C491   C     0.86878   0.07426   0.68505   0.00000  Uiso   1.00
C492   C     0.98573   0.31736   0.39542   0.00000  Uiso   1.00
C493   C     0.50391   0.18133   0.60210   0.00000  Uiso   1.00
C494   C     0.68088   0.00353   0.39832   0.00000  Uiso   1.00
C495   C     0.81817   0.00036   0.60322   0.00000  Uiso   1.00
C496   C     0.51269   0.18338   0.39755   0.00000  Uiso   1.00
C497   C     0.74996   0.00007   0.39804   0.00000  Uiso   1.00
C498   C     0.51433   0.31630   0.60417   0.00000  Uiso   1.00
C499   C     0.81909   0.49668   0.39859   0.00000  Uiso   1.00
C500   C     0.68174   0.00045   0.60356   0.00000  Uiso   1.00
C501   C     0.72968   0.06569   0.89560   0.00000  Uiso   1.00
C502   C     0.75926   0.43175   0.10263   0.00000  Uiso   1.00
C503   C     0.93513   0.23114   0.89617   0.00000  Uiso   1.00
C504   C     0.56718   0.24023   0.10240   0.00000  Uiso   1.00
C505   C     0.77005   0.43510   0.89766   0.00000  Uiso   1.00
C506   C     0.75824   0.06719   0.10408   0.00000  Uiso   1.00
C507   C     0.56871   0.25229   0.89711   0.00000  Uiso   1.00
C508   C     0.99590   0.21651   0.58164   0.00000  Uiso   1.00
C509   C     0.74995   0.00007   0.60192   0.00000  Uiso   1.00
C510   C     0.93223   0.26073   0.10457   0.00000  Uiso   1.00
C511   C     0.74980   0.00039   0.89813   0.00000  Uiso   1.00
C512   C     0.74928   0.49971   0.10193   0.00000  Uiso   1.00
C513   C     0.50022   0.25082   0.89815   0.00000  Uiso   1.00
C514   C     0.99965   0.25016   0.10196   0.00000  Uiso   1.00
C515   C     0.98073   0.18533   0.47856   0.00000  Uiso   1.00
C516   C     0.99534   0.31730   0.51995   0.00000  Uiso   1.00
C517   C     0.81165   0.02625   0.47939   0.00000  Uiso   1.00
C518   C     0.68832   0.47382   0.52062   0.00000  Uiso   1.00
C519   C     0.50452   0.31689   0.48030   0.00000  Uiso   1.00
C520   C     0.71659   0.49694   0.41831   0.00000  Uiso   1.00
C521   C     0.97933   0.18529   0.51974   0.00000  Uiso   1.00
C522   C     0.68789   0.47476   0.47944   0.00000  Uiso   1.00
C523   C     0.81115   0.02731   0.52057   0.00000  Uiso   1.00
C524   C     0.73775   0.43355   0.97856   0.00000  Uiso   1.00
C525   C     0.73865   0.06632   0.02008   0.00000  Uiso   1.00
C526   C     0.56366   0.27429   0.98039   0.00000  Uiso   1.00
C527   C     0.93383   0.24152   0.01979   0.00000  Uiso   1.00
C528   C     0.74789   0.06688   0.98046   0.00000  Uiso   1.00
C529   C     0.73596   0.43336   0.01972   0.00000  Uiso   1.00
C530   C     0.93292   0.25057   0.98014   0.00000  Uiso   1.00
C531   C     0.78301   0.00462   0.58172   0.00000  Uiso   1.00
C532   C     0.56368   0.27261   0.02156   0.00000  Uiso   1.00
C533   C     0.75001   0.00001   0.35576   0.00000  Uiso   1.00
C534   C     0.75001   0.00000   0.64425   0.00000  Uiso   1.00
C535   C     0.99998   0.25005   0.35573   0.00000  Uiso   1.00
C536   C     0.99997   0.24996   0.64425   0.00000  Uiso   1.00
C537   C     0.50014   0.25007   0.85576   0.00000  Uiso   1.00
C538   C     0.50002   0.24999   0.14427   0.00000  Uiso   1.00
C539   C     0.74999   0.00004   0.85575   0.00000  Uiso   1.00
C540   C     0.74996   0.49993   0.14427   0.00000  Uiso   1.00
C541   C     0.68003   0.06997   0.25002   0.00000  Uiso   1.00
C542   C     0.50090   0.21719   0.41844   0.00000  Uiso   1.00
C543   C     0.82009   0.43016   0.74972   0.00000  Uiso   1.00
C544   C     0.92995   0.18012   0.24980   0.00000  Uiso   1.00
C545   C     0.57004   0.31990   0.75007   0.00000  Uiso   1.00
C546   C     0.81991   0.42999   0.24998   0.00000  Uiso   1.00
C547   C     0.68011   0.07004   0.75016   0.00000  Uiso   1.00
C548   C     0.57004   0.31987   0.24978   0.00000  Uiso   1.00
C549   C     0.92996   0.18010   0.75019   0.00000  Uiso   1.00
C550   C     0.67996   0.43010   0.74992   0.00000  Uiso   1.00
C551   C     0.82005   0.06990   0.25020   0.00000  Uiso   1.00
C552   C     0.92991   0.31983   0.75031   0.00000  Uiso   1.00
C553   C     0.50168   0.28346   0.58203   0.00000  Uiso   1.00
C554   C     0.56982   0.17988   0.25021   0.00000  Uiso   1.00
C555   C     0.82001   0.06991   0.74984   0.00000  Uiso   1.00
C556   C     0.67995   0.43011   0.25022   0.00000  Uiso   1.00
C557   C     0.56986   0.17994   0.74979   0.00000  Uiso   1.00
C558   C     0.93009   0.32001   0.25001   0.00000  Uiso   1.00
C559   C     0.64767   0.37964   0.21683   0.00000  Uiso   1.00
C560   C     0.85166   0.12093   0.78284   0.00000  Uiso   1.00
C561   C     0.61836   0.14573   0.21599   0.00000  Uiso   1.00
C562   C     0.87388   0.34701   0.77875   0.00000  Uiso   1.00
C563   C     0.85247   0.12020   0.21674   0.00000  Uiso   1.00
C564   C     0.78327   0.00342   0.41837   0.00000  Uiso   1.00
C565   C     0.61813   0.40910   0.73157   0.00000  Uiso   1.00
C566   C     0.90797   0.38080   0.27091   0.00000  Uiso   1.00
C567   C     0.62065   0.14815   0.78286   0.00000  Uiso   1.00
C568   C     0.64824   0.12124   0.78277   0.00000  Uiso   1.00
C569   C     0.88090   0.40827   0.27044   0.00000  Uiso   1.00
C570   C     0.59071   0.38199   0.73209   0.00000  Uiso   1.00
C571   C     0.87929   0.14787   0.21685   0.00000  Uiso   1.00
C572   C     0.84675   0.37440   0.77834   0.00000  Uiso   1.00
C573   C     0.64587   0.11869   0.21568   0.00000  Uiso   1.00
C574   C     0.87856   0.14854   0.78272   0.00000  Uiso   1.00
C575   C     0.71679   0.49592   0.58185   0.00000  Uiso   1.00
C576   C     0.62074   0.35209   0.21684   0.00000  Uiso   1.00
C577   C     0.89830   0.12897   0.71732   0.00000  Uiso   1.00
C578   C     0.60231   0.37023   0.28318   0.00000  Uiso   1.00
C579   C     0.87618   0.40300   0.72128   0.00000  Uiso   1.00
C580   C     0.63129   0.10396   0.28417   0.00000  Uiso   1.00
C581   C     0.63188   0.34088   0.76840   0.00000  Uiso   1.00
C582   C     0.89755   0.12987   0.28324   0.00000  Uiso   1.00
C583   C     0.62930   0.10185   0.71704   0.00000  Uiso   1.00
C584   C     0.84203   0.36919   0.22908   0.00000  Uiso   1.00
C585   C     0.86914   0.34174   0.22949   0.00000  Uiso   1.00
C586   C     0.74289   0.03332   0.91800   0.00000  Uiso   1.00
C587   C     0.60170   0.12875   0.71713   0.00000  Uiso   1.00
C588   C     0.87056   0.10239   0.28322   0.00000  Uiso   1.00
C589   C     0.65932   0.36797   0.76782   0.00000  Uiso   1.00
C590   C     0.60328   0.13038   0.28396   0.00000  Uiso   1.00
C591   C     0.90321   0.37553   0.72161   0.00000  Uiso   1.00
C592   C     0.62935   0.39767   0.28320   0.00000  Uiso   1.00
C593   C     0.87128   0.10152   0.71731   0.00000  Uiso   1.00
C594   C     0.99282   0.21719   0.45878   0.00000  Uiso   1.00
C595   C     0.99717   0.28411   0.54112   0.00000  Uiso   1.00
C596   C     0.78211   0.00974   0.45902   0.00000  Uiso   1.00
H597   H     0.94484   0.16260   0.43188   0.00000  Uiso   1.00
H598   H     0.70527   0.09502   0.06589   0.00000  Uiso   1.00
H599   H     0.58452   0.31766   0.94049   0.00000  Uiso   1.00
H600   H     0.90663   0.20705   0.06571   0.00000  Uiso   1.00
H601   H     0.77832   0.09904   0.93497   0.00000  Uiso   1.00
H602   H     0.69655   0.40660   0.06028   0.00000  Uiso   1.00
H603   H     0.89934   0.27898   0.93437   0.00000  Uiso   1.00
H604   H     0.58458   0.30911   0.06873   0.00000  Uiso   1.00
H605   H     0.69939   0.39445   0.18569   0.00000  Uiso   1.00
H606   H     0.79976   0.10578   0.81368   0.00000  Uiso   1.00
H607   H     0.61602   0.19877   0.18393   0.00000  Uiso   1.00
H608   H     0.96476   0.34918   0.56559   0.00000  Uiso   1.00
H609   H     0.84425   0.30575   0.81535   0.00000  Uiso   1.00
H610   H     0.80132   0.10436   0.18492   0.00000  Uiso   1.00
H611   H     0.62489   0.46926   0.72043   0.00000  Uiso   1.00
H612   H     0.96733   0.37305   0.28519   0.00000  Uiso   1.00
H613   H     0.60559   0.20013   0.81377   0.00000  Uiso   1.00
H614   H     0.68559   0.09239   0.82447   0.00000  Uiso   1.00
H615   H     0.86410   0.45899   0.30266   0.00000  Uiso   1.00
H616   H     0.53862   0.36684   0.70164   0.00000  Uiso   1.00
H617   H     0.90844   0.18512   0.17509   0.00000  Uiso   1.00
H618   H     0.79028   0.38568   0.80113   0.00000  Uiso   1.00
H619   H     0.82969   0.06776   0.43582   0.00000  Uiso   1.00
H620   H     0.69791   0.10207   0.18562   0.00000  Uiso   1.00
H621   H     0.90718   0.18631   0.82424   0.00000  Uiso   1.00
H622   H     0.59143   0.31511   0.17491   0.00000  Uiso   1.00
H623   H     0.95079   0.14273   0.68723   0.00000  Uiso   1.00
H624   H     0.55066   0.35501   0.31448   0.00000  Uiso   1.00
H625   H     0.90607   0.44359   0.68407   0.00000  Uiso   1.00
H626   H     0.64818   0.05407   0.31763   0.00000  Uiso   1.00
H627   H     0.62488   0.28077   0.77973   0.00000  Uiso   1.00
H628   H     0.94897   0.14536   0.31478   0.00000  Uiso   1.00
H629   H     0.64448   0.04991   0.68610   0.00000  Uiso   1.00
H630   H     0.67296   0.43240   0.56550   0.00000  Uiso   1.00
H631   H     0.78262   0.37684   0.21495   0.00000  Uiso   1.00
H632   H     0.88602   0.29122   0.19697   0.00000  Uiso   1.00
H633   H     0.56426   0.15757   0.67538   0.00000  Uiso   1.00
H634   H     0.84076   0.06674   0.32586   0.00000  Uiso   1.00
H635   H     0.71154   0.38300   0.79809   0.00000  Uiso   1.00
H636   H     0.56734   0.16076   0.32610   0.00000  Uiso   1.00
H637   H     0.95970   0.36450   0.69875   0.00000  Uiso   1.00
H638   H     0.65919   0.43314   0.32595   0.00000  Uiso   1.00
H639   H     0.84242   0.06422   0.67542   0.00000  Uiso   1.00
H640   H     0.99483   0.32096   0.36561   0.00000  Uiso   1.00
H641   H     0.53763   0.34592   0.43454   0.00000  Uiso   1.00
H642   H     0.51847   0.15979   0.58684   0.00000  Uiso   1.00
H643   H     0.65814   0.01467   0.41480   0.00000  Uiso   1.00
H644   H     0.82037   0.00856   0.63346   0.00000  Uiso   1.00
H645   H     0.50619   0.17943   0.36704   0.00000  Uiso   1.00
H646   H     0.50505   0.32103   0.63375   0.00000  Uiso   1.00
H647   H     0.84193   0.48628   0.41541   0.00000  Uiso   1.00
H648   H     0.67951   0.49205   0.63374   0.00000  Uiso   1.00
H649   H     0.73915   0.07051   0.86612   0.00000  Uiso   1.00
H650   H     0.77625   0.41165   0.08801   0.00000  Uiso   1.00
H651   H     0.92967   0.24010   0.86665   0.00000  Uiso   1.00
H652   H     0.93798   0.16256   0.56089   0.00000  Uiso   1.00
H653   H     0.57065   0.24640   0.13306   0.00000  Uiso   1.00
H654   H     0.76405   0.43042   0.86714   0.00000  Uiso   1.00
H655   H     0.74904   0.07098   0.13384   0.00000  Uiso   1.00
H656   H     0.59100   0.23780   0.91111   0.00000  Uiso   1.00
H657   H     0.92912   0.25169   0.13447   0.00000  Uiso   1.00
H658   H     0.66960   0.43317   0.43604   0.00000  Uiso   1.00
H659   H     0.82597   0.06867   0.56579   0.00000  Uiso   1.00
H660   H     0.70471   0.40690   0.93185   0.00000  Uiso   1.00
O661   O     0.75000   0.00000   0.25000   0.00000  Uiso   1.00
O662   O     0.75000   0.46964   0.66245   0.00000  Uiso   1.00
O663   O     0.89625   0.06155   0.67005   0.00000  Uiso   1.00
O664   O     0.96567   0.34052   0.40960   0.00000  Uiso   1.00
O665   O     0.99405   0.17573   0.63550   0.00000  Uiso   1.00
O666   O     0.67616   0.49647   0.36398   0.00000  Uiso   1.00
O667   O     0.84458   0.48606   0.58769   0.00000  Uiso   1.00
O668   O     0.53123   0.16030   0.41398   0.00000  Uiso   1.00
O669   O     0.53645   0.33751   0.59006   0.00000  Uiso   1.00
O670   O     0.82378   0.00262   0.36401   0.00000  Uiso   1.00
O671   O     0.65548   0.01523   0.58829   0.00000  Uiso   1.00
O672   O     0.70709   0.08656   0.90948   0.00000  Uiso   1.00
O673   O     0.96964   0.25000   0.33755   0.00000  Uiso   1.00
O674   O     0.74863   0.42521   0.13557   0.00000  Uiso   1.00
O675   O     0.91555   0.20763   0.91040   0.00000  Uiso   1.00
O676   O     0.59123   0.22316   0.08572   0.00000  Uiso   1.00
O677   O     0.79099   0.41421   0.91415   0.00000  Uiso   1.00
O678   O     0.77798   0.09046   0.08965   0.00000  Uiso   1.00
O679   O     0.57368   0.26515   0.86476   0.00000  Uiso   1.00
O680   O     0.90807   0.27943   0.09026   0.00000  Uiso   1.00
O681   O     0.53037   0.25000   0.66245   0.00000  Uiso   1.00
O682   O     0.50000   0.21964   0.83755   0.00000  Uiso   1.00
O683   O     0.50000   0.28037   0.16245   0.00000  Uiso   1.00
O684   O     0.78037   0.00000   0.83755   0.00000  Uiso   1.00
O685   O     0.71964   0.00000   0.16245   0.00000  Uiso   1.00
O686   O     0.50000   0.28037   0.83755   0.00000  Uiso   1.00
O687   O     0.50000   0.21964   0.16245   0.00000  Uiso   1.00
O688   O     0.71964   0.00000   0.83755   0.00000  Uiso   1.00
O689   O     0.75000   0.00000   0.75000   0.00000  Uiso   1.00
O690   O     0.78037   0.00000   0.16245   0.00000  Uiso   1.00
O691   O     0.70725   0.07308   0.27302   0.00000  Uiso   1.00
O692   O     0.79276   0.42693   0.72698   0.00000  Uiso   1.00
O693   O     0.92693   0.20725   0.27302   0.00000  Uiso   1.00
O694   O     0.57308   0.29276   0.72698   0.00000  Uiso   1.00
O695   O     0.79276   0.42693   0.27302   0.00000  Uiso   1.00
O696   O     0.70725   0.07308   0.72698   0.00000  Uiso   1.00
O697   O     0.57308   0.29276   0.27302   0.00000  Uiso   1.00
O698   O     0.92693   0.20725   0.72698   0.00000  Uiso   1.00
O699   O     0.70725   0.42693   0.72698   0.00000  Uiso   1.00
O700   O     0.50000   0.25000   0.25000   0.00000  Uiso   1.00
O701   O     0.79276   0.07308   0.27302   0.00000  Uiso   1.00
O702   O     0.92693   0.29276   0.72698   0.00000  Uiso   1.00
O703   O     0.57308   0.20725   0.27302   0.00000  Uiso   1.00
O704   O     0.79276   0.07308   0.72698   0.00000  Uiso   1.00
O705   O     0.70725   0.42693   0.27302   0.00000  Uiso   1.00
O706   O     0.57308   0.20725   0.72698   0.00000  Uiso   1.00
O707   O     0.92693   0.29276   0.27302   0.00000  Uiso   1.00
O708   O     0.95725   0.32308   0.77302   0.00000  Uiso   1.00
O709   O     0.54276   0.17693   0.22698   0.00000  Uiso   1.00
O710   O     0.67693   0.45725   0.77302   0.00000  Uiso   1.00
O711   O     0.50000   0.25000   0.75000   0.00000  Uiso   1.00
O712   O     0.82308   0.04276   0.22698   0.00000  Uiso   1.00
O713   O     0.54276   0.17693   0.77302   0.00000  Uiso   1.00
O714   O     0.95725   0.32308   0.22698   0.00000  Uiso   1.00
O715   O     0.82308   0.04276   0.77302   0.00000  Uiso   1.00
O716   O     0.67693   0.45725   0.22698   0.00000  Uiso   1.00
O717   O     0.95725   0.17693   0.22698   0.00000  Uiso   1.00
O718   O     0.54276   0.32308   0.77302   0.00000  Uiso   1.00
O719   O     0.67693   0.04276   0.22698   0.00000  Uiso   1.00
O720   O     0.82308   0.45725   0.77302   0.00000  Uiso   1.00
O721   O     0.54276   0.32308   0.22698   0.00000  Uiso   1.00
O722   O     0.75000   0.46964   0.33755   0.00000  Uiso   1.00
O723   O     0.95725   0.17693   0.77302   0.00000  Uiso   1.00
O724   O     0.82308   0.45725   0.22698   0.00000  Uiso   1.00
O725   O     0.67693   0.04276   0.77302   0.00000  Uiso   1.00
O726   O     0.96985   0.12338   0.46171   0.00000  Uiso   1.00
O727   O     0.96998   0.37704   0.51679   0.00000  Uiso   1.00
O728   O     0.87169   0.04265   0.46104   0.00000  Uiso   1.00
O729   O     0.62972   0.45022   0.53625   0.00000  Uiso   1.00
O730   O     0.53609   0.37353   0.48381   0.00000  Uiso   1.00
O731   O     0.96877   0.12360   0.53727   0.00000  Uiso   1.00
O732   O     0.62776   0.45874   0.46112   0.00000  Uiso   1.00
O733   O     0.75000   0.03037   0.66245   0.00000  Uiso   1.00
O734   O     0.86936   0.05205   0.53596   0.00000  Uiso   1.00
O735   O     0.73424   0.37083   0.96150   0.00000  Uiso   1.00
O736   O     0.70733   0.12315   0.01698   0.00000  Uiso   1.00
O737   O     0.62466   0.28736   0.96249   0.00000  Uiso   1.00
O738   O     0.87916   0.20671   0.01639   0.00000  Uiso   1.00
O739   O     0.77348   0.12647   0.98411   0.00000  Uiso   1.00
O740   O     0.73133   0.37090   0.03710   0.00000  Uiso   1.00
O741   O     0.87188   0.27245   0.98326   0.00000  Uiso   1.00
O742   O     0.62493   0.28676   0.03822   0.00000  Uiso   1.00
O743   O     0.65856   0.38459   0.14915   0.00000  Uiso   1.00
O744   O     0.53037   0.25000   0.33755   0.00000  Uiso   1.00
O745   O     0.83983   0.11754   0.85048   0.00000  Uiso   1.00
O746   O     0.59869   0.15679   0.15186   0.00000  Uiso   1.00
O747   O     0.89794   0.30169   0.82112   0.00000  Uiso   1.00
O748   O     0.84231   0.11525   0.14894   0.00000  Uiso   1.00
O749   O     0.59774   0.44440   0.67812   0.00000  Uiso   1.00
O750   O     0.94048   0.39855   0.32736   0.00000  Uiso   1.00
O751   O     0.61668   0.15977   0.85051   0.00000  Uiso   1.00
O752   O     0.68777   0.14627   0.83029   0.00000  Uiso   1.00
O753   O     0.91677   0.45926   0.28903   0.00000  Uiso   1.00
O754   O     0.53894   0.41872   0.71860   0.00000  Uiso   1.00
O755   O     0.96964   0.25000   0.66245   0.00000  Uiso   1.00
O756   O     0.85471   0.18686   0.16855   0.00000  Uiso   1.00
O757   O     0.82323   0.36667   0.84212   0.00000  Uiso   1.00
O758   O     0.66157   0.12097   0.14834   0.00000  Uiso   1.00
O759   O     0.85334   0.18851   0.82980   0.00000  Uiso   1.00
O760   O     0.64515   0.31310   0.16835   0.00000  Uiso   1.00
O761   O     0.91068   0.13264   0.64985   0.00000  Uiso   1.00
O762   O     0.59133   0.36564   0.35092   0.00000  Uiso   1.00
O763   O     0.85245   0.44935   0.67990   0.00000  Uiso   1.00
O764   O     0.63894   0.09667   0.35210   0.00000  Uiso   1.00
O765   O     0.65258   0.30552   0.82169   0.00000  Uiso   1.00
O766   O     0.75000   0.03037   0.33755   0.00000  Uiso   1.00
O767   O     0.90816   0.13465   0.35103   0.00000  Uiso   1.00
O768   O     0.63323   0.09024   0.64939   0.00000  Uiso   1.00
O769   O     0.80943   0.35143   0.17268   0.00000  Uiso   1.00
O770   O     0.83339   0.29070   0.21082   0.00000  Uiso   1.00
O771   O     0.56214   0.10368   0.66966   0.00000  Uiso   1.00
O772   O     0.89453   0.06307   0.33150   0.00000  Uiso   1.00
O773   O     0.71112   0.33118   0.78092   0.00000  Uiso   1.00
O774   O     0.56635   0.10724   0.33481   0.00000  Uiso   1.00
O775   O     0.92632   0.38245   0.65758   0.00000  Uiso   1.00
O776   O     0.60542   0.43708   0.33150   0.00000  Uiso   1.00
Zn777  Zn    0.70660   0.00000   0.21735   0.00000  Uiso   1.00
Zn778  Zn    0.54341   0.25000   0.28265   0.00000  Uiso   1.00
Zn779  Zn    0.75000   0.45660   0.71735   0.00000  Uiso   1.00
Zn780  Zn    0.75000   0.04341   0.28265   0.00000  Uiso   1.00
Zn781  Zn    0.54341   0.25000   0.71735   0.00000  Uiso   1.00
Zn782  Zn    0.95660   0.25000   0.28265   0.00000  Uiso   1.00
Zn783  Zn    0.75000   0.04341   0.71735   0.00000  Uiso   1.00
Zn784  Zn    0.75000   0.45660   0.28265   0.00000  Uiso   1.00
Zn785  Zn    0.79341   0.00000   0.78265   0.00000  Uiso   1.00
Zn786  Zn    0.50000   0.20660   0.21735   0.00000  Uiso   1.00
Zn787  Zn    0.50000   0.29341   0.78265   0.00000  Uiso   1.00
Zn788  Zn    0.79341   0.00000   0.21735   0.00000  Uiso   1.00
Zn789  Zn    0.70660   0.00000   0.78265   0.00000  Uiso   1.00
Zn790  Zn    0.50000   0.29341   0.21735   0.00000  Uiso   1.00
Zn791  Zn    0.50000   0.20660   0.78265   0.00000  Uiso   1.00
Zn792  Zn    0.95660   0.25000   0.71735   0.00000  Uiso   1.00
C793   C     0.49611   0.78396   0.41787   0.00000  Uiso   1.00
C794   C     0.24883   0.96609   0.08179   0.00000  Uiso   1.00
C795   C     0.21773   0.99036   0.54103   0.00000  Uiso   1.00
C796   C     0.49906   0.78421   0.45895   0.00000  Uiso   1.00
C797   C     0.49058   0.71696   0.54076   0.00000  Uiso   1.00
C798   C     0.21757   0.99097   0.45902   0.00000  Uiso   1.00
C799   C     0.28190   0.51047   0.54097   0.00000  Uiso   1.00
C800   C     0.24651   0.96652   0.95883   0.00000  Uiso   1.00
C801   C     0.24381   0.53347   0.04120   0.00000  Uiso   1.00
C802   C     0.03267   0.76155   0.95922   0.00000  Uiso   1.00
C803   C     0.46608   0.74887   0.04109   0.00000  Uiso   1.00
C804   C     0.24579   0.53382   0.95908   0.00000  Uiso   1.00
C805   C     0.46704   0.74605   0.91811   0.00000  Uiso   1.00
C806   C     0.24383   0.96599   0.04084   0.00000  Uiso   1.00
C807   C     0.46615   0.75067   0.95898   0.00000  Uiso   1.00
C808   C     0.03255   0.75876   0.04127   0.00000  Uiso   1.00
C809   C     0.09786   0.84824   0.24972   0.00000  Uiso   1.00
C810   C     0.40208   0.65172   0.75030   0.00000  Uiso   1.00
C811   C     0.15190   0.59808   0.24994   0.00000  Uiso   1.00
C812   C     0.34795   0.90182   0.74944   0.00000  Uiso   1.00
C813   C     0.40210   0.65177   0.24975   0.00000  Uiso   1.00
C814   C     0.09821   0.84795   0.74978   0.00000  Uiso   1.00
C815   C     0.34793   0.90177   0.25026   0.00000  Uiso   1.00
C816   C     0.03293   0.75061   0.08158   0.00000  Uiso   1.00
C817   C     0.15173   0.59791   0.75019   0.00000  Uiso   1.00
C818   C     0.09822   0.65207   0.74973   0.00000  Uiso   1.00
C819   C     0.40207   0.84822   0.24973   0.00000  Uiso   1.00
C820   C     0.15179   0.90204   0.75020   0.00000  Uiso   1.00
C821   C     0.34788   0.59832   0.25024   0.00000  Uiso   1.00
C822   C     0.40206   0.84817   0.75057   0.00000  Uiso   1.00
C823   C     0.09795   0.65176   0.25025   0.00000  Uiso   1.00
C824   C     0.34783   0.59829   0.74978   0.00000  Uiso   1.00
C825   C     0.15213   0.90166   0.25028   0.00000  Uiso   1.00
C826   C     0.49504   0.75068   0.47940   0.00000  Uiso   1.00
C827   C     0.25462   0.96742   0.91850   0.00000  Uiso   1.00
C828   C     0.49451   0.75054   0.52049   0.00000  Uiso   1.00
C829   C     0.24982   0.50039   0.47954   0.00000  Uiso   1.00
C830   C     0.24981   0.50041   0.52047   0.00000  Uiso   1.00
C831   C     0.24517   0.50004   0.97949   0.00000  Uiso   1.00
C832   C     0.24453   0.99980   0.02057   0.00000  Uiso   1.00
C833   C     0.49945   0.75540   0.97955   0.00000  Uiso   1.00
C834   C     0.49931   0.75475   0.02063   0.00000  Uiso   1.00
C835   C     0.46293   0.65555   0.45576   0.00000  Uiso   1.00
C836   C     0.47602   0.84989   0.53645   0.00000  Uiso   1.00
C837   C     0.33898   0.54814   0.45736   0.00000  Uiso   1.00
C838   C     0.24846   0.53330   0.08207   0.00000  Uiso   1.00
C839   C     0.16256   0.94967   0.54232   0.00000  Uiso   1.00
C840   C     0.02693   0.84743   0.46389   0.00000  Uiso   1.00
C841   C     0.45958   0.65555   0.54056   0.00000  Uiso   1.00
C842   C     0.16042   0.95297   0.45749   0.00000  Uiso   1.00
C843   C     0.33657   0.55182   0.54232   0.00000  Uiso   1.00
C844   C     0.22354   0.90197   0.95568   0.00000  Uiso   1.00
C845   C     0.21621   0.59680   0.03665   0.00000  Uiso   1.00
C846   C     0.09245   0.79564   0.95992   0.00000  Uiso   1.00
C847   C     0.40461   0.71748   0.03630   0.00000  Uiso   1.00
C848   C     0.26723   0.59951   0.96419   0.00000  Uiso   1.00
C849   C     0.03327   0.75688   0.91820   0.00000  Uiso   1.00
C850   C     0.21900   0.90179   0.04027   0.00000  Uiso   1.00
C851   C     0.39930   0.76787   0.96359   0.00000  Uiso   1.00
C852   C     0.09250   0.79176   0.04449   0.00000  Uiso   1.00
C853   C     0.17107   0.88639   0.18203   0.00000  Uiso   1.00
C854   C     0.32785   0.61460   0.81746   0.00000  Uiso   1.00
C855   C     0.11159   0.66948   0.18171   0.00000  Uiso   1.00
C856   C     0.37093   0.81588   0.80677   0.00000  Uiso   1.00
C857   C     0.32951   0.61307   0.18167   0.00000  Uiso   1.00
C858   C     0.11326   0.94395   0.70956   0.00000  Uiso   1.00
C859   C     0.44159   0.88443   0.29517   0.00000  Uiso   1.00
C860   C     0.46611   0.75196   0.08216   0.00000  Uiso   1.00
C861   C     0.11415   0.67192   0.81752   0.00000  Uiso   1.00
C862   C     0.17537   0.61876   0.81506   0.00000  Uiso   1.00
C863   C     0.38684   0.94449   0.28949   0.00000  Uiso   1.00
C864   C     0.05368   0.88888   0.71545   0.00000  Uiso   1.00
C865   C     0.38207   0.67476   0.18429   0.00000  Uiso   1.00
C866   C     0.31728   0.87553   0.80847   0.00000  Uiso   1.00
C867   C     0.17080   0.61344   0.18147   0.00000  Uiso   1.00
C868   C     0.38089   0.67597   0.81480   0.00000  Uiso   1.00
C869   C     0.11785   0.82530   0.18416   0.00000  Uiso   1.00
C870   C     0.42249   0.63490   0.68299   0.00000  Uiso   1.00
C871   C     0.49972   0.75048   0.39806   0.00000  Uiso   1.00
C872   C     0.07890   0.86346   0.31804   0.00000  Uiso   1.00
C873   C     0.37934   0.93421   0.69336   0.00000  Uiso   1.00
C874   C     0.13977   0.58246   0.31994   0.00000  Uiso   1.00
C875   C     0.13676   0.80603   0.79043   0.00000  Uiso   1.00
C876   C     0.42076   0.63681   0.31820   0.00000  Uiso   1.00
C877   C     0.13583   0.57810   0.68237   0.00000  Uiso   1.00
C878   C     0.30836   0.86552   0.20489   0.00000  Uiso   1.00
C879   C     0.36326   0.80558   0.21031   0.00000  Uiso   1.00
C880   C     0.07454   0.63122   0.68485   0.00000  Uiso   1.00
C881   C     0.36736   0.57595   0.31609   0.00000  Uiso   1.00
C882   C     0.49934   0.74991   0.60187   0.00000  Uiso   1.00
C883   C     0.19642   0.86101   0.78426   0.00000  Uiso   1.00
C884   C     0.07758   0.63414   0.31748   0.00000  Uiso   1.00
C885   C     0.43256   0.87424   0.69137   0.00000  Uiso   1.00
C886   C     0.13257   0.92408   0.31612   0.00000  Uiso   1.00
C887   C     0.36878   0.57426   0.68505   0.00000  Uiso   1.00
C888   C     0.48573   0.81736   0.39542   0.00000  Uiso   1.00
C889   C     0.00391   0.68133   0.60210   0.00000  Uiso   1.00
C890   C     0.18088   0.50353   0.39832   0.00000  Uiso   1.00
C891   C     0.31817   0.50036   0.60322   0.00000  Uiso   1.00
C892   C     0.01269   0.68338   0.39755   0.00000  Uiso   1.00
C893   C     0.24996   0.50007   0.39804   0.00000  Uiso   1.00
C894   C     0.01433   0.81630   0.60417   0.00000  Uiso   1.00
C895   C     0.31909   0.99668   0.39859   0.00000  Uiso   1.00
C896   C     0.18174   0.50045   0.60356   0.00000  Uiso   1.00
C897   C     0.22968   0.56569   0.89560   0.00000  Uiso   1.00
C898   C     0.25926   0.93175   0.10263   0.00000  Uiso   1.00
C899   C     0.43513   0.73114   0.89617   0.00000  Uiso   1.00
C900   C     0.06718   0.74023   0.10240   0.00000  Uiso   1.00
C901   C     0.27005   0.93510   0.89766   0.00000  Uiso   1.00
C902   C     0.25824   0.56719   0.10408   0.00000  Uiso   1.00
C903   C     0.06871   0.75229   0.89711   0.00000  Uiso   1.00
C904   C     0.49590   0.71651   0.58164   0.00000  Uiso   1.00
C905   C     0.24995   0.50007   0.60192   0.00000  Uiso   1.00
C906   C     0.43223   0.76073   0.10457   0.00000  Uiso   1.00
C907   C     0.24980   0.50039   0.89813   0.00000  Uiso   1.00
C908   C     0.24928   0.99971   0.10193   0.00000  Uiso   1.00
C909   C     0.00022   0.75082   0.89815   0.00000  Uiso   1.00
C910   C     0.49965   0.75016   0.10196   0.00000  Uiso   1.00
C911   C     0.48073   0.68533   0.47856   0.00000  Uiso   1.00
C912   C     0.49534   0.81730   0.51995   0.00000  Uiso   1.00
C913   C     0.31165   0.52625   0.47939   0.00000  Uiso   1.00
C914   C     0.18832   0.97382   0.52062   0.00000  Uiso   1.00
C915   C     0.00452   0.81689   0.48030   0.00000  Uiso   1.00
C916   C     0.21659   0.99694   0.41831   0.00000  Uiso   1.00
C917   C     0.47933   0.68529   0.51974   0.00000  Uiso   1.00
C918   C     0.18789   0.97476   0.47944   0.00000  Uiso   1.00
C919   C     0.31115   0.52731   0.52057   0.00000  Uiso   1.00
C920   C     0.23775   0.93355   0.97856   0.00000  Uiso   1.00
C921   C     0.23865   0.56632   0.02008   0.00000  Uiso   1.00
C922   C     0.06366   0.77429   0.98039   0.00000  Uiso   1.00
C923   C     0.43383   0.74152   0.01979   0.00000  Uiso   1.00
C924   C     0.24789   0.56688   0.98046   0.00000  Uiso   1.00
C925   C     0.23596   0.93336   0.01972   0.00000  Uiso   1.00
C926   C     0.43292   0.75057   0.98014   0.00000  Uiso   1.00
C927   C     0.28301   0.50462   0.58172   0.00000  Uiso   1.00
C928   C     0.06368   0.77261   0.02156   0.00000  Uiso   1.00
C929   C     0.25001   0.50001   0.35576   0.00000  Uiso   1.00
C930   C     0.25001   0.50000   0.64425   0.00000  Uiso   1.00
C931   C     0.49998   0.75005   0.35573   0.00000  Uiso   1.00
C932   C     0.49997   0.74996   0.64425   0.00000  Uiso   1.00
C933   C     0.00014   0.75007   0.85576   0.00000  Uiso   1.00
C934   C     0.00002   0.74999   0.14427   0.00000  Uiso   1.00
C935   C     0.24999   0.50004   0.85575   0.00000  Uiso   1.00
C936   C     0.24996   0.99993   0.14427   0.00000  Uiso   1.00
C937   C     0.18003   0.56997   0.25002   0.00000  Uiso   1.00
C938   C     0.00090   0.71719   0.41844   0.00000  Uiso   1.00
C939   C     0.32009   0.93016   0.74972   0.00000  Uiso   1.00
C940   C     0.42995   0.68012   0.24980   0.00000  Uiso   1.00
C941   C     0.07004   0.81990   0.75007   0.00000  Uiso   1.00
C942   C     0.31991   0.92999   0.24998   0.00000  Uiso   1.00
C943   C     0.18011   0.57004   0.75016   0.00000  Uiso   1.00
C944   C     0.07004   0.81987   0.24978   0.00000  Uiso   1.00
C945   C     0.42996   0.68010   0.75019   0.00000  Uiso   1.00
C946   C     0.17996   0.93010   0.74992   0.00000  Uiso   1.00
C947   C     0.32005   0.56990   0.25020   0.00000  Uiso   1.00
C948   C     0.42991   0.81983   0.75031   0.00000  Uiso   1.00
C949   C     0.00168   0.78346   0.58203   0.00000  Uiso   1.00
C950   C     0.06982   0.67988   0.25021   0.00000  Uiso   1.00
C951   C     0.32001   0.56991   0.74984   0.00000  Uiso   1.00
C952   C     0.17995   0.93011   0.25022   0.00000  Uiso   1.00
C953   C     0.06986   0.67994   0.74979   0.00000  Uiso   1.00
C954   C     0.43009   0.82001   0.25001   0.00000  Uiso   1.00
C955   C     0.14767   0.87964   0.21683   0.00000  Uiso   1.00
C956   C     0.35166   0.62093   0.78284   0.00000  Uiso   1.00
C957   C     0.11836   0.64573   0.21599   0.00000  Uiso   1.00
C958   C     0.37388   0.84701   0.77875   0.00000  Uiso   1.00
C959   C     0.35247   0.62020   0.21674   0.00000  Uiso   1.00
C960   C     0.28327   0.50342   0.41837   0.00000  Uiso   1.00
C961   C     0.11813   0.90910   0.73157   0.00000  Uiso   1.00
C962   C     0.40797   0.88080   0.27091   0.00000  Uiso   1.00
C963   C     0.12065   0.64815   0.78286   0.00000  Uiso   1.00
C964   C     0.14824   0.62124   0.78277   0.00000  Uiso   1.00
C965   C     0.38090   0.90827   0.27044   0.00000  Uiso   1.00
C966   C     0.09071   0.88199   0.73209   0.00000  Uiso   1.00
C967   C     0.37929   0.64787   0.21685   0.00000  Uiso   1.00
C968   C     0.34675   0.87440   0.77834   0.00000  Uiso   1.00
C969   C     0.14587   0.61869   0.21568   0.00000  Uiso   1.00
C970   C     0.37856   0.64854   0.78272   0.00000  Uiso   1.00
C971   C     0.21679   0.99592   0.58185   0.00000  Uiso   1.00
C972   C     0.12074   0.85209   0.21684   0.00000  Uiso   1.00
C973   C     0.39830   0.62897   0.71732   0.00000  Uiso   1.00
C974   C     0.10231   0.87023   0.28318   0.00000  Uiso   1.00
C975   C     0.37618   0.90300   0.72128   0.00000  Uiso   1.00
C976   C     0.13129   0.60396   0.28417   0.00000  Uiso   1.00
C977   C     0.13188   0.84088   0.76840   0.00000  Uiso   1.00
C978   C     0.39755   0.62987   0.28324   0.00000  Uiso   1.00
C979   C     0.12930   0.60185   0.71704   0.00000  Uiso   1.00
C980   C     0.34203   0.86919   0.22908   0.00000  Uiso   1.00
C981   C     0.36914   0.84174   0.22949   0.00000  Uiso   1.00
C982   C     0.24289   0.53332   0.91800   0.00000  Uiso   1.00
C983   C     0.10170   0.62875   0.71713   0.00000  Uiso   1.00
C984   C     0.37056   0.60239   0.28322   0.00000  Uiso   1.00
C985   C     0.15932   0.86797   0.76782   0.00000  Uiso   1.00
C986   C     0.10328   0.63038   0.28396   0.00000  Uiso   1.00
C987   C     0.40321   0.87553   0.72161   0.00000  Uiso   1.00
C988   C     0.12935   0.89767   0.28320   0.00000  Uiso   1.00
C989   C     0.37128   0.60152   0.71731   0.00000  Uiso   1.00
C990   C     0.49282   0.71719   0.45878   0.00000  Uiso   1.00
C991   C     0.49717   0.78411   0.54112   0.00000  Uiso   1.00
C992   C     0.28211   0.50974   0.45902   0.00000  Uiso   1.00
H993   H     0.44484   0.66260   0.43188   0.00000  Uiso   1.00
H994   H     0.20527   0.59502   0.06589   0.00000  Uiso   1.00
H995   H     0.08452   0.81766   0.94049   0.00000  Uiso   1.00
H996   H     0.40663   0.70705   0.06571   0.00000  Uiso   1.00
H997   H     0.27832   0.59904   0.93497   0.00000  Uiso   1.00
H998   H     0.19655   0.90660   0.06028   0.00000  Uiso   1.00
H999   H     0.39934   0.77898   0.93437   0.00000  Uiso   1.00
H1000  H     0.08458   0.80911   0.06873   0.00000  Uiso   1.00
H1001  H     0.19939   0.89445   0.18569   0.00000  Uiso   1.00
H1002  H     0.29976   0.60578   0.81368   0.00000  Uiso   1.00
H1003  H     0.11602   0.69877   0.18393   0.00000  Uiso   1.00
H1004  H     0.46476   0.84918   0.56559   0.00000  Uiso   1.00
H1005  H     0.34425   0.80575   0.81535   0.00000  Uiso   1.00
H1006  H     0.30132   0.60436   0.18492   0.00000  Uiso   1.00
H1007  H     0.12489   0.96926   0.72043   0.00000  Uiso   1.00
H1008  H     0.46733   0.87305   0.28519   0.00000  Uiso   1.00
H1009  H     0.10559   0.70013   0.81377   0.00000  Uiso   1.00
H1010  H     0.18559   0.59239   0.82447   0.00000  Uiso   1.00
H1011  H     0.36410   0.95899   0.30266   0.00000  Uiso   1.00
H1012  H     0.03862   0.86684   0.70164   0.00000  Uiso   1.00
H1013  H     0.40844   0.68512   0.17509   0.00000  Uiso   1.00
H1014  H     0.29028   0.88568   0.80113   0.00000  Uiso   1.00
H1015  H     0.32969   0.56776   0.43582   0.00000  Uiso   1.00
H1016  H     0.19791   0.60207   0.18562   0.00000  Uiso   1.00
H1017  H     0.40718   0.68631   0.82424   0.00000  Uiso   1.00
H1018  H     0.09143   0.81511   0.17491   0.00000  Uiso   1.00
H1019  H     0.45079   0.64273   0.68723   0.00000  Uiso   1.00
H1020  H     0.05066   0.85501   0.31448   0.00000  Uiso   1.00
H1021  H     0.40607   0.94359   0.68407   0.00000  Uiso   1.00
H1022  H     0.14818   0.55407   0.31763   0.00000  Uiso   1.00
H1023  H     0.12488   0.78077   0.77973   0.00000  Uiso   1.00
H1024  H     0.44897   0.64536   0.31478   0.00000  Uiso   1.00
H1025  H     0.14448   0.54991   0.68610   0.00000  Uiso   1.00
H1026  H     0.17296   0.93240   0.56550   0.00000  Uiso   1.00
H1027  H     0.28262   0.87684   0.21495   0.00000  Uiso   1.00
H1028  H     0.38602   0.79122   0.19697   0.00000  Uiso   1.00
H1029  H     0.06426   0.65757   0.67538   0.00000  Uiso   1.00
H1030  H     0.34076   0.56674   0.32586   0.00000  Uiso   1.00
H1031  H     0.21154   0.88300   0.79809   0.00000  Uiso   1.00
H1032  H     0.06734   0.66076   0.32610   0.00000  Uiso   1.00
H1033  H     0.45970   0.86450   0.69875   0.00000  Uiso   1.00
H1034  H     0.15919   0.93314   0.32595   0.00000  Uiso   1.00
H1035  H     0.34242   0.56422   0.67542   0.00000  Uiso   1.00
H1036  H     0.49483   0.82096   0.36561   0.00000  Uiso   1.00
H1037  H     0.03763   0.84592   0.43454   0.00000  Uiso   1.00
H1038  H     0.01847   0.65979   0.58684   0.00000  Uiso   1.00
H1039  H     0.15814   0.51467   0.41480   0.00000  Uiso   1.00
H1040  H     0.32037   0.50856   0.63346   0.00000  Uiso   1.00
H1041  H     0.00619   0.67943   0.36704   0.00000  Uiso   1.00
H1042  H     0.00505   0.82103   0.63375   0.00000  Uiso   1.00
H1043  H     0.34193   0.98628   0.41541   0.00000  Uiso   1.00
H1044  H     0.17951   0.99205   0.63374   0.00000  Uiso   1.00
H1045  H     0.23915   0.57051   0.86612   0.00000  Uiso   1.00
H1046  H     0.27625   0.91165   0.08801   0.00000  Uiso   1.00
H1047  H     0.42967   0.74010   0.86665   0.00000  Uiso   1.00
H1048  H     0.43798   0.66256   0.56089   0.00000  Uiso   1.00
H1049  H     0.07065   0.74640   0.13306   0.00000  Uiso   1.00
H1050  H     0.26405   0.93042   0.86714   0.00000  Uiso   1.00
H1051  H     0.24904   0.57098   0.13384   0.00000  Uiso   1.00
H1052  H     0.09100   0.73780   0.91111   0.00000  Uiso   1.00
H1053  H     0.42912   0.75169   0.13447   0.00000  Uiso   1.00
H1054  H     0.16960   0.93317   0.43604   0.00000  Uiso   1.00
H1055  H     0.32597   0.56867   0.56579   0.00000  Uiso   1.00
H1056  H     0.20471   0.90690   0.93185   0.00000  Uiso   1.00
O1057  O     0.25000   0.50000   0.25000   0.00000  Uiso   1.00
O1058  O     0.25000   0.96964   0.66245   0.00000  Uiso   1.00
O1059  O     0.39625   0.56155   0.67005   0.00000  Uiso   1.00
O1060  O     0.46567   0.84052   0.40960   0.00000  Uiso   1.00
O1061  O     0.49405   0.67573   0.63550   0.00000  Uiso   1.00
O1062  O     0.17616   0.99647   0.36398   0.00000  Uiso   1.00
O1063  O     0.34458   0.98606   0.58769   0.00000  Uiso   1.00
O1064  O     0.03123   0.66030   0.41398   0.00000  Uiso   1.00
O1065  O     0.03645   0.83751   0.59006   0.00000  Uiso   1.00
O1066  O     0.32378   0.50262   0.36401   0.00000  Uiso   1.00
O1067  O     0.15548   0.51523   0.58829   0.00000  Uiso   1.00
O1068  O     0.20709   0.58656   0.90948   0.00000  Uiso   1.00
O1069  O     0.46964   0.75000   0.33755   0.00000  Uiso   1.00
O1070  O     0.24863   0.92521   0.13557   0.00000  Uiso   1.00
O1071  O     0.41555   0.70763   0.91040   0.00000  Uiso   1.00
O1072  O     0.09123   0.72316   0.08572   0.00000  Uiso   1.00
O1073  O     0.29099   0.91421   0.91415   0.00000  Uiso   1.00
O1074  O     0.27798   0.59046   0.08965   0.00000  Uiso   1.00
O1075  O     0.07368   0.76515   0.86476   0.00000  Uiso   1.00
O1076  O     0.40807   0.77943   0.09026   0.00000  Uiso   1.00
O1077  O     0.03037   0.75000   0.66245   0.00000  Uiso   1.00
O1078  O     0.00000   0.71964   0.83755   0.00000  Uiso   1.00
O1079  O     0.00000   0.78037   0.16245   0.00000  Uiso   1.00
O1080  O     0.28037   0.50000   0.83755   0.00000  Uiso   1.00
O1081  O     0.21964   0.50000   0.16245   0.00000  Uiso   1.00
O1082  O     0.00000   0.78037   0.83755   0.00000  Uiso   1.00
O1083  O     0.00000   0.71964   0.16245   0.00000  Uiso   1.00
O1084  O     0.21964   0.50000   0.83755   0.00000  Uiso   1.00
O1085  O     0.25000   0.50000   0.75000   0.00000  Uiso   1.00
O1086  O     0.28037   0.50000   0.16245   0.00000  Uiso   1.00
O1087  O     0.20725   0.57308   0.27302   0.00000  Uiso   1.00
O1088  O     0.29276   0.92693   0.72698   0.00000  Uiso   1.00
O1089  O     0.42693   0.70725   0.27302   0.00000  Uiso   1.00
O1090  O     0.07308   0.79276   0.72698   0.00000  Uiso   1.00
O1091  O     0.29276   0.92693   0.27302   0.00000  Uiso   1.00
O1092  O     0.20725   0.57308   0.72698   0.00000  Uiso   1.00
O1093  O     0.07308   0.79276   0.27302   0.00000  Uiso   1.00
O1094  O     0.42693   0.70725   0.72698   0.00000  Uiso   1.00
O1095  O     0.20725   0.92693   0.72698   0.00000  Uiso   1.00
O1096  O     0.00000   0.75000   0.25000   0.00000  Uiso   1.00
O1097  O     0.29276   0.57308   0.27302   0.00000  Uiso   1.00
O1098  O     0.42693   0.79276   0.72698   0.00000  Uiso   1.00
O1099  O     0.07308   0.70725   0.27302   0.00000  Uiso   1.00
O1100  O     0.29276   0.57308   0.72698   0.00000  Uiso   1.00
O1101  O     0.20725   0.92693   0.27302   0.00000  Uiso   1.00
O1102  O     0.07308   0.70725   0.72698   0.00000  Uiso   1.00
O1103  O     0.42693   0.79276   0.27302   0.00000  Uiso   1.00
O1104  O     0.45725   0.82308   0.77302   0.00000  Uiso   1.00
O1105  O     0.04276   0.67693   0.22698   0.00000  Uiso   1.00
O1106  O     0.17693   0.95725   0.77302   0.00000  Uiso   1.00
O1107  O     0.00000   0.75000   0.75000   0.00000  Uiso   1.00
O1108  O     0.32308   0.54276   0.22698   0.00000  Uiso   1.00
O1109  O     0.04276   0.67693   0.77302   0.00000  Uiso   1.00
O1110  O     0.45725   0.82308   0.22698   0.00000  Uiso   1.00
O1111  O     0.32308   0.54276   0.77302   0.00000  Uiso   1.00
O1112  O     0.17693   0.95725   0.22698   0.00000  Uiso   1.00
O1113  O     0.45725   0.67693   0.22698   0.00000  Uiso   1.00
O1114  O     0.04276   0.82308   0.77302   0.00000  Uiso   1.00
O1115  O     0.17693   0.54276   0.22698   0.00000  Uiso   1.00
O1116  O     0.32308   0.95725   0.77302   0.00000  Uiso   1.00
O1117  O     0.04276   0.82308   0.22698   0.00000  Uiso   1.00
O1118  O     0.25000   0.96964   0.33755   0.00000  Uiso   1.00
O1119  O     0.45725   0.67693   0.77302   0.00000  Uiso   1.00
O1120  O     0.32308   0.95725   0.22698   0.00000  Uiso   1.00
O1121  O     0.17693   0.54276   0.77302   0.00000  Uiso   1.00
O1122  O     0.46985   0.62338   0.46171   0.00000  Uiso   1.00
O1123  O     0.46998   0.87704   0.51679   0.00000  Uiso   1.00
O1124  O     0.37169   0.54265   0.46104   0.00000  Uiso   1.00
O1125  O     0.12972   0.95022   0.53625   0.00000  Uiso   1.00
O1126  O     0.03609   0.87353   0.48381   0.00000  Uiso   1.00
O1127  O     0.46877   0.62360   0.53727   0.00000  Uiso   1.00
O1128  O     0.12776   0.95874   0.46112   0.00000  Uiso   1.00
O1129  O     0.25000   0.53037   0.66245   0.00000  Uiso   1.00
O1130  O     0.36936   0.55205   0.53596   0.00000  Uiso   1.00
O1131  O     0.23424   0.87083   0.96150   0.00000  Uiso   1.00
O1132  O     0.20733   0.62315   0.01698   0.00000  Uiso   1.00
O1133  O     0.12466   0.78736   0.96249   0.00000  Uiso   1.00
O1134  O     0.37916   0.70671   0.01639   0.00000  Uiso   1.00
O1135  O     0.27348   0.62647   0.98411   0.00000  Uiso   1.00
O1136  O     0.23133   0.87090   0.03710   0.00000  Uiso   1.00
O1137  O     0.37188   0.77245   0.98326   0.00000  Uiso   1.00
O1138  O     0.12493   0.78676   0.03822   0.00000  Uiso   1.00
O1139  O     0.15856   0.88459   0.14915   0.00000  Uiso   1.00
O1140  O     0.03037   0.75000   0.33755   0.00000  Uiso   1.00
O1141  O     0.33983   0.61754   0.85048   0.00000  Uiso   1.00
O1142  O     0.09869   0.65679   0.15186   0.00000  Uiso   1.00
O1143  O     0.39794   0.80169   0.82112   0.00000  Uiso   1.00
O1144  O     0.34231   0.61525   0.14894   0.00000  Uiso   1.00
O1145  O     0.09774   0.94440   0.67812   0.00000  Uiso   1.00
O1146  O     0.44048   0.89855   0.32736   0.00000  Uiso   1.00
O1147  O     0.11668   0.65977   0.85051   0.00000  Uiso   1.00
O1148  O     0.18777   0.64627   0.83029   0.00000  Uiso   1.00
O1149  O     0.41677   0.95926   0.28903   0.00000  Uiso   1.00
O1150  O     0.03894   0.91872   0.71860   0.00000  Uiso   1.00
O1151  O     0.46964   0.75000   0.66245   0.00000  Uiso   1.00
O1152  O     0.35471   0.68686   0.16855   0.00000  Uiso   1.00
O1153  O     0.32323   0.86667   0.84212   0.00000  Uiso   1.00
O1154  O     0.16157   0.62097   0.14834   0.00000  Uiso   1.00
O1155  O     0.35334   0.68851   0.82980   0.00000  Uiso   1.00
O1156  O     0.14515   0.81310   0.16835   0.00000  Uiso   1.00
O1157  O     0.41068   0.63264   0.64985   0.00000  Uiso   1.00
O1158  O     0.09133   0.86564   0.35092   0.00000  Uiso   1.00
O1159  O     0.35245   0.94935   0.67990   0.00000  Uiso   1.00
O1160  O     0.13894   0.59667   0.35210   0.00000  Uiso   1.00
O1161  O     0.15258   0.80552   0.82169   0.00000  Uiso   1.00
O1162  O     0.25000   0.53037   0.33755   0.00000  Uiso   1.00
O1163  O     0.40816   0.63465   0.35103   0.00000  Uiso   1.00
O1164  O     0.13323   0.59024   0.64939   0.00000  Uiso   1.00
O1165  O     0.30943   0.85143   0.17268   0.00000  Uiso   1.00
O1166  O     0.33339   0.79070   0.21082   0.00000  Uiso   1.00
O1167  O     0.06214   0.60368   0.66966   0.00000  Uiso   1.00
O1168  O     0.39453   0.56307   0.33150   0.00000  Uiso   1.00
O1169  O     0.21112   0.83118   0.78092   0.00000  Uiso   1.00
O1170  O     0.06635   0.60724   0.33481   0.00000  Uiso   1.00
O1171  O     0.42632   0.88245   0.65758   0.00000  Uiso   1.00
O1172  O     0.10542   0.93708   0.33150   0.00000  Uiso   1.00
Zn1173 Zn    0.20660   0.50000   0.21735   0.00000  Uiso   1.00
Zn1174 Zn    0.04341   0.75000   0.28265   0.00000  Uiso   1.00
Zn1175 Zn    0.25000   0.95660   0.71735   0.00000  Uiso   1.00
Zn1176 Zn    0.25000   0.54341   0.28265   0.00000  Uiso   1.00
Zn1177 Zn    0.04341   0.75000   0.71735   0.00000  Uiso   1.00
Zn1178 Zn    0.45660   0.75000   0.28265   0.00000  Uiso   1.00
Zn1179 Zn    0.25000   0.54341   0.71735   0.00000  Uiso   1.00
Zn1180 Zn    0.25000   0.95660   0.28265   0.00000  Uiso   1.00
Zn1181 Zn    0.29341   0.50000   0.78265   0.00000  Uiso   1.00
Zn1182 Zn    0.00000   0.70660   0.21735   0.00000  Uiso   1.00
Zn1183 Zn    0.00000   0.79341   0.78265   0.00000  Uiso   1.00
Zn1184 Zn    0.29341   0.50000   0.21735   0.00000  Uiso   1.00
Zn1185 Zn    0.20660   0.50000   0.78265   0.00000  Uiso   1.00
Zn1186 Zn    0.00000   0.79341   0.21735   0.00000  Uiso   1.00
Zn1187 Zn    0.00000   0.70660   0.78265   0.00000  Uiso   1.00
Zn1188 Zn    0.45660   0.75000   0.71735   0.00000  Uiso   1.00
C1189  C     0.99611   0.78396   0.41787   0.00000  Uiso   1.00
C1190  C     0.74883   0.96609   0.08179   0.00000  Uiso   1.00
C1191  C     0.71773   0.99036   0.54103   0.00000  Uiso   1.00
C1192  C     0.99906   0.78421   0.45895   0.00000  Uiso   1.00
C1193  C     0.99058   0.71696   0.54076   0.00000  Uiso   1.00
C1194  C     0.71757   0.99097   0.45902   0.00000  Uiso   1.00
C1195  C     0.78190   0.51047   0.54097   0.00000  Uiso   1.00
C1196  C     0.74651   0.96652   0.95883   0.00000  Uiso   1.00
C1197  C     0.74381   0.53347   0.04120   0.00000  Uiso   1.00
C1198  C     0.53267   0.76155   0.95922   0.00000  Uiso   1.00
C1199  C     0.96608   0.74887   0.04109   0.00000  Uiso   1.00
C1200  C     0.74579   0.53382   0.95908   0.00000  Uiso   1.00
C1201  C     0.96704   0.74605   0.91811   0.00000  Uiso   1.00
C1202  C     0.74383   0.96599   0.04084   0.00000  Uiso   1.00
C1203  C     0.96615   0.75067   0.95898   0.00000  Uiso   1.00
C1204  C     0.53255   0.75876   0.04127   0.00000  Uiso   1.00
C1205  C     0.59786   0.84824   0.24972   0.00000  Uiso   1.00
C1206  C     0.90208   0.65172   0.75030   0.00000  Uiso   1.00
C1207  C     0.65190   0.59808   0.24994   0.00000  Uiso   1.00
C1208  C     0.84795   0.90182   0.74944   0.00000  Uiso   1.00
C1209  C     0.90210   0.65177   0.24975   0.00000  Uiso   1.00
C1210  C     0.59821   0.84795   0.74978   0.00000  Uiso   1.00
C1211  C     0.84793   0.90177   0.25026   0.00000  Uiso   1.00
C1212  C     0.53293   0.75061   0.08158   0.00000  Uiso   1.00
C1213  C     0.65173   0.59791   0.75019   0.00000  Uiso   1.00
C1214  C     0.59822   0.65207   0.74973   0.00000  Uiso   1.00
C1215  C     0.90207   0.84822   0.24973   0.00000  Uiso   1.00
C1216  C     0.65179   0.90204   0.75020   0.00000  Uiso   1.00
C1217  C     0.84788   0.59832   0.25024   0.00000  Uiso   1.00
C1218  C     0.90206   0.84817   0.75057   0.00000  Uiso   1.00
C1219  C     0.59795   0.65176   0.25025   0.00000  Uiso   1.00
C1220  C     0.84783   0.59829   0.74978   0.00000  Uiso   1.00
C1221  C     0.65213   0.90166   0.25028   0.00000  Uiso   1.00
C1222  C     0.99504   0.75068   0.47940   0.00000  Uiso   1.00
C1223  C     0.75462   0.96742   0.91850   0.00000  Uiso   1.00
C1224  C     0.99451   0.75054   0.52049   0.00000  Uiso   1.00
C1225  C     0.74982   0.50039   0.47954   0.00000  Uiso   1.00
C1226  C     0.74981   0.50041   0.52047   0.00000  Uiso   1.00
C1227  C     0.74517   0.50004   0.97949   0.00000  Uiso   1.00
C1228  C     0.74453   0.99980   0.02057   0.00000  Uiso   1.00
C1229  C     0.99945   0.75540   0.97955   0.00000  Uiso   1.00
C1230  C     0.99931   0.75475   0.02063   0.00000  Uiso   1.00
C1231  C     0.96293   0.65555   0.45576   0.00000  Uiso   1.00
C1232  C     0.97602   0.84989   0.53645   0.00000  Uiso   1.00
C1233  C     0.83898   0.54814   0.45736   0.00000  Uiso   1.00
C1234  C     0.74846   0.53330   0.08207   0.00000  Uiso   1.00
C1235  C     0.66256   0.94967   0.54232   0.00000  Uiso   1.00
C1236  C     0.52693   0.84743   0.46389   0.00000  Uiso   1.00
C1237  C     0.95958   0.65555   0.54056   0.00000  Uiso   1.00
C1238  C     0.66042   0.95297   0.45749   0.00000  Uiso   1.00
C1239  C     0.83657   0.55182   0.54232   0.00000  Uiso   1.00
C1240  C     0.72354   0.90197   0.95568   0.00000  Uiso   1.00
C1241  C     0.71621   0.59680   0.03665   0.00000  Uiso   1.00
C1242  C     0.59245   0.79564   0.95992   0.00000  Uiso   1.00
C1243  C     0.90461   0.71748   0.03630   0.00000  Uiso   1.00
C1244  C     0.76723   0.59951   0.96419   0.00000  Uiso   1.00
C1245  C     0.53327   0.75688   0.91820   0.00000  Uiso   1.00
C1246  C     0.71900   0.90179   0.04027   0.00000  Uiso   1.00
C1247  C     0.89930   0.76787   0.96359   0.00000  Uiso   1.00
C1248  C     0.59250   0.79176   0.04449   0.00000  Uiso   1.00
C1249  C     0.67107   0.88639   0.18203   0.00000  Uiso   1.00
C1250  C     0.82785   0.61460   0.81746   0.00000  Uiso   1.00
C1251  C     0.61159   0.66948   0.18171   0.00000  Uiso   1.00
C1252  C     0.87093   0.81588   0.80677   0.00000  Uiso   1.00
C1253  C     0.82951   0.61307   0.18167   0.00000  Uiso   1.00
C1254  C     0.61326   0.94395   0.70956   0.00000  Uiso   1.00
C1255  C     0.94159   0.88443   0.29517   0.00000  Uiso   1.00
C1256  C     0.96611   0.75196   0.08216   0.00000  Uiso   1.00
C1257  C     0.61415   0.67192   0.81752   0.00000  Uiso   1.00
C1258  C     0.67537   0.61876   0.81506   0.00000  Uiso   1.00
C1259  C     0.88684   0.94449   0.28949   0.00000  Uiso   1.00
C1260  C     0.55368   0.88888   0.71545   0.00000  Uiso   1.00
C1261  C     0.88207   0.67476   0.18429   0.00000  Uiso   1.00
C1262  C     0.81728   0.87553   0.80847   0.00000  Uiso   1.00
C1263  C     0.67080   0.61344   0.18147   0.00000  Uiso   1.00
C1264  C     0.88089   0.67597   0.81480   0.00000  Uiso   1.00
C1265  C     0.61785   0.82530   0.18416   0.00000  Uiso   1.00
C1266  C     0.92249   0.63490   0.68299   0.00000  Uiso   1.00
C1267  C     0.99972   0.75048   0.39806   0.00000  Uiso   1.00
C1268  C     0.57890   0.86346   0.31804   0.00000  Uiso   1.00
C1269  C     0.87934   0.93421   0.69336   0.00000  Uiso   1.00
C1270  C     0.63977   0.58246   0.31994   0.00000  Uiso   1.00
C1271  C     0.63676   0.80603   0.79043   0.00000  Uiso   1.00
C1272  C     0.92076   0.63681   0.31820   0.00000  Uiso   1.00
C1273  C     0.63583   0.57810   0.68237   0.00000  Uiso   1.00
C1274  C     0.80836   0.86552   0.20489   0.00000  Uiso   1.00
C1275  C     0.86326   0.80558   0.21031   0.00000  Uiso   1.00
C1276  C     0.57454   0.63122   0.68485   0.00000  Uiso   1.00
C1277  C     0.86736   0.57595   0.31609   0.00000  Uiso   1.00
C1278  C     0.99934   0.74991   0.60187   0.00000  Uiso   1.00
C1279  C     0.69642   0.86101   0.78426   0.00000  Uiso   1.00
C1280  C     0.57758   0.63414   0.31748   0.00000  Uiso   1.00
C1281  C     0.93256   0.87424   0.69137   0.00000  Uiso   1.00
C1282  C     0.63257   0.92408   0.31612   0.00000  Uiso   1.00
C1283  C     0.86878   0.57426   0.68505   0.00000  Uiso   1.00
C1284  C     0.98573   0.81736   0.39542   0.00000  Uiso   1.00
C1285  C     0.50391   0.68133   0.60210   0.00000  Uiso   1.00
C1286  C     0.68088   0.50353   0.39832   0.00000  Uiso   1.00
C1287  C     0.81817   0.50036   0.60322   0.00000  Uiso   1.00
C1288  C     0.51269   0.68338   0.39755   0.00000  Uiso   1.00
C1289  C     0.74996   0.50007   0.39804   0.00000  Uiso   1.00
C1290  C     0.51433   0.81630   0.60417   0.00000  Uiso   1.00
C1291  C     0.81909   0.99668   0.39859   0.00000  Uiso   1.00
C1292  C     0.68174   0.50045   0.60356   0.00000  Uiso   1.00
C1293  C     0.72968   0.56569   0.89560   0.00000  Uiso   1.00
C1294  C     0.75926   0.93175   0.10263   0.00000  Uiso   1.00
C1295  C     0.93513   0.73114   0.89617   0.00000  Uiso   1.00
C1296  C     0.56718   0.74023   0.10240   0.00000  Uiso   1.00
C1297  C     0.77005   0.93510   0.89766   0.00000  Uiso   1.00
C1298  C     0.75824   0.56719   0.10408   0.00000  Uiso   1.00
C1299  C     0.56871   0.75229   0.89711   0.00000  Uiso   1.00
C1300  C     0.99590   0.71651   0.58164   0.00000  Uiso   1.00
C1301  C     0.74995   0.50007   0.60192   0.00000  Uiso   1.00
C1302  C     0.93223   0.76073   0.10457   0.00000  Uiso   1.00
C1303  C     0.74980   0.50039   0.89813   0.00000  Uiso   1.00
C1304  C     0.74928   0.99971   0.10193   0.00000  Uiso   1.00
C1305  C     0.50022   0.75082   0.89815   0.00000  Uiso   1.00
C1306  C     0.99965   0.75016   0.10196   0.00000  Uiso   1.00
C1307  C     0.98073   0.68533   0.47856   0.00000  Uiso   1.00
C1308  C     0.99534   0.81730   0.51995   0.00000  Uiso   1.00
C1309  C     0.81165   0.52625   0.47939   0.00000  Uiso   1.00
C1310  C     0.68832   0.97382   0.52062   0.00000  Uiso   1.00
C1311  C     0.50452   0.81689   0.48030   0.00000  Uiso   1.00
C1312  C     0.71659   0.99694   0.41831   0.00000  Uiso   1.00
C1313  C     0.97933   0.68529   0.51974   0.00000  Uiso   1.00
C1314  C     0.68789   0.97476   0.47944   0.00000  Uiso   1.00
C1315  C     0.81115   0.52731   0.52057   0.00000  Uiso   1.00
C1316  C     0.73775   0.93355   0.97856   0.00000  Uiso   1.00
C1317  C     0.73865   0.56632   0.02008   0.00000  Uiso   1.00
C1318  C     0.56366   0.77429   0.98039   0.00000  Uiso   1.00
C1319  C     0.93383   0.74152   0.01979   0.00000  Uiso   1.00
C1320  C     0.74789   0.56688   0.98046   0.00000  Uiso   1.00
C1321  C     0.73596   0.93336   0.01972   0.00000  Uiso   1.00
C1322  C     0.93292   0.75057   0.98014   0.00000  Uiso   1.00
C1323  C     0.78301   0.50462   0.58172   0.00000  Uiso   1.00
C1324  C     0.56368   0.77261   0.02156   0.00000  Uiso   1.00
C1325  C     0.75001   0.50001   0.35576   0.00000  Uiso   1.00
C1326  C     0.75001   0.50000   0.64425   0.00000  Uiso   1.00
C1327  C     0.99998   0.75005   0.35573   0.00000  Uiso   1.00
C1328  C     0.99997   0.74996   0.64425   0.00000  Uiso   1.00
C1329  C     0.50014   0.75007   0.85576   0.00000  Uiso   1.00
C1330  C     0.50002   0.74999   0.14427   0.00000  Uiso   1.00
C1331  C     0.74999   0.50004   0.85575   0.00000  Uiso   1.00
C1332  C     0.74996   0.99993   0.14427   0.00000  Uiso   1.00
C1333  C     0.68003   0.56997   0.25002   0.00000  Uiso   1.00
C1334  C     0.50090   0.71719   0.41844   0.00000  Uiso   1.00
C1335  C     0.82009   0.93016   0.74972   0.00000  Uiso   1.00
C1336  C     0.92995   0.68012   0.24980   0.00000  Uiso   1.00
C1337  C     0.57004   0.81990   0.75007   0.00000  Uiso   1.00
C1338  C     0.81991   0.92999   0.24998   0.00000  Uiso   1.00
C1339  C     0.68011   0.57004   0.75016   0.00000  Uiso   1.00
C1340  C     0.57004   0.81987   0.24978   0.00000  Uiso   1.00
C1341  C     0.92996   0.68010   0.75019   0.00000  Uiso   1.00
C1342  C     0.67996   0.93010   0.74992   0.00000  Uiso   1.00
C1343  C     0.82005   0.56990   0.25020   0.00000  Uiso   1.00
C1344  C     0.92991   0.81983   0.75031   0.00000  Uiso   1.00
C1345  C     0.50168   0.78346   0.58203   0.00000  Uiso   1.00
C1346  C     0.56982   0.67988   0.25021   0.00000  Uiso   1.00
C1347  C     0.82001   0.56991   0.74984   0.00000  Uiso   1.00
C1348  C     0.67995   0.93011   0.25022   0.00000  Uiso   1.00
C1349  C     0.56986   0.67994   0.74979   0.00000  Uiso   1.00
C1350  C     0.93009   0.82001   0.25001   0.00000  Uiso   1.00
C1351  C     0.64767   0.87964   0.21683   0.00000  Uiso   1.00
C1352  C     0.85166   0.62093   0.78284   0.00000  Uiso   1.00
C1353  C     0.61836   0.64573   0.21599   0.00000  Uiso   1.00
C1354  C     0.87388   0.84701   0.77875   0.00000  Uiso   1.00
C1355  C     0.85247   0.62020   0.21674   0.00000  Uiso   1.00
C1356  C     0.78327   0.50342   0.41837   0.00000  Uiso   1.00
C1357  C     0.61813   0.90910   0.73157   0.00000  Uiso   1.00
C1358  C     0.90797   0.88080   0.27091   0.00000  Uiso   1.00
C1359  C     0.62065   0.64815   0.78286   0.00000  Uiso   1.00
C1360  C     0.64824   0.62124   0.78277   0.00000  Uiso   1.00
C1361  C     0.88090   0.90827   0.27044   0.00000  Uiso   1.00
C1362  C     0.59071   0.88199   0.73209   0.00000  Uiso   1.00
C1363  C     0.87929   0.64787   0.21685   0.00000  Uiso   1.00
C1364  C     0.84675   0.87440   0.77834   0.00000  Uiso   1.00
C1365  C     0.64587   0.61869   0.21568   0.00000  Uiso   1.00
C1366  C     0.87856   0.64854   0.78272   0.00000  Uiso   1.00
C1367  C     0.71679   0.99592   0.58185   0.00000  Uiso   1.00
C1368  C     0.62074   0.85209   0.21684   0.00000  Uiso   1.00
C1369  C     0.89830   0.62897   0.71732   0.00000  Uiso   1.00
C1370  C     0.60231   0.87023   0.28318   0.00000  Uiso   1.00
C1371  C     0.87618   0.90300   0.72128   0.00000  Uiso   1.00
C1372  C     0.63129   0.60396   0.28417   0.00000  Uiso   1.00
C1373  C     0.63188   0.84088   0.76840   0.00000  Uiso   1.00
C1374  C     0.89755   0.62987   0.28324   0.00000  Uiso   1.00
C1375  C     0.62930   0.60185   0.71704   0.00000  Uiso   1.00
C1376  C     0.84203   0.86919   0.22908   0.00000  Uiso   1.00
C1377  C     0.86914   0.84174   0.22949   0.00000  Uiso   1.00
C1378  C     0.74289   0.53332   0.91800   0.00000  Uiso   1.00
C1379  C     0.60170   0.62875   0.71713   0.00000  Uiso   1.00
C1380  C     0.87056   0.60239   0.28322   0.00000  Uiso   1.00
C1381  C     0.65932   0.86797   0.76782   0.00000  Uiso   1.00
C1382  C     0.60328   0.63038   0.28396   0.00000  Uiso   1.00
C1383  C     0.90321   0.87553   0.72161   0.00000  Uiso   1.00
C1384  C     0.62935   0.89767   0.28320   0.00000  Uiso   1.00
C1385  C     0.87128   0.60152   0.71731   0.00000  Uiso   1.00
C1386  C     0.99282   0.71719   0.45878   0.00000  Uiso   1.00
C1387  C     0.99717   0.78411   0.54112   0.00000  Uiso   1.00
C1388  C     0.78211   0.50974   0.45902   0.00000  Uiso   1.00
H1389  H     0.94484   0.66260   0.43188   0.00000  Uiso   1.00
H1390  H     0.70527   0.59502   0.06589   0.00000  Uiso   1.00
H1391  H     0.58452   0.81766   0.94049   0.00000  Uiso   1.00
H1392  H     0.90663   0.70705   0.06571   0.00000  Uiso   1.00
H1393  H     0.77832   0.59904   0.93497   0.00000  Uiso   1.00
H1394  H     0.69655   0.90660   0.06028   0.00000  Uiso   1.00
H1395  H     0.89934   0.77898   0.93437   0.00000  Uiso   1.00
H1396  H     0.58458   0.80911   0.06873   0.00000  Uiso   1.00
H1397  H     0.69939   0.89445   0.18569   0.00000  Uiso   1.00
H1398  H     0.79976   0.60578   0.81368   0.00000  Uiso   1.00
H1399  H     0.61602   0.69877   0.18393   0.00000  Uiso   1.00
H1400  H     0.96476   0.84918   0.56559   0.00000  Uiso   1.00
H1401  H     0.84425   0.80575   0.81535   0.00000  Uiso   1.00
H1402  H     0.80132   0.60436   0.18492   0.00000  Uiso   1.00
H1403  H     0.62489   0.96926   0.72043   0.00000  Uiso   1.00
H1404  H     0.96733   0.87305   0.28519   0.00000  Uiso   1.00
H1405  H     0.60559   0.70013   0.81377   0.00000  Uiso   1.00
H1406  H     0.68559   0.59239   0.82447   0.00000  Uiso   1.00
H1407  H     0.86410   0.95899   0.30266   0.00000  Uiso   1.00
H1408  H     0.53862   0.86684   0.70164   0.00000  Uiso   1.00
H1409  H     0.90844   0.68512   0.17509   0.00000  Uiso   1.00
H1410  H     0.79028   0.88568   0.80113   0.00000  Uiso   1.00
H1411  H     0.82969   0.56776   0.43582   0.00000  Uiso   1.00
H1412  H     0.69791   0.60207   0.18562   0.00000  Uiso   1.00
H1413  H     0.90718   0.68631   0.82424   0.00000  Uiso   1.00
H1414  H     0.59143   0.81511   0.17491   0.00000  Uiso   1.00
H1415  H     0.95079   0.64273   0.68723   0.00000  Uiso   1.00
H1416  H     0.55066   0.85501   0.31448   0.00000  Uiso   1.00
H1417  H     0.90607   0.94359   0.68407   0.00000  Uiso   1.00
H1418  H     0.64818   0.55407   0.31763   0.00000  Uiso   1.00
H1419  H     0.62488   0.78077   0.77973   0.00000  Uiso   1.00
H1420  H     0.94897   0.64536   0.31478   0.00000  Uiso   1.00
H1421  H     0.64448   0.54991   0.68610   0.00000  Uiso   1.00
H1422  H     0.67296   0.93240   0.56550   0.00000  Uiso   1.00
H1423  H     0.78262   0.87684   0.21495   0.00000  Uiso   1.00
H1424  H     0.88602   0.79122   0.19697   0.00000  Uiso   1.00
H1425  H     0.56426   0.65757   0.67538   0.00000  Uiso   1.00
H1426  H     0.84076   0.56674   0.32586   0.00000  Uiso   1.00
H1427  H     0.71154   0.88300   0.79809   0.00000  Uiso   1.00
H1428  H     0.56734   0.66076   0.32610   0.00000  Uiso   1.00
H1429  H     0.95970   0.86450   0.69875   0.00000  Uiso   1.00
H1430  H     0.65919   0.93314   0.32595   0.00000  Uiso   1.00
H1431  H     0.84242   0.56422   0.67542   0.00000  Uiso   1.00
H1432  H     0.99483   0.82096   0.36561   0.00000  Uiso   1.00
H1433  H     0.53763   0.84592   0.43454   0.00000  Uiso   1.00
H1434  H     0.51847   0.65979   0.58684   0.00000  Uiso   1.00
H1435  H     0.65814   0.51467   0.41480   0.00000  Uiso   1.00
H1436  H     0.82037   0.50856   0.63346   0.00000  Uiso   1.00
H1437  H     0.50619   0.67943   0.36704   0.00000  Uiso   1.00
H1438  H     0.50505   0.82103   0.63375   0.00000  Uiso   1.00
H1439  H     0.84193   0.98628   0.41541   0.00000  Uiso   1.00
H1440  H     0.67951   0.99205   0.63374   0.00000  Uiso   1.00
H1441  H     0.73915   0.57051   0.86612   0.00000  Uiso   1.00
H1442  H     0.77625   0.91165   0.08801   0.00000  Uiso   1.00
H1443  H     0.92967   0.74010   0.86665   0.00000  Uiso   1.00
H1444  H     0.93798   0.66256   0.56089   0.00000  Uiso   1.00
H1445  H     0.57065   0.74640   0.13306   0.00000  Uiso   1.00
H1446  H     0.76405   0.93042   0.86714   0.00000  Uiso   1.00
H1447  H     0.74904   0.57098   0.13384   0.00000  Uiso   1.00
H1448  H     0.59100   0.73780   0.91111   0.00000  Uiso   1.00
H1449  H     0.92912   0.75169   0.13447   0.00000  Uiso   1.00
H1450  H     0.66960   0.93317   0.43604   0.00000  Uiso   1.00
H1451  H     0.82597   0.56867   0.56579   0.00000  Uiso   1.00
H1452  H     0.70471   0.90690   0.93185   0.00000  Uiso   1.00
O1453  O     0.75000   0.50000   0.25000   0.00000  Uiso   1.00
O1454  O     0.75000   0.96964   0.66245   0.00000  Uiso   1.00
O1455  O     0.89625   0.56155   0.67005   0.00000  Uiso   1.00
O1456  O     0.96567   0.84052   0.40960   0.00000  Uiso   1.00
O1457  O     0.99405   0.67573   0.63550   0.00000  Uiso   1.00
O1458  O     0.67616   0.99647   0.36398   0.00000  Uiso   1.00
O1459  O     0.84458   0.98606   0.58769   0.00000  Uiso   1.00
O1460  O     0.53123   0.66030   0.41398   0.00000  Uiso   1.00
O1461  O     0.53645   0.83751   0.59006   0.00000  Uiso   1.00
O1462  O     0.82378   0.50262   0.36401   0.00000  Uiso   1.00
O1463  O     0.65548   0.51523   0.58829   0.00000  Uiso   1.00
O1464  O     0.70709   0.58656   0.90948   0.00000  Uiso   1.00
O1465  O     0.96964   0.75000   0.33755   0.00000  Uiso   1.00
O1466  O     0.74863   0.92521   0.13557   0.00000  Uiso   1.00
O1467  O     0.91555   0.70763   0.91040   0.00000  Uiso   1.00
O1468  O     0.59123   0.72316   0.08572   0.00000  Uiso   1.00
O1469  O     0.79099   0.91421   0.91415   0.00000  Uiso   1.00
O1470  O     0.77798   0.59046   0.08965   0.00000  Uiso   1.00
O1471  O     0.57368   0.76515   0.86476   0.00000  Uiso   1.00
O1472  O     0.90807   0.77943   0.09026   0.00000  Uiso   1.00
O1473  O     0.53037   0.75000   0.66245   0.00000  Uiso   1.00
O1474  O     0.50000   0.71964   0.83755   0.00000  Uiso   1.00
O1475  O     0.50000   0.78037   0.16245   0.00000  Uiso   1.00
O1476  O     0.78037   0.50000   0.83755   0.00000  Uiso   1.00
O1477  O     0.71964   0.50000   0.16245   0.00000  Uiso   1.00
O1478  O     0.50000   0.78037   0.83755   0.00000  Uiso   1.00
O1479  O     0.50000   0.71964   0.16245   0.00000  Uiso   1.00
O1480  O     0.71964   0.50000   0.83755   0.00000  Uiso   1.00
O1481  O     0.75000   0.50000   0.75000   0.00000  Uiso   1.00
O1482  O     0.78037   0.50000   0.16245   0.00000  Uiso   1.00
O1483  O     0.70725   0.57308   0.27302   0.00000  Uiso   1.00
O1484  O     0.79276   0.92693   0.72698   0.00000  Uiso   1.00
O1485  O     0.92693   0.70725   0.27302   0.00000  Uiso   1.00
O1486  O     0.57308   0.79276   0.72698   0.00000  Uiso   1.00
O1487  O     0.79276   0.92693   0.27302   0.00000  Uiso   1.00
O1488  O     0.70725   0.57308   0.72698   0.00000  Uiso   1.00
O1489  O     0.57308   0.79276   0.27302   0.00000  Uiso   1.00
O1490  O     0.92693   0.70725   0.72698   0.00000  Uiso   1.00
O1491  O     0.70725   0.92693   0.72698   0.00000  Uiso   1.00
O1492  O     0.50000   0.75000   0.25000   0.00000  Uiso   1.00
O1493  O     0.79276   0.57308   0.27302   0.00000  Uiso   1.00
O1494  O     0.92693   0.79276   0.72698   0.00000  Uiso   1.00
O1495  O     0.57308   0.70725   0.27302   0.00000  Uiso   1.00
O1496  O     0.79276   0.57308   0.72698   0.00000  Uiso   1.00
O1497  O     0.70725   0.92693   0.27302   0.00000  Uiso   1.00
O1498  O     0.57308   0.70725   0.72698   0.00000  Uiso   1.00
O1499  O     0.92693   0.79276   0.27302   0.00000  Uiso   1.00
O1500  O     0.95725   0.82308   0.77302   0.00000  Uiso   1.00
O1501  O     0.54276   0.67693   0.22698   0.00000  Uiso   1.00
O1502  O     0.67693   0.95725   0.77302   0.00000  Uiso   1.00
O1503  O     0.50000   0.75000   0.75000   0.00000  Uiso   1.00
O1504  O     0.82308   0.54276   0.22698   0.00000  Uiso   1.00
O1505  O     0.54276   0.67693   0.77302   0.00000  Uiso   1.00
O1506  O     0.95725   0.82308   0.22698   0.00000  Uiso   1.00
O1507  O     0.82308   0.54276   0.77302   0.00000  Uiso   1.00
O1508  O     0.67693   0.95725   0.22698   0.00000  Uiso   1.00
O1509  O     0.95725   0.67693   0.22698   0.00000  Uiso   1.00
O1510  O     0.54276   0.82308   0.77302   0.00000  Uiso   1.00
O1511  O     0.67693   0.54276   0.22698   0.00000  Uiso   1.00
O1512  O     0.82308   0.95725   0.77302   0.00000  Uiso   1.00
O1513  O     0.54276   0.82308   0.22698   0.00000  Uiso   1.00
O1514  O     0.75000   0.96964   0.33755   0.00000  Uiso   1.00
O1515  O     0.95725   0.67693   0.77302   0.00000  Uiso   1.00
O1516  O     0.82308   0.95725   0.22698   0.00000  Uiso   1.00
O1517  O     0.67693   0.54276   0.77302   0.00000  Uiso   1.00
O1518  O     0.96985   0.62338   0.46171   0.00000  Uiso   1.00
O1519  O     0.96998   0.87704   0.51679   0.00000  Uiso   1.00
O1520  O     0.87169   0.54265   0.46104   0.00000  Uiso   1.00
O1521  O     0.62972   0.95022   0.53625   0.00000  Uiso   1.00
O1522  O     0.53609   0.87353   0.48381   0.00000  Uiso   1.00
O1523  O     0.96877   0.62360   0.53727   0.00000  Uiso   1.00
O1524  O     0.62776   0.95874   0.46112   0.00000  Uiso   1.00
O1525  O     0.75000   0.53037   0.66245   0.00000  Uiso   1.00
O1526  O     0.86936   0.55205   0.53596   0.00000  Uiso   1.00
O1527  O     0.73424   0.87083   0.96150   0.00000  Uiso   1.00
O1528  O     0.70733   0.62315   0.01698   0.00000  Uiso   1.00
O1529  O     0.62466   0.78736   0.96249   0.00000  Uiso   1.00
O1530  O     0.87916   0.70671   0.01639   0.00000  Uiso   1.00
O1531  O     0.77348   0.62647   0.98411   0.00000  Uiso   1.00
O1532  O     0.73133   0.87090   0.03710   0.00000  Uiso   1.00
O1533  O     0.87188   0.77245   0.98326   0.00000  Uiso   1.00
O1534  O     0.62493   0.78676   0.03822   0.00000  Uiso   1.00
O1535  O     0.65856   0.88459   0.14915   0.00000  Uiso   1.00
O1536  O     0.53037   0.75000   0.33755   0.00000  Uiso   1.00
O1537  O     0.83983   0.61754   0.85048   0.00000  Uiso   1.00
O1538  O     0.59869   0.65679   0.15186   0.00000  Uiso   1.00
O1539  O     0.89794   0.80169   0.82112   0.00000  Uiso   1.00
O1540  O     0.84231   0.61525   0.14894   0.00000  Uiso   1.00
O1541  O     0.59774   0.94440   0.67812   0.00000  Uiso   1.00
O1542  O     0.94048   0.89855   0.32736   0.00000  Uiso   1.00
O1543  O     0.61668   0.65977   0.85051   0.00000  Uiso   1.00
O1544  O     0.68777   0.64627   0.83029   0.00000  Uiso   1.00
O1545  O     0.91677   0.95926   0.28903   0.00000  Uiso   1.00
O1546  O     0.53894   0.91872   0.71860   0.00000  Uiso   1.00
O1547  O     0.96964   0.75000   0.66245   0.00000  Uiso   1.00
O1548  O     0.85471   0.68686   0.16855   0.00000  Uiso   1.00
O1549  O     0.82323   0.86667   0.84212   0.00000  Uiso   1.00
O1550  O     0.66157   0.62097   0.14834   0.00000  Uiso   1.00
O1551  O     0.85334   0.68851   0.82980   0.00000  Uiso   1.00
O1552  O     0.64515   0.81310   0.16835   0.00000  Uiso   1.00
O1553  O     0.91068   0.63264   0.64985   0.00000  Uiso   1.00
O1554  O     0.59133   0.86564   0.35092   0.00000  Uiso   1.00
O1555  O     0.85245   0.94935   0.67990   0.00000  Uiso   1.00
O1556  O     0.63894   0.59667   0.35210   0.00000  Uiso   1.00
O1557  O     0.65258   0.80552   0.82169   0.00000  Uiso   1.00
O1558  O     0.75000   0.53037   0.33755   0.00000  Uiso   1.00
O1559  O     0.90816   0.63465   0.35103   0.00000  Uiso   1.00
O1560  O     0.63323   0.59024   0.64939   0.00000  Uiso   1.00
O1561  O     0.80943   0.85143   0.17268   0.00000  Uiso   1.00
O1562  O     0.83339   0.79070   0.21082   0.00000  Uiso   1.00
O1563  O     0.56214   0.60368   0.66966   0.00000  Uiso   1.00
O1564  O     0.89453   0.56307   0.33150   0.00000  Uiso   1.00
O1565  O     0.71112   0.83118   0.78092   0.00000  Uiso   1.00
O1566  O     0.56635   0.60724   0.33481   0.00000  Uiso   1.00
O1567  O     0.92632   0.88245   0.65758   0.00000  Uiso   1.00
O1568  O     0.60542   0.93708   0.33150   0.00000  Uiso   1.00
Zn1569 Zn    0.70660   0.50000   0.21735   0.00000  Uiso   1.00
Zn1570 Zn    0.54341   0.75000   0.28265   0.00000  Uiso   1.00
Zn1571 Zn    0.75000   0.95660   0.71735   0.00000  Uiso   1.00
Zn1572 Zn    0.75000   0.54341   0.28265   0.00000  Uiso   1.00
Zn1573 Zn    0.54341   0.75000   0.71735   0.00000  Uiso   1.00
Zn1574 Zn    0.95660   0.75000   0.28265   0.00000  Uiso   1.00
Zn1575 Zn    0.75000   0.54341   0.71735   0.00000  Uiso   1.00
Zn1576 Zn    0.75000   0.95660   0.28265   0.00000  Uiso   1.00
Zn1577 Zn    0.79341   0.50000   0.78265   0.00000  Uiso   1.00
Zn1578 Zn    0.50000   0.70660   0.21735   0.00000  Uiso   1.00
Zn1579 Zn    0.50000   0.79341   0.78265   0.00000  Uiso   1.00
Zn1580 Zn    0.79341   0.50000   0.21735   0.00000  Uiso   1.00
Zn1581 Zn    0.70660   0.50000   0.78265   0.00000  Uiso   1.00
Zn1582 Zn    0.50000   0.79341   0.21735   0.00000  Uiso   1.00
Zn1583 Zn    0.50000   0.70660   0.78265   0.00000  Uiso   1.00
Zn1584 Zn    0.95660   0.75000   0.71735   0.00000  Uiso   1.00
loop_
_geom_bond_atom_site_label_1
_geom_bond_atom_site_label_2
_geom_bond_distance
_geom_bond_site_symmetry_2
_ccdc_geom_bond_type
C1     C79     1.406   .     A
C1     C4      1.416   .     A
C1     C96     1.494   .     S
C2     C116    1.410   .     A
C2     C14     1.419   .     A
C2     C106    1.495   .     S
C3     C179    1.417   .     A
C3     C122    1.420   .     A
C3     C830    1.419   .     S
C4     C34     1.421   .     A
C4     C519    1.416   .     S
C5     C36     1.419   .     A
C5     C125    1.425   .     A
C5     C112    1.419   .     A
C6     C126    1.423   .     A
C6     C124    1.417   .     A
C6     C829    1.418   .     S
C7     C127    1.420   .     A
C7     C135    1.417   .     A
C7     C38     1.418   .     A
C8     C35     1.418   .     A
C8     C128    1.420   .     A
C8     C831    1.416   .     S
C9     C46     1.415   .     A
C9     C129    1.416   .     A
C9     C832    1.420   1_545 S
C10    C130    1.426   .     A
C10    C57     1.420   .     A
C10    C437    1.420   1_455 S
C11    C68     1.416   .     A
C11    C42     1.421   .     A
C11    C131    1.415   .     A
C12    C132    1.416   .     A
C12    C39     1.421   .     A
C12    C190    1.416   .     A
C13    C15     1.415   .     A
C13    C107    1.494   .     S
C13    C513    1.405   .     S
C14    C133    1.425   .     A
C14    C40     1.419   .     A
C15    C134    1.417   .     A
C15    C41     1.420   .     A
C16    C136    1.419   .     A
C16    C24     1.417   .     A
C16    C438    1.416   1_455 S
C17    C182    1.412   .     A
C17    C152    1.454   .     S
C17    C180    1.413   .     A
C18    C181    1.412   .     A
C18    C178    1.413   .     A
C18    C153    1.455   .     S
C19    C177    1.415   .     A
C19    C145    1.454   .     S
C19    C184    1.413   .     A
C20    C176    1.412   .     A
C20    C147    1.453   .     S
C20    C183    1.416   .     A
C21    C148    1.454   .     S
C21    C186    1.412   .     A
C21    C175    1.413   .     A
C22    C149    1.454   .     S
C22    C174    1.412   .     A
C22    C185    1.412   .     A
C23    C188    1.412   .     A
C23    C150    1.454   .     S
C23    C173    1.412   .     A
C24    C108    1.493   .     S
C24    C514    1.405   1_455 S
C25    C187    1.412   .     A
C25    C151    1.454   .     S
C25    C172    1.413   .     A
C26    C191    1.413   .     A
C26    C161    1.454   .     S
C26    C171    1.412   .     A
C27    C162    1.454   .     S
C27    C170    1.412   .     A
C27    C189    1.412   .     A
C28    C169    1.412   .     A
C28    C154    1.455   .     S
C28    C193    1.412   .     A
C29    C155    1.455   .     S
C29    C167    1.412   .     A
C29    C192    1.413   .     A
C30    C156    1.453   .     S
C30    C195    1.412   .     A
C30    C166    1.415   .     A
C31    C158    1.455   .     S
C31    C165    1.411   .     A
C31    C194    1.411   .     A
C32    C164    1.412   .     A
C32    C159    1.454   .     S
C32    C197    1.412   .     A
C33    C163    1.412   .     A
C33    C196    1.413   .     A
C33    C160    1.455   .     S
C34    C198    1.416   .     A
C34    C36     1.412   .     A
C35    C109    1.492   .     S
C35    C907    1.405   .     S
C36    C199    1.420   .     A
C37    C38     1.407   .     A
C37    C200    1.418   .     A
C37    C798    1.418   1_545 S
C38    C795    1.419   1_545 S
C39    C800    1.416   1_545 S
C39    C832    1.412   1_546 S
C40    C801    1.420   .     S
C40    C831    1.412   1_554 S
C41    C406    1.420   .     S
C41    C42     1.412   1_556 S
C42    C412    1.416   .     S
C42    C41     1.412   1_554 S
C43    H201    1.086   .     S
C43    O330    1.220   .     D
C43    C119    1.491   .     S
C44    C120    1.496   .     S
C44    H212    1.083   .     S
C44    O331    1.221   .     D
C45    C121    1.488   .     S
C45    H223    1.085   .     S
C45    O332    1.220   .     D
C46    C110    1.495   .     S
C46    C908    1.405   1_545 S
C47    O333    1.220   .     D
C47    H234    1.086   .     S
C47    C122    1.492   .     S
C48    O334    1.221   .     D
C48    C123    1.496   .     S
C48    H245    1.083   .     S
C49    O335    1.220   .     D
C49    H256    1.086   .     S
C49    C125    1.489   .     S
C50    H262    1.086   .     S
C50    O336    1.220   .     D
C50    C126    1.488   .     S
C51    O338    1.220   .     D
C51    H263    1.086   .     S
C51    C127    1.492   .     S
C52    O339    1.220   .     D
C52    C128    1.490   .     S
C52    H264    1.086   .     S
C53    C129    1.496   .     S
C53    O340    1.221   .     D
C53    H202    1.083   .     S
C54    C130    1.488   .     S
C54    H203    1.085   .     S
C54    O341    1.220   .     D
C55    C131    1.496   .     S
C55    H204    1.083   .     S
C55    O342    1.221   .     D
C56    H205    1.083   .     S
C56    O343    1.221   .     D
C56    C132    1.496   .     S
C57    C111    1.494   .     S
C57    C117    1.410   .     A
C58    O344    1.220   .     D
C58    C133    1.489   .     S
C58    H206    1.086   .     S
C59    O345    1.221   .     D
C59    C134    1.496   .     S
C59    H207    1.083   .     S
C60    O346    1.220   .     D
C60    H208    1.086   .     S
C60    C136    1.491   .     S
C61    O347    1.221   .     D
C61    C163    1.491   .     S
C61    H209    1.085   .     S
C62    H210    1.085   .     S
C62    C164    1.493   .     S
C62    O349    1.221   .     D
C63    H211    1.085   .     S
C63    C165    1.485   .     S
C63    O350    1.221   .     D
C64    H213    1.085   .     S
C64    C166    1.495   .     S
C64    O351    1.221   .     D
C65    C167    1.492   .     S
C65    H214    1.085   .     S
C65    O352    1.221   .     D
C66    H215    1.085   .     S
C66    C169    1.493   .     S
C66    O353    1.221   .     D
C67    H216    1.085   .     S
C67    C170    1.493   .     S
C67    O354    1.221   .     D
C68    C118    1.405   .     A
C68    C114    1.494   .     S
C69    O355    1.221   .     D
C69    H217    1.085   .     S
C69    C171    1.493   .     S
C70    H218    1.083   .     S
C70    O356    1.221   .     D
C70    C172    1.492   .     S
C71    O357    1.221   .     D
C71    H219    1.085   .     S
C71    C173    1.492   .     S
C72    O358    1.221   .     D
C72    H220    1.085   .     S
C72    C174    1.493   .     S
C73    C175    1.493   .     S
C73    H221    1.084   .     S
C73    O360    1.221   .     D
C74    C176    1.495   .     S
C74    O361    1.221   .     D
C74    H222    1.085   .     S
C75    O362    1.219   .     D
C75    C177    1.500   .     S
C75    H224    1.085   .     S
C76    H225    1.084   .     S
C76    O363    1.221   .     D
C76    C178    1.492   .     S
C77    C180    1.493   .     S
C77    H226    1.084   .     S
C77    O364    1.221   .     D
C78    C181    1.491   .     S
C78    H227    1.084   .     S
C78    O365    1.221   .     D
C79    C139    1.455   .     S
C79    C542    1.405   .     S
C80    C182    1.493   .     S
C80    O366    1.221   .     D
C80    H228    1.086   .     S
C81    H229    1.085   .     S
C81    O367    1.220   .     D
C81    C183    1.495   .     S
C82    O368    1.221   .     D
C82    C184    1.492   .     S
C82    H230    1.085   .     S
C83    O369    1.221   .     D
C83    H231    1.085   .     S
C83    C185    1.493   .     S
C84    H232    1.085   .     S
C84    O371    1.221   .     D
C84    C186    1.493   .     S
C85    H233    1.085   .     S
C85    C187    1.493   .     S
C85    O372    1.221   .     D
C86    C188    1.493   .     S
C86    O373    1.221   .     D
C86    H235    1.085   .     S
C87    H236    1.085   .     S
C87    O374    1.221   .     D
C87    C189    1.492   .     S
C88    C191    1.493   .     S
C88    O375    1.221   .     D
C88    H237    1.084   .     S
C89    H238    1.083   .     S
C89    C192    1.492   .     S
C89    O376    1.221   .     D
C90    C140    1.457   .     S
C90    C112    1.410   .     A
C90    C553    1.406   .     S
C91    C193    1.493   .     S
C91    O377    1.221   .     D
C91    H239    1.085   .     S
C92    C194    1.493   .     S
C92    H240    1.083   .     S
C92    O378    1.221   .     D
C93    H241    1.085   .     S
C93    O379    1.221   .     D
C93    C195    1.495   .     S
C94    C196    1.491   .     S
C94    O380    1.221   .     D
C94    H242    1.083   .     S
C95    C197    1.493   .     S
C95    O267    1.221   .     D
C95    H243    1.084   .     S
C96    H244    1.085   .     S
C96    O268    1.221   .     D
C97    H246    1.085   .     S
C97    C508    1.495   1_455 S
C97    O665    1.220   1_455 S
C98    H247    1.085   .     S
C98    C916    1.496   1_545 S
C98    O1062   1.220   1_545 S
C99    C135    1.492   .     S
C99    H248    1.085   .     S
C99    O1063   1.221   1_545 S
C100   H249    1.085   .     S
C100   O272    1.221   .     D
C100   C146    1.492   .     S
C101   C137    1.453   .     S
C101   C168    1.410   .     A
C101   C916    1.410   1_545 S
C102   O273    1.221   .     D
C102   C157    1.494   .     S
C102   H250    1.085   .     S
C103   H251    1.085   .     S
C103   C960    1.497   .     S
C103   O1066   1.220   .     S
C104   O275    1.221   .     D
C104   C971    1.493   1_545 S
C104   H1044   1.085   1_545 S
C105   H253    1.085   .     S
C105   O276    1.221   .     D
C105   C190    1.492   .     S
C106   O278    1.221   .     D
C106   H254    1.085   .     S
C107   H255    1.085   .     S
C107   O279    1.221   .     D
C108   H257    1.085   .     S
C108   O280    1.221   .     D
C109   O281    1.221   .     D
C109   H258    1.085   .     S
C110   O282    1.221   .     D
C110   H259    1.085   .     S
C111   H260    1.085   .     S
C111   O283    1.221   .     D
C112   C493    1.495   .     S
C113   C135    1.404   .     A
C113   C138    1.455   .     S
C113   C971    1.404   1_545 S
C114   H261    1.085   .     S
C114   O284    1.221   .     D
C115   C190    1.406   .     A
C115   C143    1.456   .     S
C115   C827    1.405   1_545 S
C116   C144    1.456   .     S
C116   C838    1.405   .     S
C117   C141    1.457   .     S
C117   C409    1.405   1_455 S
C118   C420    1.405   .     S
C118   C538    1.454   .     S
C119   C198    1.419   .     A
C119   C125    1.416   .     A
C120   C199    1.417   .     A
C120   C519    1.404   .     S
C121   C127    1.416   .     A
C121   C200    1.423   .     A
C122   C126    1.416   .     A
C123   C400    1.416   1_455 S
C123   C516    1.404   1_455 S
C124   C890    1.496   .     S
C124   C893    1.410   .     S
C128   C133    1.416   1_556 S
C129   C132    1.403   1_554 S
C130   C136    1.416   1_556 S
C131   C134    1.403   1_554 S
C132   C129    1.403   1_556 S
C133   C128    1.416   1_554 S
C134   C131    1.403   1_556 S
C136   C130    1.416   1_554 S
C137   O370    1.274   .     A
C137   O1118   1.274   1_545 S
C138   O337    1.273   .     A
C138   O1058   1.274   1_545 S
C139   O277    1.275   .     A
C139   O744    1.275   .     S
C140   O359    1.274   .     A
C140   O681    1.277   .     S
C141   O290    1.272   .     A
C141   O286    1.276   .     S
C142   O287    1.274   .     A
C142   O291    1.274   .     A
C142   C514    1.454   1_455 S
C143   O292    1.275   .     A
C143   O288    1.275   .     A
C144   O1081   1.273   .     S
C144   O1086   1.276   .     S
C145   O295    1.277   .     A
C145   O323    1.276   .     A
C146   C475    1.405   1_455 S
C146   C594    1.417   1_455 S
C147   O296    1.275   .     A
C147   O324    1.278   .     A
C148   O321    1.275   .     A
C148   O297    1.277   .     A
C149   O298    1.275   .     A
C149   O322    1.277   .     A
C150   O328    1.277   .     A
C150   O299    1.275   .     A
C151   O300    1.278   .     A
C151   O329    1.275   .     A
C152   O301    1.278   .     A
C152   O325    1.275   .     A
C153   O302    1.278   .     A
C153   O327    1.276   .     A
C154   O303    1.277   .     A
C154   O314    1.275   .     A
C155   O305    1.275   .     A
C155   O316    1.278   .     A
C156   O312    1.275   .     A
C156   O306    1.278   .     A
C157   C486    1.406   1_455 S
C157   C595    1.416   1_455 S
C158   O313    1.277   .     A
C158   O307    1.276   .     A
C159   O308    1.275   .     A
C159   O319    1.278   .     A
C160   O309    1.275   .     A
C160   O320    1.279   .     A
C161   O317    1.278   .     A
C161   O310    1.275   .     A
C162   O318    1.275   .     A
C162   O311    1.277   .     A
C163   C180    1.409   .     A
C164   C178    1.410   .     A
C165   C177    1.410   .     A
C166   C176    1.410   .     A
C167   C175    1.410   .     A
C168   C200    1.417   .     A
C168   C895    1.497   1_545 S
C169   C174    1.410   .     A
C170   C173    1.411   .     A
C171   C172    1.409   .     A
C179   C896    1.493   .     S
C179   C905    1.404   .     S
C181   C197    1.409   .     A
C182   C196    1.409   .     A
C183   C195    1.410   .     A
C184   C194    1.408   .     A
C185   C193    1.410   .     A
C186   C192    1.409   .     A
C187   C191    1.410   .     A
C188   C189    1.411   .     A
C198   C542    1.417   .     S
C199   C553    1.416   .     S
H252   C896    1.085   .     S
O265   Zn392   1.944   .     S
O265   Zn384   1.943   .     S
O265   Zn381   1.945   .     S
O265   Zn1180  1.944   1_545 S
O266   Zn383   1.946   .     S
O266   C930    1.274   .     S
O269   C493    1.220   .     S
O270   C890    1.220   .     S
O271   C891    1.221   .     S
O274   C895    1.220   1_545 S
O277   Zn386   1.946   .     S
O285   Zn385   1.946   .     S
O285   C536    1.277   1_455 S
O286   Zn395   1.946   .     S
O287   Zn394   1.946   .     S
O288   Zn389   1.946   .     S
O289   Zn381   1.946   .     S
O289   C936    1.273   1_545 S
O290   Zn391   1.946   .     S
O291   Zn390   1.946   .     S
O292   Zn393   1.946   .     S
O293   Zn393   1.944   .     S
O293   Zn387   1.944   .     S
O293   Zn389   1.945   .     S
O293   Zn1175  1.943   1_545 S
O294   Zn392   1.946   .     S
O294   C936    1.276   1_545 S
O295   Zn384   1.932   .     S
O296   Zn383   1.932   .     S
O297   Zn386   1.932   .     S
O298   Zn385   1.932   .     S
O299   Zn388   1.932   .     S
O300   Zn387   1.932   .     S
O301   Zn382   1.932   .     S
O302   Zn396   1.932   .     S
O303   Zn383   1.933   .     S
O304   Zn782   1.944   1_455 S
O304   Zn382   1.945   .     S
O304   Zn390   1.943   .     S
O304   Zn394   1.944   .     S
O305   Zn384   1.933   .     S
O306   Zn396   1.931   .     S
O307   Zn382   1.931   .     S
O308   Zn387   1.933   .     S
O309   Zn388   1.933   .     S
O310   Zn385   1.931   .     S
O311   Zn386   1.931   .     S
O312   Zn787   1.932   .     S
O313   Zn390   1.932   .     S
O314   Zn1185  1.932   .     S
O315   Zn391   1.943   .     S
O315   Zn385   1.944   .     S
O315   Zn395   1.944   .     S
O315   Zn792   1.945   1_455 S
O316   Zn392   1.932   .     S
O317   Zn395   1.932   .     S
O318   Zn790   1.932   .     S
O319   Zn389   1.932   .     S
O320   Zn1173  1.932   .     S
O321   Zn786   1.933   .     S
O322   Zn391   1.933   .     S
O323   Zn381   1.931   .     S
O324   Zn1181  1.931   .     S
O325   Zn394   1.933   .     S
O326   Zn388   1.946   .     S
O326   C929    1.274   .     S
O327   Zn791   1.933   .     S
O328   Zn1184  1.931   .     S
O329   Zn393   1.931   .     S
O337   Zn387   1.946   .     S
O348   Zn382   1.946   .     S
O348   C535    1.275   1_455 S
O359   Zn396   1.946   .     S
O370   Zn384   1.946   .     S
Zn381  O1112   1.932   1_545 S
Zn383  O1085   1.943   .     S
Zn386  O700    1.944   .     S
Zn388  O1057   1.944   .     S
Zn389  O1116   1.931   1_545 S
Zn390  O717    1.933   1_455 S
Zn391  O708    1.932   1_455 S
Zn392  O1120   1.931   1_545 S
Zn393  O1106   1.932   1_545 S
Zn394  O714    1.932   1_455 S
Zn395  O723    1.933   1_455 S
Zn396  O711    1.945   .     S
C397   C475    1.406   .     A
C397   C400    1.416   .     A
C397   C492    1.494   .     S
C398   C512    1.410   .     A
C398   C410    1.419   .     A
C398   C502    1.495   .     S
C399   C575    1.417   .     A
C399   C518    1.420   .     A
C399   C1226   1.419   .     S
C400   C430    1.421   .     A
C400   C123    1.416   1_655 S
C401   C432    1.419   .     A
C401   C521    1.425   .     A
C401   C508    1.419   .     A
C402   C522    1.423   .     A
C402   C520    1.417   .     A
C402   C1225   1.418   .     S
C403   C523    1.420   .     A
C403   C531    1.417   .     A
C403   C434    1.418   .     A
C404   C431    1.418   .     A
C404   C524    1.420   .     A
C404   C1227   1.416   .     S
C405   C442    1.415   .     A
C405   C525    1.416   .     A
C405   C1228   1.420   1_545 S
C406   C526    1.426   .     A
C406   C453    1.420   .     A
C407   C464    1.416   .     A
C407   C438    1.421   .     A
C407   C527    1.415   .     A
C408   C528    1.416   .     A
C408   C435    1.421   .     A
C408   C586    1.416   .     A
C409   C411    1.415   .     A
C409   C503    1.494   .     S
C409   C117    1.405   1_655 S
C410   C529    1.425   .     A
C410   C436    1.419   .     A
C411   C530    1.417   .     A
C411   C437    1.420   .     A
C412   C532    1.419   .     A
C412   C420    1.417   .     A
C413   C578    1.412   .     A
C413   C548    1.454   .     S
C413   C576    1.413   .     A
C414   C577    1.412   .     A
C414   C574    1.413   .     A
C414   C549    1.455   .     S
C415   C573    1.415   .     A
C415   C541    1.454   .     S
C415   C580    1.413   .     A
C416   C572    1.412   .     A
C416   C543    1.453   .     S
C416   C579    1.416   .     A
C417   C544    1.454   .     S
C417   C582    1.412   .     A
C417   C571    1.413   .     A
C418   C545    1.454   .     S
C418   C570    1.412   .     A
C418   C581    1.412   .     A
C419   C584    1.412   .     A
C419   C546    1.454   .     S
C419   C569    1.412   .     A
C420   C504    1.493   .     S
C421   C583    1.412   .     A
C421   C547    1.454   .     S
C421   C568    1.413   .     A
C422   C587    1.413   .     A
C422   C557    1.454   .     S
C422   C567    1.412   .     A
C423   C558    1.454   .     S
C423   C566    1.412   .     A
C423   C585    1.412   .     A
C424   C565    1.412   .     A
C424   C550    1.455   .     S
C424   C589    1.412   .     A
C425   C551    1.455   .     S
C425   C563    1.412   .     A
C425   C588    1.413   .     A
C426   C552    1.453   .     S
C426   C591    1.412   .     A
C426   C562    1.415   .     A
C427   C554    1.455   .     S
C427   C561    1.411   .     A
C427   C590    1.411   .     A
C428   C560    1.412   .     A
C428   C555    1.454   .     S
C428   C593    1.412   .     A
C429   C559    1.412   .     A
C429   C592    1.413   .     A
C429   C556    1.455   .     S
C430   C594    1.416   .     A
C430   C432    1.412   .     A
C431   C505    1.492   .     S
C431   C1303   1.405   .     S
C432   C595    1.420   .     A
C433   C434    1.407   .     A
C433   C596    1.418   .     A
C433   C1194   1.418   1_545 S
C434   C1191   1.419   1_545 S
C435   C1196   1.416   1_545 S
C435   C1228   1.412   1_546 S
C436   C1197   1.420   .     S
C436   C1227   1.412   1_554 S
C437   C10     1.420   1_655 S
C437   C438    1.412   1_556 S
C438   C16     1.416   1_655 S
C438   C437    1.412   1_554 S
C439   H597    1.086   .     S
C439   O726    1.220   .     D
C439   C515    1.491   .     S
C440   C516    1.496   .     S
C440   H608    1.083   .     S
C440   O727    1.221   .     D
C441   C517    1.488   .     S
C441   H619    1.085   .     S
C441   O728    1.220   .     D
C442   C506    1.495   .     S
C442   C1304   1.405   1_545 S
C443   O729    1.220   .     D
C443   H630    1.086   .     S
C443   C518    1.492   .     S
C444   O730    1.221   .     D
C444   C519    1.496   .     S
C444   H641    1.083   .     S
C445   O731    1.220   .     D
C445   H652    1.086   .     S
C445   C521    1.489   .     S
C446   H658    1.086   .     S
C446   O732    1.220   .     D
C446   C522    1.488   .     S
C447   O734    1.220   .     D
C447   H659    1.086   .     S
C447   C523    1.492   .     S
C448   O735    1.220   .     D
C448   C524    1.490   .     S
C448   H660    1.086   .     S
C449   C525    1.496   .     S
C449   O736    1.221   .     D
C449   H598    1.083   .     S
C450   C526    1.488   .     S
C450   H599    1.085   .     S
C450   O737    1.220   .     D
C451   C527    1.496   .     S
C451   H600    1.083   .     S
C451   O738    1.221   .     D
C452   H601    1.083   .     S
C452   O739    1.221   .     D
C452   C528    1.496   .     S
C453   C507    1.494   .     S
C453   C513    1.410   .     A
C454   O740    1.220   .     D
C454   C529    1.489   .     S
C454   H602    1.086   .     S
C455   O741    1.221   .     D
C455   C530    1.496   .     S
C455   H603    1.083   .     S
C456   O742    1.220   .     D
C456   H604    1.086   .     S
C456   C532    1.491   .     S
C457   O743    1.221   .     D
C457   C559    1.491   .     S
C457   H605    1.085   .     S
C458   H606    1.085   .     S
C458   C560    1.493   .     S
C458   O745    1.221   .     D
C459   H607    1.085   .     S
C459   C561    1.485   .     S
C459   O746    1.221   .     D
C460   H609    1.085   .     S
C460   C562    1.495   .     S
C460   O747    1.221   .     D
C461   C563    1.492   .     S
C461   H610    1.085   .     S
C461   O748    1.221   .     D
C462   H611    1.085   .     S
C462   C565    1.493   .     S
C462   O749    1.221   .     D
C463   H612    1.085   .     S
C463   C566    1.493   .     S
C463   O750    1.221   .     D
C464   C514    1.405   .     A
C464   C510    1.494   .     S
C465   O751    1.221   .     D
C465   H613    1.085   .     S
C465   C567    1.493   .     S
C466   H614    1.083   .     S
C466   O752    1.221   .     D
C466   C568    1.492   .     S
C467   O753    1.221   .     D
C467   H615    1.085   .     S
C467   C569    1.492   .     S
C468   O754    1.221   .     D
C468   H616    1.085   .     S
C468   C570    1.493   .     S
C469   C571    1.493   .     S
C469   H617    1.084   .     S
C469   O756    1.221   .     D
C470   C572    1.495   .     S
C470   O757    1.221   .     D
C470   H618    1.085   .     S
C471   O758    1.219   .     D
C471   C573    1.500   .     S
C471   H620    1.085   .     S
C472   H621    1.084   .     S
C472   O759    1.221   .     D
C472   C574    1.492   .     S
C473   C576    1.493   .     S
C473   H622    1.084   .     S
C473   O760    1.221   .     D
C474   C577    1.491   .     S
C474   H623    1.084   .     S
C474   O761    1.221   .     D
C475   C535    1.455   .     S
C475   C146    1.405   1_655 S
C476   C578    1.493   .     S
C476   O762    1.221   .     D
C476   H624    1.086   .     S
C477   H625    1.085   .     S
C477   O763    1.220   .     D
C477   C579    1.495   .     S
C478   O764    1.221   .     D
C478   C580    1.492   .     S
C478   H626    1.085   .     S
C479   O765    1.221   .     D
C479   H627    1.085   .     S
C479   C581    1.493   .     S
C480   H628    1.085   .     S
C480   O767    1.221   .     D
C480   C582    1.493   .     S
C481   H629    1.085   .     S
C481   C583    1.493   .     S
C481   O768    1.221   .     D
C482   C584    1.493   .     S
C482   O769    1.221   .     D
C482   H631    1.085   .     S
C483   H632    1.085   .     S
C483   O770    1.221   .     D
C483   C585    1.492   .     S
C484   C587    1.493   .     S
C484   O771    1.221   .     D
C484   H633    1.084   .     S
C485   H634    1.083   .     S
C485   C588    1.492   .     S
C485   O772    1.221   .     D
C486   C536    1.457   .     S
C486   C508    1.410   .     A
C486   C157    1.406   1_655 S
C487   C589    1.493   .     S
C487   O773    1.221   .     D
C487   H635    1.085   .     S
C488   C590    1.493   .     S
C488   H636    1.083   .     S
C488   O774    1.221   .     D
C489   H637    1.085   .     S
C489   O775    1.221   .     D
C489   C591    1.495   .     S
C490   C592    1.491   .     S
C490   O776    1.221   .     D
C490   H638    1.083   .     S
C491   C593    1.493   .     S
C491   O663    1.221   .     D
C491   H639    1.084   .     S
C492   H640    1.085   .     S
C492   O664    1.221   .     D
C493   H642    1.085   .     S
C494   H643    1.085   .     S
C494   C1312   1.496   1_545 S
C494   O1458   1.220   1_545 S
C495   C531    1.492   .     S
C495   H644    1.085   .     S
C495   O1459   1.221   1_545 S
C496   H645    1.085   .     S
C496   O668    1.221   .     D
C496   C542    1.492   .     S
C497   C533    1.453   .     S
C497   C564    1.410   .     A
C497   C1312   1.410   1_545 S
C498   O669    1.221   .     D
C498   C553    1.494   .     S
C498   H646    1.085   .     S
C499   H647    1.085   .     S
C499   C1356   1.497   .     S
C499   O1462   1.220   .     S
C500   O671    1.221   .     D
C500   C1367   1.493   1_545 S
C500   H1440   1.085   1_545 S
C501   H649    1.085   .     S
C501   O672    1.221   .     D
C501   C586    1.492   .     S
C502   O674    1.221   .     D
C502   H650    1.085   .     S
C503   H651    1.085   .     S
C503   O675    1.221   .     D
C504   H653    1.085   .     S
C504   O676    1.221   .     D
C505   O677    1.221   .     D
C505   H654    1.085   .     S
C506   O678    1.221   .     D
C506   H655    1.085   .     S
C507   H656    1.085   .     S
C507   O679    1.221   .     D
C508   C97     1.495   1_655 S
C509   C531    1.404   .     A
C509   C534    1.455   .     S
C509   C1367   1.404   1_545 S
C510   H657    1.085   .     S
C510   O680    1.221   .     D
C511   C586    1.406   .     A
C511   C539    1.456   .     S
C511   C1223   1.405   1_545 S
C512   C540    1.456   .     S
C512   C1234   1.405   .     S
C513   C537    1.457   .     S
C514   C24     1.405   1_655 S
C514   C142    1.454   1_655 S
C515   C594    1.419   .     A
C515   C521    1.416   .     A
C516   C595    1.417   .     A
C516   C123    1.404   1_655 S
C517   C523    1.416   .     A
C517   C596    1.423   .     A
C518   C522    1.416   .     A
C520   C1286   1.496   .     S
C520   C1289   1.410   .     S
C524   C529    1.416   1_556 S
C525   C528    1.403   1_554 S
C526   C532    1.416   1_556 S
C527   C530    1.403   1_554 S
C528   C525    1.403   1_556 S
C529   C524    1.416   1_554 S
C530   C527    1.403   1_556 S
C532   C526    1.416   1_554 S
C533   O766    1.274   .     A
C533   O1514   1.274   1_545 S
C534   O733    1.273   .     A
C534   O1454   1.274   1_545 S
C535   O673    1.275   .     A
C535   O348    1.275   1_655 S
C536   O755    1.274   .     A
C536   O285    1.277   1_655 S
C537   O686    1.272   .     A
C537   O682    1.276   .     S
C538   O683    1.274   .     A
C538   O687    1.274   .     A
C539   O688    1.275   .     A
C539   O684    1.275   .     A
C540   O1477   1.273   .     S
C540   O1482   1.276   .     S
C541   O691    1.277   .     A
C541   O719    1.276   .     A
C543   O692    1.275   .     A
C543   O720    1.278   .     A
C544   O717    1.275   .     A
C544   O693    1.277   .     A
C545   O694    1.275   .     A
C545   O718    1.277   .     A
C546   O724    1.277   .     A
C546   O695    1.275   .     A
C547   O696    1.278   .     A
C547   O725    1.275   .     A
C548   O697    1.278   .     A
C548   O721    1.275   .     A
C549   O698    1.278   .     A
C549   O723    1.276   .     A
C550   O699    1.277   .     A
C550   O710    1.275   .     A
C551   O701    1.275   .     A
C551   O712    1.278   .     A
C552   O708    1.275   .     A
C552   O702    1.278   .     A
C554   O709    1.277   .     A
C554   O703    1.276   .     A
C555   O704    1.275   .     A
C555   O715    1.278   .     A
C556   O705    1.275   .     A
C556   O716    1.279   .     A
C557   O713    1.278   .     A
C557   O706    1.275   .     A
C558   O714    1.275   .     A
C558   O707    1.277   .     A
C559   C576    1.409   .     A
C560   C574    1.410   .     A
C561   C573    1.410   .     A
C562   C572    1.410   .     A
C563   C571    1.410   .     A
C564   C596    1.417   .     A
C564   C1291   1.497   1_545 S
C565   C570    1.410   .     A
C566   C569    1.411   .     A
C567   C568    1.409   .     A
C575   C1292   1.493   .     S
C575   C1301   1.404   .     S
C577   C593    1.409   .     A
C578   C592    1.409   .     A
C579   C591    1.410   .     A
C580   C590    1.408   .     A
C581   C589    1.410   .     A
C582   C588    1.409   .     A
C583   C587    1.410   .     A
C584   C585    1.411   .     A
C594   C146    1.417   1_655 S
C595   C157    1.416   1_655 S
H648   C1292   1.085   .     S
O661   Zn788   1.944   .     S
O661   Zn780   1.943   .     S
O661   Zn777   1.945   .     S
O661   Zn1576  1.944   1_545 S
O662   Zn779   1.946   .     S
O662   C1326   1.274   .     S
O665   C97     1.220   1_655 S
O666   C1286   1.220   .     S
O667   C1287   1.221   .     S
O670   C1291   1.220   1_545 S
O673   Zn782   1.946   .     S
O681   Zn781   1.946   .     S
O682   Zn791   1.946   .     S
O683   Zn790   1.946   .     S
O684   Zn785   1.946   .     S
O685   Zn777   1.946   .     S
O685   C1332   1.273   1_545 S
O686   Zn787   1.946   .     S
O687   Zn786   1.946   .     S
O688   Zn789   1.946   .     S
O689   Zn789   1.944   .     S
O689   Zn783   1.944   .     S
O689   Zn785   1.945   .     S
O689   Zn1571  1.943   1_545 S
O690   Zn788   1.946   .     S
O690   C1332   1.276   1_545 S
O691   Zn780   1.932   .     S
O692   Zn779   1.932   .     S
O693   Zn782   1.932   .     S
O694   Zn781   1.932   .     S
O695   Zn784   1.932   .     S
O696   Zn783   1.932   .     S
O697   Zn778   1.932   .     S
O698   Zn792   1.932   .     S
O699   Zn779   1.933   .     S
O700   Zn778   1.945   .     S
O700   Zn786   1.943   .     S
O700   Zn790   1.944   .     S
O701   Zn780   1.933   .     S
O702   Zn792   1.931   .     S
O703   Zn778   1.931   .     S
O704   Zn783   1.933   .     S
O705   Zn784   1.933   .     S
O706   Zn781   1.931   .     S
O707   Zn782   1.931   .     S
O708   Zn391   1.932   1_655 S
O709   Zn786   1.932   .     S
O710   Zn1581  1.932   .     S
O711   Zn787   1.943   .     S
O711   Zn781   1.944   .     S
O711   Zn791   1.944   .     S
O712   Zn788   1.932   .     S
O713   Zn791   1.932   .     S
O714   Zn394   1.932   1_655 S
O715   Zn785   1.932   .     S
O716   Zn1569  1.932   .     S
O717   Zn390   1.933   1_655 S
O718   Zn787   1.933   .     S
O719   Zn777   1.931   .     S
O720   Zn1577  1.931   .     S
O721   Zn790   1.933   .     S
O722   Zn784   1.946   .     S
O722   C1325   1.274   .     S
O723   Zn395   1.933   1_655 S
O724   Zn1580  1.931   .     S
O725   Zn789   1.931   .     S
O733   Zn783   1.946   .     S
O744   Zn778   1.946   .     S
O755   Zn792   1.946   .     S
O766   Zn780   1.946   .     S
Zn777  O1508   1.932   1_545 S
Zn779  O1481   1.943   .     S
Zn782  O304    1.944   1_655 S
Zn784  O1453   1.944   .     S
Zn785  O1512   1.931   1_545 S
Zn788  O1516   1.931   1_545 S
Zn789  O1502   1.932   1_545 S
Zn792  O315    1.945   1_655 S
C793   C871    1.406   .     A
C793   C796    1.416   .     A
C793   C888    1.494   .     S
C794   C908    1.410   .     A
C794   C806    1.419   .     A
C794   C898    1.495   .     S
C795   C971    1.417   .     A
C795   C914    1.420   .     A
C795   C38     1.419   1_565 S
C796   C826    1.421   .     A
C796   C1311   1.416   .     S
C797   C828    1.419   .     A
C797   C917    1.425   .     A
C797   C904    1.419   .     A
C798   C918    1.423   .     A
C798   C916    1.417   .     A
C798   C37     1.418   1_565 S
C799   C919    1.420   .     A
C799   C927    1.417   .     A
C799   C830    1.418   .     A
C800   C827    1.418   .     A
C800   C920    1.420   .     A
C800   C39     1.416   1_565 S
C801   C838    1.415   .     A
C801   C921    1.416   .     A
C802   C922    1.426   .     A
C802   C849    1.420   .     A
C802   C1229   1.420   1_455 S
C803   C860    1.416   .     A
C803   C834    1.421   .     A
C803   C923    1.415   .     A
C804   C924    1.416   .     A
C804   C831    1.421   .     A
C804   C982    1.416   .     A
C805   C807    1.415   .     A
C805   C899    1.494   .     S
C805   C1305   1.405   .     S
C806   C925    1.425   .     A
C806   C832    1.419   .     A
C807   C926    1.417   .     A
C807   C833    1.420   .     A
C808   C928    1.419   .     A
C808   C816    1.417   .     A
C808   C1230   1.416   1_455 S
C809   C974    1.412   .     A
C809   C944    1.454   .     S
C809   C972    1.413   .     A
C810   C973    1.412   .     A
C810   C970    1.413   .     A
C810   C945    1.455   .     S
C811   C969    1.415   .     A
C811   C937    1.454   .     S
C811   C976    1.413   .     A
C812   C968    1.412   .     A
C812   C939    1.453   .     S
C812   C975    1.416   .     A
C813   C940    1.454   .     S
C813   C978    1.412   .     A
C813   C967    1.413   .     A
C814   C941    1.454   .     S
C814   C966    1.412   .     A
C814   C977    1.412   .     A
C815   C980    1.412   .     A
C815   C942    1.454   .     S
C815   C965    1.412   .     A
C816   C900    1.493   .     S
C816   C1306   1.405   1_455 S
C817   C979    1.412   .     A
C817   C943    1.454   .     S
C817   C964    1.413   .     A
C818   C983    1.413   .     A
C818   C953    1.454   .     S
C818   C963    1.412   .     A
C819   C954    1.454   .     S
C819   C962    1.412   .     A
C819   C981    1.412   .     A
C820   C961    1.412   .     A
C820   C946    1.455   .     S
C820   C985    1.412   .     A
C821   C947    1.455   .     S
C821   C959    1.412   .     A
C821   C984    1.413   .     A
C822   C948    1.453   .     S
C822   C987    1.412   .     A
C822   C958    1.415   .     A
C823   C950    1.455   .     S
C823   C957    1.411   .     A
C823   C986    1.411   .     A
C824   C956    1.412   .     A
C824   C951    1.454   .     S
C824   C989    1.412   .     A
C825   C955    1.412   .     A
C825   C988    1.413   .     A
C825   C952    1.455   .     S
C826   C990    1.416   .     A
C826   C828    1.412   .     A
C827   C901    1.492   .     S
C827   C115    1.405   1_565 S
C828   C991    1.420   .     A
C829   C830    1.407   .     A
C829   C992    1.418   .     A
C831   C40     1.412   1_556 S
C832   C9      1.420   1_565 S
C832   C39     1.412   1_564 S
C833   C1198   1.420   .     S
C833   C834    1.412   1_556 S
C834   C1204   1.416   .     S
C834   C833    1.412   1_554 S
C835   H993    1.086   .     S
C835   O1122   1.220   .     D
C835   C911    1.491   .     S
C836   C912    1.496   .     S
C836   H1004   1.083   .     S
C836   O1123   1.221   .     D
C837   C913    1.488   .     S
C837   H1015   1.085   .     S
C837   O1124   1.220   .     D
C838   C902    1.495   .     S
C839   O1125   1.220   .     D
C839   H1026   1.086   .     S
C839   C914    1.492   .     S
C840   O1126   1.221   .     D
C840   C915    1.496   .     S
C840   H1037   1.083   .     S
C841   O1127   1.220   .     D
C841   H1048   1.086   .     S
C841   C917    1.489   .     S
C842   H1054   1.086   .     S
C842   O1128   1.220   .     D
C842   C918    1.488   .     S
C843   O1130   1.220   .     D
C843   H1055   1.086   .     S
C843   C919    1.492   .     S
C844   O1131   1.220   .     D
C844   C920    1.490   .     S
C844   H1056   1.086   .     S
C845   C921    1.496   .     S
C845   O1132   1.221   .     D
C845   H994    1.083   .     S
C846   C922    1.488   .     S
C846   H995    1.085   .     S
C846   O1133   1.220   .     D
C847   C923    1.496   .     S
C847   H996    1.083   .     S
C847   O1134   1.221   .     D
C848   H997    1.083   .     S
C848   O1135   1.221   .     D
C848   C924    1.496   .     S
C849   C903    1.494   .     S
C849   C909    1.410   .     A
C850   O1136   1.220   .     D
C850   C925    1.489   .     S
C850   H998    1.086   .     S
C851   O1137   1.221   .     D
C851   C926    1.496   .     S
C851   H999    1.083   .     S
C852   O1138   1.220   .     D
C852   H1000   1.086   .     S
C852   C928    1.491   .     S
C853   O1139   1.221   .     D
C853   C955    1.491   .     S
C853   H1001   1.085   .     S
C854   H1002   1.085   .     S
C854   C956    1.493   .     S
C854   O1141   1.221   .     D
C855   H1003   1.085   .     S
C855   C957    1.485   .     S
C855   O1142   1.221   .     D
C856   H1005   1.085   .     S
C856   C958    1.495   .     S
C856   O1143   1.221   .     D
C857   C959    1.492   .     S
C857   H1006   1.085   .     S
C857   O1144   1.221   .     D
C858   H1007   1.085   .     S
C858   C961    1.493   .     S
C858   O1145   1.221   .     D
C859   H1008   1.085   .     S
C859   C962    1.493   .     S
C859   O1146   1.221   .     D
C860   C910    1.405   .     A
C860   C906    1.494   .     S
C861   O1147   1.221   .     D
C861   H1009   1.085   .     S
C861   C963    1.493   .     S
C862   H1010   1.083   .     S
C862   O1148   1.221   .     D
C862   C964    1.492   .     S
C863   O1149   1.221   .     D
C863   H1011   1.085   .     S
C863   C965    1.492   .     S
C864   O1150   1.221   .     D
C864   H1012   1.085   .     S
C864   C966    1.493   .     S
C865   C967    1.493   .     S
C865   H1013   1.084   .     S
C865   O1152   1.221   .     D
C866   C968    1.495   .     S
C866   O1153   1.221   .     D
C866   H1014   1.085   .     S
C867   O1154   1.219   .     D
C867   C969    1.500   .     S
C867   H1016   1.085   .     S
C868   H1017   1.084   .     S
C868   O1155   1.221   .     D
C868   C970    1.492   .     S
C869   C972    1.493   .     S
C869   H1018   1.084   .     S
C869   O1156   1.221   .     D
C870   C973    1.491   .     S
C870   H1019   1.084   .     S
C870   O1157   1.221   .     D
C871   C931    1.455   .     S
C871   C1334   1.405   .     S
C872   C974    1.493   .     S
C872   O1158   1.221   .     D
C872   H1020   1.086   .     S
C873   H1021   1.085   .     S
C873   O1159   1.220   .     D
C873   C975    1.495   .     S
C874   O1160   1.221   .     D
C874   C976    1.492   .     S
C874   H1022   1.085   .     S
C875   O1161   1.221   .     D
C875   H1023   1.085   .     S
C875   C977    1.493   .     S
C876   H1024   1.085   .     S
C876   O1163   1.221   .     D
C876   C978    1.493   .     S
C877   H1025   1.085   .     S
C877   C979    1.493   .     S
C877   O1164   1.221   .     D
C878   C980    1.493   .     S
C878   O1165   1.221   .     D
C878   H1027   1.085   .     S
C879   H1028   1.085   .     S
C879   O1166   1.221   .     D
C879   C981    1.492   .     S
C880   C983    1.493   .     S
C880   O1167   1.221   .     D
C880   H1029   1.084   .     S
C881   H1030   1.083   .     S
C881   C984    1.492   .     S
C881   O1168   1.221   .     D
C882   C932    1.457   .     S
C882   C904    1.410   .     A
C882   C1345   1.406   .     S
C883   C985    1.493   .     S
C883   O1169   1.221   .     D
C883   H1031   1.085   .     S
C884   C986    1.493   .     S
C884   H1032   1.083   .     S
C884   O1170   1.221   .     D
C885   H1033   1.085   .     S
C885   O1171   1.221   .     D
C885   C987    1.495   .     S
C886   C988    1.491   .     S
C886   O1172   1.221   .     D
C886   H1034   1.083   .     S
C887   C989    1.493   .     S
C887   O1059   1.221   .     D
C887   H1035   1.084   .     S
C888   H1036   1.085   .     S
C888   O1060   1.221   .     D
C889   H1038   1.085   .     S
C889   C1300   1.495   1_455 S
C889   O1457   1.220   1_455 S
C890   H1039   1.085   .     S
C891   C927    1.492   .     S
C891   H1040   1.085   .     S
C892   H1041   1.085   .     S
C892   O1064   1.221   .     D
C892   C938    1.492   .     S
C893   C929    1.453   .     S
C893   C960    1.410   .     A
C894   O1065   1.221   .     D
C894   C949    1.494   .     S
C894   H1042   1.085   .     S
C895   H1043   1.085   .     S
C895   C168    1.497   1_565 S
C895   O274    1.220   1_565 S
C896   O1067   1.221   .     D
C897   H1045   1.085   .     S
C897   O1068   1.221   .     D
C897   C982    1.492   .     S
C898   O1070   1.221   .     D
C898   H1046   1.085   .     S
C899   H1047   1.085   .     S
C899   O1071   1.221   .     D
C900   H1049   1.085   .     S
C900   O1072   1.221   .     D
C901   O1073   1.221   .     D
C901   H1050   1.085   .     S
C902   O1074   1.221   .     D
C902   H1051   1.085   .     S
C903   H1052   1.085   .     S
C903   O1075   1.221   .     D
C904   C1285   1.495   .     S
C905   C927    1.404   .     A
C905   C930    1.455   .     S
C906   H1053   1.085   .     S
C906   O1076   1.221   .     D
C907   C982    1.406   .     A
C907   C935    1.456   .     S
C908   C936    1.456   .     S
C908   C46     1.405   1_565 S
C909   C933    1.457   .     S
C909   C1201   1.405   1_455 S
C910   C1212   1.405   .     S
C910   C1330   1.454   .     S
C911   C990    1.419   .     A
C911   C917    1.416   .     A
C912   C991    1.417   .     A
C912   C1311   1.404   .     S
C913   C919    1.416   .     A
C913   C992    1.423   .     A
C914   C918    1.416   .     A
C915   C1192   1.416   1_455 S
C915   C1308   1.404   1_455 S
C916   C98     1.496   1_565 S
C916   C101    1.410   1_565 S
C920   C925    1.416   1_556 S
C921   C924    1.403   1_554 S
C922   C928    1.416   1_556 S
C923   C926    1.403   1_554 S
C924   C921    1.403   1_556 S
C925   C920    1.416   1_554 S
C926   C923    1.403   1_556 S
C928   C922    1.416   1_554 S
C929   O1162   1.274   .     A
C930   O1129   1.273   .     A
C931   O1069   1.275   .     A
C931   O1536   1.275   .     S
C932   O1151   1.274   .     A
C932   O1473   1.277   .     S
C933   O1082   1.272   .     A
C933   O1078   1.276   .     S
C934   O1079   1.274   .     A
C934   O1083   1.274   .     A
C934   C1306   1.454   1_455 S
C935   O1084   1.275   .     A
C935   O1080   1.275   .     A
C936   O289    1.273   1_565 S
C936   O294    1.276   1_565 S
C937   O1087   1.277   .     A
C937   O1115   1.276   .     A
C938   C1267   1.405   1_455 S
C938   C1386   1.417   1_455 S
C939   O1088   1.275   .     A
C939   O1116   1.278   .     A
C940   O1113   1.275   .     A
C940   O1089   1.277   .     A
C941   O1090   1.275   .     A
C941   O1114   1.277   .     A
C942   O1120   1.277   .     A
C942   O1091   1.275   .     A
C943   O1092   1.278   .     A
C943   O1121   1.275   .     A
C944   O1093   1.278   .     A
C944   O1117   1.275   .     A
C945   O1094   1.278   .     A
C945   O1119   1.276   .     A
C946   O1095   1.277   .     A
C946   O1106   1.275   .     A
C947   O1097   1.275   .     A
C947   O1108   1.278   .     A
C948   O1104   1.275   .     A
C948   O1098   1.278   .     A
C949   C1278   1.406   1_455 S
C949   C1387   1.416   1_455 S
C950   O1105   1.277   .     A
C950   O1099   1.276   .     A
C951   O1100   1.275   .     A
C951   O1111   1.278   .     A
C952   O1101   1.275   .     A
C952   O1112   1.279   .     A
C953   O1109   1.278   .     A
C953   O1102   1.275   .     A
C954   O1110   1.275   .     A
C954   O1103   1.277   .     A
C955   C972    1.409   .     A
C956   C970    1.410   .     A
C957   C969    1.410   .     A
C958   C968    1.410   .     A
C959   C967    1.410   .     A
C960   C992    1.417   .     A
C961   C966    1.410   .     A
C962   C965    1.411   .     A
C963   C964    1.409   .     A
C971   C104    1.493   1_565 S
C971   C113    1.404   1_565 S
C973   C989    1.409   .     A
C974   C988    1.409   .     A
C975   C987    1.410   .     A
C976   C986    1.408   .     A
C977   C985    1.410   .     A
C978   C984    1.409   .     A
C979   C983    1.410   .     A
C980   C981    1.411   .     A
C990   C1334   1.417   .     S
C991   C1345   1.416   .     S
H1044  C104    1.085   1_565 S
O1057  Zn1184  1.944   .     S
O1057  Zn1176  1.943   .     S
O1057  Zn1173  1.945   .     S
O1058  Zn1175  1.946   .     S
O1058  C138    1.274   1_565 S
O1061  C1285   1.220   .     S
O1062  C98     1.220   1_565 S
O1063  C99     1.221   1_565 S
O1069  Zn1178  1.946   .     S
O1077  Zn1177  1.946   .     S
O1077  C1328   1.277   1_455 S
O1078  Zn1187  1.946   .     S
O1079  Zn1186  1.946   .     S
O1080  Zn1181  1.946   .     S
O1081  Zn1173  1.946   .     S
O1082  Zn1183  1.946   .     S
O1083  Zn1182  1.946   .     S
O1084  Zn1185  1.946   .     S
O1085  Zn1185  1.944   .     S
O1085  Zn1179  1.944   .     S
O1085  Zn1181  1.945   .     S
O1086  Zn1184  1.946   .     S
O1087  Zn1176  1.932   .     S
O1088  Zn1175  1.932   .     S
O1089  Zn1178  1.932   .     S
O1090  Zn1177  1.932   .     S
O1091  Zn1180  1.932   .     S
O1092  Zn1179  1.932   .     S
O1093  Zn1174  1.932   .     S
O1094  Zn1188  1.932   .     S
O1095  Zn1175  1.933   .     S
O1096  Zn1574  1.944   1_455 S
O1096  Zn1174  1.945   .     S
O1096  Zn1182  1.943   .     S
O1096  Zn1186  1.944   .     S
O1097  Zn1176  1.933   .     S
O1098  Zn1188  1.931   .     S
O1099  Zn1174  1.931   .     S
O1100  Zn1179  1.933   .     S
O1101  Zn1180  1.933   .     S
O1102  Zn1177  1.931   .     S
O1103  Zn1178  1.931   .     S
O1104  Zn1579  1.932   .     S
O1105  Zn1182  1.932   .     S
O1106  Zn393   1.932   1_565 S
O1107  Zn1183  1.943   .     S
O1107  Zn1177  1.944   .     S
O1107  Zn1187  1.944   .     S
O1107  Zn1584  1.945   1_455 S
O1108  Zn1184  1.932   .     S
O1109  Zn1187  1.932   .     S
O1110  Zn1582  1.932   .     S
O1111  Zn1181  1.932   .     S
O1112  Zn381   1.932   1_565 S
O1113  Zn1578  1.933   .     S
O1114  Zn1183  1.933   .     S
O1115  Zn1173  1.931   .     S
O1116  Zn389   1.931   1_565 S
O1117  Zn1186  1.933   .     S
O1118  Zn1180  1.946   .     S
O1118  C137    1.274   1_565 S
O1119  Zn1583  1.933   .     S
O1120  Zn392   1.931   1_565 S
O1121  Zn1185  1.931   .     S
O1129  Zn1179  1.946   .     S
O1140  Zn1174  1.946   .     S
O1140  C1327   1.275   1_455 S
O1151  Zn1188  1.946   .     S
O1162  Zn1176  1.946   .     S
Zn1175 O293    1.943   1_565 S
Zn1178 O1492   1.944   .     S
Zn1180 O265    1.944   1_565 S
Zn1182 O1509   1.933   1_455 S
Zn1183 O1500   1.932   1_455 S
Zn1186 O1506   1.932   1_455 S
Zn1187 O1515   1.933   1_455 S
Zn1188 O1503   1.945   .     S
C1189  C1267   1.406   .     A
C1189  C1192   1.416   .     A
C1189  C1284   1.494   .     S
C1190  C1304   1.410   .     A
C1190  C1202   1.419   .     A
C1190  C1294   1.495   .     S
C1191  C1367   1.417   .     A
C1191  C1310   1.420   .     A
C1191  C434    1.419   1_565 S
C1192  C1222   1.421   .     A
C1192  C915    1.416   1_655 S
C1193  C1224   1.419   .     A
C1193  C1313   1.425   .     A
C1193  C1300   1.419   .     A
C1194  C1314   1.423   .     A
C1194  C1312   1.417   .     A
C1194  C433    1.418   1_565 S
C1195  C1315   1.420   .     A
C1195  C1323   1.417   .     A
C1195  C1226   1.418   .     A
C1196  C1223   1.418   .     A
C1196  C1316   1.420   .     A
C1196  C435    1.416   1_565 S
C1197  C1234   1.415   .     A
C1197  C1317   1.416   .     A
C1198  C1318   1.426   .     A
C1198  C1245   1.420   .     A
C1199  C1256   1.416   .     A
C1199  C1230   1.421   .     A
C1199  C1319   1.415   .     A
C1200  C1320   1.416   .     A
C1200  C1227   1.421   .     A
C1200  C1378   1.416   .     A
C1201  C1203   1.415   .     A
C1201  C1295   1.494   .     S
C1201  C909    1.405   1_655 S
C1202  C1321   1.425   .     A
C1202  C1228   1.419   .     A
C1203  C1322   1.417   .     A
C1203  C1229   1.420   .     A
C1204  C1324   1.419   .     A
C1204  C1212   1.417   .     A
C1205  C1370   1.412   .     A
C1205  C1340   1.454   .     S
C1205  C1368   1.413   .     A
C1206  C1369   1.412   .     A
C1206  C1366   1.413   .     A
C1206  C1341   1.455   .     S
C1207  C1365   1.415   .     A
C1207  C1333   1.454   .     S
C1207  C1372   1.413   .     A
C1208  C1364   1.412   .     A
C1208  C1335   1.453   .     S
C1208  C1371   1.416   .     A
C1209  C1336   1.454   .     S
C1209  C1374   1.412   .     A
C1209  C1363   1.413   .     A
C1210  C1337   1.454   .     S
C1210  C1362   1.412   .     A
C1210  C1373   1.412   .     A
C1211  C1376   1.412   .     A
C1211  C1338   1.454   .     S
C1211  C1361   1.412   .     A
C1212  C1296   1.493   .     S
C1213  C1375   1.412   .     A
C1213  C1339   1.454   .     S
C1213  C1360   1.413   .     A
C1214  C1379   1.413   .     A
C1214  C1349   1.454   .     S
C1214  C1359   1.412   .     A
C1215  C1350   1.454   .     S
C1215  C1358   1.412   .     A
C1215  C1377   1.412   .     A
C1216  C1357   1.412   .     A
C1216  C1342   1.455   .     S
C1216  C1381   1.412   .     A
C1217  C1343   1.455   .     S
C1217  C1355   1.412   .     A
C1217  C1380   1.413   .     A
C1218  C1344   1.453   .     S
C1218  C1383   1.412   .     A
C1218  C1354   1.415   .     A
C1219  C1346   1.455   .     S
C1219  C1353   1.411   .     A
C1219  C1382   1.411   .     A
C1220  C1352   1.412   .     A
C1220  C1347   1.454   .     S
C1220  C1385   1.412   .     A
C1221  C1351   1.412   .     A
C1221  C1384   1.413   .     A
C1221  C1348   1.455   .     S
C1222  C1386   1.416   .     A
C1222  C1224   1.412   .     A
C1223  C1297   1.492   .     S
C1223  C511    1.405   1_565 S
C1224  C1387   1.420   .     A
C1225  C1226   1.407   .     A
C1225  C1388   1.418   .     A
C1227  C436    1.412   1_556 S
C1228  C405    1.420   1_565 S
C1228  C435    1.412   1_564 S
C1229  C802    1.420   1_655 S
C1229  C1230   1.412   1_556 S
C1230  C808    1.416   1_655 S
C1230  C1229   1.412   1_554 S
C1231  H1389   1.086   .     S
C1231  O1518   1.220   .     D
C1231  C1307   1.491   .     S
C1232  C1308   1.496   .     S
C1232  H1400   1.083   .     S
C1232  O1519   1.221   .     D
C1233  C1309   1.488   .     S
C1233  H1411   1.085   .     S
C1233  O1520   1.220   .     D
C1234  C1298   1.495   .     S
C1235  O1521   1.220   .     D
C1235  H1422   1.086   .     S
C1235  C1310   1.492   .     S
C1236  O1522   1.221   .     D
C1236  C1311   1.496   .     S
C1236  H1433   1.083   .     S
C1237  O1523   1.220   .     D
C1237  H1444   1.086   .     S
C1237  C1313   1.489   .     S
C1238  H1450   1.086   .     S
C1238  O1524   1.220   .     D
C1238  C1314   1.488   .     S
C1239  O1526   1.220   .     D
C1239  H1451   1.086   .     S
C1239  C1315   1.492   .     S
C1240  O1527   1.220   .     D
C1240  C1316   1.490   .     S
C1240  H1452   1.086   .     S
C1241  C1317   1.496   .     S
C1241  O1528   1.221   .     D
C1241  H1390   1.083   .     S
C1242  C1318   1.488   .     S
C1242  H1391   1.085   .     S
C1242  O1529   1.220   .     D
C1243  C1319   1.496   .     S
C1243  H1392   1.083   .     S
C1243  O1530   1.221   .     D
C1244  H1393   1.083   .     S
C1244  O1531   1.221   .     D
C1244  C1320   1.496   .     S
C1245  C1299   1.494   .     S
C1245  C1305   1.410   .     A
C1246  O1532   1.220   .     D
C1246  C1321   1.489   .     S
C1246  H1394   1.086   .     S
C1247  O1533   1.221   .     D
C1247  C1322   1.496   .     S
C1247  H1395   1.083   .     S
C1248  O1534   1.220   .     D
C1248  H1396   1.086   .     S
C1248  C1324   1.491   .     S
C1249  O1535   1.221   .     D
C1249  C1351   1.491   .     S
C1249  H1397   1.085   .     S
C1250  H1398   1.085   .     S
C1250  C1352   1.493   .     S
C1250  O1537   1.221   .     D
C1251  H1399   1.085   .     S
C1251  C1353   1.485   .     S
C1251  O1538   1.221   .     D
C1252  H1401   1.085   .     S
C1252  C1354   1.495   .     S
C1252  O1539   1.221   .     D
C1253  C1355   1.492   .     S
C1253  H1402   1.085   .     S
C1253  O1540   1.221   .     D
C1254  H1403   1.085   .     S
C1254  C1357   1.493   .     S
C1254  O1541   1.221   .     D
C1255  H1404   1.085   .     S
C1255  C1358   1.493   .     S
C1255  O1542   1.221   .     D
C1256  C1306   1.405   .     A
C1256  C1302   1.494   .     S
C1257  O1543   1.221   .     D
C1257  H1405   1.085   .     S
C1257  C1359   1.493   .     S
C1258  H1406   1.083   .     S
C1258  O1544   1.221   .     D
C1258  C1360   1.492   .     S
C1259  O1545   1.221   .     D
C1259  H1407   1.085   .     S
C1259  C1361   1.492   .     S
C1260  O1546   1.221   .     D
C1260  H1408   1.085   .     S
C1260  C1362   1.493   .     S
C1261  C1363   1.493   .     S
C1261  H1409   1.084   .     S
C1261  O1548   1.221   .     D
C1262  C1364   1.495   .     S
C1262  O1549   1.221   .     D
C1262  H1410   1.085   .     S
C1263  O1550   1.219   .     D
C1263  C1365   1.500   .     S
C1263  H1412   1.085   .     S
C1264  H1413   1.084   .     S
C1264  O1551   1.221   .     D
C1264  C1366   1.492   .     S
C1265  C1368   1.493   .     S
C1265  H1414   1.084   .     S
C1265  O1552   1.221   .     D
C1266  C1369   1.491   .     S
C1266  H1415   1.084   .     S
C1266  O1553   1.221   .     D
C1267  C1327   1.455   .     S
C1267  C938    1.405   1_655 S
C1268  C1370   1.493   .     S
C1268  O1554   1.221   .     D
C1268  H1416   1.086   .     S
C1269  H1417   1.085   .     S
C1269  O1555   1.220   .     D
C1269  C1371   1.495   .     S
C1270  O1556   1.221   .     D
C1270  C1372   1.492   .     S
C1270  H1418   1.085   .     S
C1271  O1557   1.221   .     D
C1271  H1419   1.085   .     S
C1271  C1373   1.493   .     S
C1272  H1420   1.085   .     S
C1272  O1559   1.221   .     D
C1272  C1374   1.493   .     S
C1273  H1421   1.085   .     S
C1273  C1375   1.493   .     S
C1273  O1560   1.221   .     D
C1274  C1376   1.493   .     S
C1274  O1561   1.221   .     D
C1274  H1423   1.085   .     S
C1275  H1424   1.085   .     S
C1275  O1562   1.221   .     D
C1275  C1377   1.492   .     S
C1276  C1379   1.493   .     S
C1276  O1563   1.221   .     D
C1276  H1425   1.084   .     S
C1277  H1426   1.083   .     S
C1277  C1380   1.492   .     S
C1277  O1564   1.221   .     D
C1278  C1328   1.457   .     S
C1278  C1300   1.410   .     A
C1278  C949    1.406   1_655 S
C1279  C1381   1.493   .     S
C1279  O1565   1.221   .     D
C1279  H1427   1.085   .     S
C1280  C1382   1.493   .     S
C1280  H1428   1.083   .     S
C1280  O1566   1.221   .     D
C1281  H1429   1.085   .     S
C1281  O1567   1.221   .     D
C1281  C1383   1.495   .     S
C1282  C1384   1.491   .     S
C1282  O1568   1.221   .     D
C1282  H1430   1.083   .     S
C1283  C1385   1.493   .     S
C1283  O1455   1.221   .     D
C1283  H1431   1.084   .     S
C1284  H1432   1.085   .     S
C1284  O1456   1.221   .     D
C1285  H1434   1.085   .     S
C1286  H1435   1.085   .     S
C1287  C1323   1.492   .     S
C1287  H1436   1.085   .     S
C1288  H1437   1.085   .     S
C1288  O1460   1.221   .     D
C1288  C1334   1.492   .     S
C1289  C1325   1.453   .     S
C1289  C1356   1.410   .     A
C1290  O1461   1.221   .     D
C1290  C1345   1.494   .     S
C1290  H1438   1.085   .     S
C1291  H1439   1.085   .     S
C1291  C564    1.497   1_565 S
C1291  O670    1.220   1_565 S
C1292  O1463   1.221   .     D
C1293  H1441   1.085   .     S
C1293  O1464   1.221   .     D
C1293  C1378   1.492   .     S
C1294  O1466   1.221   .     D
C1294  H1442   1.085   .     S
C1295  H1443   1.085   .     S
C1295  O1467   1.221   .     D
C1296  H1445   1.085   .     S
C1296  O1468   1.221   .     D
C1297  O1469   1.221   .     D
C1297  H1446   1.085   .     S
C1298  O1470   1.221   .     D
C1298  H1447   1.085   .     S
C1299  H1448   1.085   .     S
C1299  O1471   1.221   .     D
C1300  C889    1.495   1_655 S
C1301  C1323   1.404   .     A
C1301  C1326   1.455   .     S
C1302  H1449   1.085   .     S
C1302  O1472   1.221   .     D
C1303  C1378   1.406   .     A
C1303  C1331   1.456   .     S
C1304  C1332   1.456   .     S
C1304  C442    1.405   1_565 S
C1305  C1329   1.457   .     S
C1306  C816    1.405   1_655 S
C1306  C934    1.454   1_655 S
C1307  C1386   1.419   .     A
C1307  C1313   1.416   .     A
C1308  C1387   1.417   .     A
C1308  C915    1.404   1_655 S
C1309  C1315   1.416   .     A
C1309  C1388   1.423   .     A
C1310  C1314   1.416   .     A
C1312  C494    1.496   1_565 S
C1312  C497    1.410   1_565 S
C1316  C1321   1.416   1_556 S
C1317  C1320   1.403   1_554 S
C1318  C1324   1.416   1_556 S
C1319  C1322   1.403   1_554 S
C1320  C1317   1.403   1_556 S
C1321  C1316   1.416   1_554 S
C1322  C1319   1.403   1_556 S
C1324  C1318   1.416   1_554 S
C1325  O1558   1.274   .     A
C1326  O1525   1.273   .     A
C1327  O1465   1.275   .     A
C1327  O1140   1.275   1_655 S
C1328  O1547   1.274   .     A
C1328  O1077   1.277   1_655 S
C1329  O1478   1.272   .     A
C1329  O1474   1.276   .     S
C1330  O1475   1.274   .     A
C1330  O1479   1.274   .     A
C1331  O1480   1.275   .     A
C1331  O1476   1.275   .     A
C1332  O685    1.273   1_565 S
C1332  O690    1.276   1_565 S
C1333  O1483   1.277   .     A
C1333  O1511   1.276   .     A
C1335  O1484   1.275   .     A
C1335  O1512   1.278   .     A
C1336  O1509   1.275   .     A
C1336  O1485   1.277   .     A
C1337  O1486   1.275   .     A
C1337  O1510   1.277   .     A
C1338  O1516   1.277   .     A
C1338  O1487   1.275   .     A
C1339  O1488   1.278   .     A
C1339  O1517   1.275   .     A
C1340  O1489   1.278   .     A
C1340  O1513   1.275   .     A
C1341  O1490   1.278   .     A
C1341  O1515   1.276   .     A
C1342  O1491   1.277   .     A
C1342  O1502   1.275   .     A
C1343  O1493   1.275   .     A
C1343  O1504   1.278   .     A
C1344  O1500   1.275   .     A
C1344  O1494   1.278   .     A
C1346  O1501   1.277   .     A
C1346  O1495   1.276   .     A
C1347  O1496   1.275   .     A
C1347  O1507   1.278   .     A
C1348  O1497   1.275   .     A
C1348  O1508   1.279   .     A
C1349  O1505   1.278   .     A
C1349  O1498   1.275   .     A
C1350  O1506   1.275   .     A
C1350  O1499   1.277   .     A
C1351  C1368   1.409   .     A
C1352  C1366   1.410   .     A
C1353  C1365   1.410   .     A
C1354  C1364   1.410   .     A
C1355  C1363   1.410   .     A
C1356  C1388   1.417   .     A
C1357  C1362   1.410   .     A
C1358  C1361   1.411   .     A
C1359  C1360   1.409   .     A
C1367  C500    1.493   1_565 S
C1367  C509    1.404   1_565 S
C1369  C1385   1.409   .     A
C1370  C1384   1.409   .     A
C1371  C1383   1.410   .     A
C1372  C1382   1.408   .     A
C1373  C1381   1.410   .     A
C1374  C1380   1.409   .     A
C1375  C1379   1.410   .     A
C1376  C1377   1.411   .     A
C1386  C938    1.417   1_655 S
C1387  C949    1.416   1_655 S
H1440  C500    1.085   1_565 S
O1453  Zn1580  1.944   .     S
O1453  Zn1572  1.943   .     S
O1453  Zn1569  1.945   .     S
O1454  Zn1571  1.946   .     S
O1454  C534    1.274   1_565 S
O1457  C889    1.220   1_655 S
O1458  C494    1.220   1_565 S
O1459  C495    1.221   1_565 S
O1465  Zn1574  1.946   .     S
O1473  Zn1573  1.946   .     S
O1474  Zn1583  1.946   .     S
O1475  Zn1582  1.946   .     S
O1476  Zn1577  1.946   .     S
O1477  Zn1569  1.946   .     S
O1478  Zn1579  1.946   .     S
O1479  Zn1578  1.946   .     S
O1480  Zn1581  1.946   .     S
O1481  Zn1581  1.944   .     S
O1481  Zn1575  1.944   .     S
O1481  Zn1577  1.945   .     S
O1482  Zn1580  1.946   .     S
O1483  Zn1572  1.932   .     S
O1484  Zn1571  1.932   .     S
O1485  Zn1574  1.932   .     S
O1486  Zn1573  1.932   .     S
O1487  Zn1576  1.932   .     S
O1488  Zn1575  1.932   .     S
O1489  Zn1570  1.932   .     S
O1490  Zn1584  1.932   .     S
O1491  Zn1571  1.933   .     S
O1492  Zn1570  1.945   .     S
O1492  Zn1578  1.943   .     S
O1492  Zn1582  1.944   .     S
O1493  Zn1572  1.933   .     S
O1494  Zn1584  1.931   .     S
O1495  Zn1570  1.931   .     S
O1496  Zn1575  1.933   .     S
O1497  Zn1576  1.933   .     S
O1498  Zn1573  1.931   .     S
O1499  Zn1574  1.931   .     S
O1500  Zn1183  1.932   1_655 S
O1501  Zn1578  1.932   .     S
O1502  Zn789   1.932   1_565 S
O1503  Zn1579  1.943   .     S
O1503  Zn1573  1.944   .     S
O1503  Zn1583  1.944   .     S
O1504  Zn1580  1.932   .     S
O1505  Zn1583  1.932   .     S
O1506  Zn1186  1.932   1_655 S
O1507  Zn1577  1.932   .     S
O1508  Zn777   1.932   1_565 S
O1509  Zn1182  1.933   1_655 S
O1510  Zn1579  1.933   .     S
O1511  Zn1569  1.931   .     S
O1512  Zn785   1.931   1_565 S
O1513  Zn1582  1.933   .     S
O1514  Zn1576  1.946   .     S
O1514  C533    1.274   1_565 S
O1515  Zn1187  1.933   1_655 S
O1516  Zn788   1.931   1_565 S
O1517  Zn1581  1.931   .     S
O1525  Zn1575  1.946   .     S
O1536  Zn1570  1.946   .     S
O1547  Zn1584  1.946   .     S
O1558  Zn1572  1.946   .     S
Zn1571 O689    1.943   1_565 S
Zn1574 O1096   1.944   1_655 S
Zn1576 O661    1.944   1_565 S
Zn1584 O1107   1.945   1_655 S
