data_str_m1_o10_o18_pcu_sym.108
_audit_creation_date              2020-01-03
_audit_creation_method            'Materials Studio'
_symmetry_space_group_name_H-M    'P1'
_symmetry_Int_Tables_number       1
_symmetry_cell_setting            triclinic
loop_
_symmetry_equiv_pos_as_xyz
  x,y,z
_cell_length_a                    32.6277
_cell_length_b                    32.6948
_cell_length_c                    35.5338
_cell_angle_alpha                 97.9904
_cell_angle_beta                  72.7513
_cell_angle_gamma                 97.8612
loop_
_atom_site_label
_atom_site_type_symbol
_atom_site_fract_x
_atom_site_fract_y
_atom_site_fract_z
_atom_site_U_iso_or_equiv
_atom_site_adp_type
_atom_site_occupancy
C1     C     0.05279   0.16046   0.25856   0.00000  Uiso   1.00
C2     C     0.21800   0.15299   0.45767   0.00000  Uiso   1.00
C3     C     0.23072   0.12288   0.47592   0.00000  Uiso   1.00
C4     C     0.28097   0.17344   0.24140   0.00000  Uiso   1.00
C5     C     0.21537   0.12298   0.01779   0.00000  Uiso   1.00
C6     C     0.19209   0.15611   0.03972   0.00000  Uiso   1.00
C7     C     0.22308   0.09206   0.03868   0.00000  Uiso   1.00
C8     C     0.21285   0.09798   0.08063   0.00000  Uiso   1.00
C9     C     0.19148   0.16637   0.07984   0.00000  Uiso   1.00
C10    C     0.32671   0.17502   0.23806   0.00000  Uiso   1.00
C11    C     0.00709   0.15794   0.26387   0.00000  Uiso   1.00
C12    C     0.10883   0.22981   0.42176   0.00000  Uiso   1.00
C13    C     0.17743   0.32164   0.23638   0.00000  Uiso   1.00
C14    C     0.15270   0.01349   0.26500   0.00000  Uiso   1.00
C15    C     0.15598   0.05652   0.25943   0.00000  Uiso   1.00
C16    C     0.17644   0.27766   0.24128   0.00000  Uiso   1.00
C17    C     0.18864   0.14507   0.14396   0.00000  Uiso   1.00
C18    C     0.14516   0.18806   0.35656   0.00000  Uiso   1.00
C19    C     0.13630   0.19906   0.40019   0.00000  Uiso   1.00
C20    C     0.19835   0.13619   0.10082   0.00000  Uiso   1.00
C21    C     0.10187   0.23835   0.46327   0.00000  Uiso   1.00
C22    C     0.13044   0.00384   0.30629   0.00000  Uiso   1.00
C23    C     0.15781   0.17957   0.42022   0.00000  Uiso   1.00
C24    C     0.26385   0.09541   0.45198   0.00000  Uiso   1.00
C25    C     0.08680   0.25335   0.40198   0.00000  Uiso   1.00
C26    C     0.24739   0.16716   0.41975   0.00000  Uiso   1.00
C27    C     0.15558   0.19140   0.46032   0.00000  Uiso   1.00
C28    C     0.12464   0.21856   0.48275   0.00000  Uiso   1.00
C29    C     0.18134   0.17419   0.47915   0.00000  Uiso   1.00
C30    C     0.16948   0.17717   0.02104   0.00000  Uiso   1.00
C31    C     0.13286   0.19762   0.04308   0.00000  Uiso   1.00
C32    C     0.11493   0.22307   0.02449   0.00000  Uiso   1.00
H33    H     0.01648   0.19023   0.21392   0.00000  Uiso   1.00
H34    H     0.29049   0.09082   0.46284   0.00000  Uiso   1.00
H35    H     0.04866   0.26436   0.47322   0.00000  Uiso   1.00
H36    H     0.06685   0.23715   0.38390   0.00000  Uiso   1.00
H37    H     0.08206   0.19470   0.08902   0.00000  Uiso   1.00
H38    H     0.26931   0.14699   0.39899   0.00000  Uiso   1.00
H39    H     0.17632   0.15446   0.40409   0.00000  Uiso   1.00
H40    H     0.09186   0.25843   0.07295   0.00000  Uiso   1.00
H41    H     0.24273   0.03718   0.03573   0.00000  Uiso   1.00
H42    H     0.32904   0.12966   0.31110   0.00000  Uiso   1.00
H43    H     0.21689   0.31523   0.18297   0.00000  Uiso   1.00
H44    H     0.09917   0.01479   0.32128   0.00000  Uiso   1.00
H45    H     0.19309   0.22584   0.07881   0.00000  Uiso   1.00
H46    H     0.21520   0.07604   0.12867   0.00000  Uiso   1.00
O47    O     0.16667   0.16667   0.25000   0.00000  Uiso   1.00
O48    O     0.15693   0.12393   0.16625   0.00000  Uiso   1.00
O49    O     0.12687   0.20646   0.33749   0.00000  Uiso   1.00
O50    O     0.21088   0.17493   0.15877   0.00000  Uiso   1.00
O51    O     0.17198   0.16135   0.33749   0.00000  Uiso   1.00
O52    O     0.08597   0.25036   0.04695   0.00000  Uiso   1.00
O53    O     0.23788   0.05543   0.01780   0.00000  Uiso   1.00
O54    O     0.31208   0.13977   0.29589   0.00000  Uiso   1.00
O55    O     0.20239   0.00439   0.20171   0.00000  Uiso   1.00
O56    O     0.14823   0.32021   0.32479   0.00000  Uiso   1.00
O57    O     0.18542   0.20587   0.09900   0.00000  Uiso   1.00
O58    O     0.17849   0.08101   0.27820   0.00000  Uiso   1.00
O59    O     0.21925   0.06670   0.10027   0.00000  Uiso   1.00
O60    O     0.26099   0.07694   0.42041   0.00000  Uiso   1.00
O61    O     0.07244   0.26543   0.48543   0.00000  Uiso   1.00
O62    O     0.09031   0.29125   0.40641   0.00000  Uiso   1.00
O63    O     0.11278   0.18949   0.08185   0.00000  Uiso   1.00
O64    O     0.24876   0.20270   0.41211   0.00000  Uiso   1.00
O65    O     0.14581   0.26136   0.26767   0.00000  Uiso   1.00
O66    O     0.07452   0.13251   0.23607   0.00000  Uiso   1.00
O67    O     0.26785   0.19179   0.21805   0.00000  Uiso   1.00
O68    O     0.06990   0.18960   0.27820   0.00000  Uiso   1.00
O69    O     0.25440   0.15277   0.26767   0.00000  Uiso   1.00
O70    O     0.13800   0.06903   0.23607   0.00000  Uiso   1.00
O71    O     0.20437   0.25527   0.21805   0.00000  Uiso   1.00
Zn72   Zn    0.19244   0.14090   0.28277   0.00000  Uiso   1.00
Zn73   Zn    0.13459   0.12378   0.22257   0.00000  Uiso   1.00
Zn74   Zn    0.21166   0.19664   0.21188   0.00000  Uiso   1.00
Zn75   Zn    0.12798   0.20535   0.28277   0.00000  Uiso   1.00
C76    C     0.38612   0.16046   0.25856   0.00000  Uiso   1.00
C77    C     0.55133   0.15299   0.45767   0.00000  Uiso   1.00
C78    C     0.56406   0.12288   0.47592   0.00000  Uiso   1.00
C79    C     0.61430   0.17344   0.24140   0.00000  Uiso   1.00
C80    C     0.54870   0.12298   0.01779   0.00000  Uiso   1.00
C81    C     0.52542   0.15611   0.03972   0.00000  Uiso   1.00
C82    C     0.55641   0.09206   0.03868   0.00000  Uiso   1.00
C83    C     0.54618   0.09798   0.08063   0.00000  Uiso   1.00
C84    C     0.52481   0.16637   0.07984   0.00000  Uiso   1.00
C85    C     0.66004   0.17502   0.23806   0.00000  Uiso   1.00
C86    C     0.34043   0.15794   0.26387   0.00000  Uiso   1.00
C87    C     0.44216   0.22981   0.42176   0.00000  Uiso   1.00
C88    C     0.51076   0.32164   0.23638   0.00000  Uiso   1.00
C89    C     0.48603   0.01349   0.26500   0.00000  Uiso   1.00
C90    C     0.48931   0.05652   0.25943   0.00000  Uiso   1.00
C91    C     0.50978   0.27766   0.24128   0.00000  Uiso   1.00
C92    C     0.52197   0.14507   0.14396   0.00000  Uiso   1.00
C93    C     0.47849   0.18806   0.35656   0.00000  Uiso   1.00
C94    C     0.46963   0.19906   0.40019   0.00000  Uiso   1.00
C95    C     0.53169   0.13619   0.10082   0.00000  Uiso   1.00
C96    C     0.43520   0.23835   0.46327   0.00000  Uiso   1.00
C97    C     0.46378   0.00384   0.30629   0.00000  Uiso   1.00
C98    C     0.49115   0.17957   0.42022   0.00000  Uiso   1.00
C99    C     0.59718   0.09541   0.45198   0.00000  Uiso   1.00
C100   C     0.42014   0.25335   0.40198   0.00000  Uiso   1.00
C101   C     0.58072   0.16716   0.41975   0.00000  Uiso   1.00
C102   C     0.48891   0.19140   0.46032   0.00000  Uiso   1.00
C103   C     0.45798   0.21856   0.48275   0.00000  Uiso   1.00
C104   C     0.51467   0.17419   0.47915   0.00000  Uiso   1.00
C105   C     0.50281   0.17717   0.02104   0.00000  Uiso   1.00
C106   C     0.46620   0.19762   0.04308   0.00000  Uiso   1.00
C107   C     0.44826   0.22307   0.02449   0.00000  Uiso   1.00
H108   H     0.34981   0.19023   0.21392   0.00000  Uiso   1.00
H109   H     0.62383   0.09082   0.46284   0.00000  Uiso   1.00
H110   H     0.38199   0.26436   0.47322   0.00000  Uiso   1.00
H111   H     0.40018   0.23715   0.38390   0.00000  Uiso   1.00
H112   H     0.41539   0.19470   0.08902   0.00000  Uiso   1.00
H113   H     0.60265   0.14699   0.39899   0.00000  Uiso   1.00
H114   H     0.50966   0.15446   0.40409   0.00000  Uiso   1.00
H115   H     0.42520   0.25843   0.07295   0.00000  Uiso   1.00
H116   H     0.57606   0.03718   0.03573   0.00000  Uiso   1.00
H117   H     0.66237   0.12966   0.31110   0.00000  Uiso   1.00
H118   H     0.55023   0.31523   0.18297   0.00000  Uiso   1.00
H119   H     0.43250   0.01479   0.32128   0.00000  Uiso   1.00
H120   H     0.52642   0.22584   0.07881   0.00000  Uiso   1.00
H121   H     0.54853   0.07604   0.12867   0.00000  Uiso   1.00
O122   O     0.50000   0.16667   0.25000   0.00000  Uiso   1.00
O123   O     0.49027   0.12393   0.16625   0.00000  Uiso   1.00
O124   O     0.46020   0.20646   0.33749   0.00000  Uiso   1.00
O125   O     0.54421   0.17493   0.15877   0.00000  Uiso   1.00
O126   O     0.50532   0.16135   0.33749   0.00000  Uiso   1.00
O127   O     0.41930   0.25036   0.04695   0.00000  Uiso   1.00
O128   O     0.57121   0.05543   0.01780   0.00000  Uiso   1.00
O129   O     0.64541   0.13977   0.29589   0.00000  Uiso   1.00
O130   O     0.53573   0.00439   0.20171   0.00000  Uiso   1.00
O131   O     0.48156   0.32021   0.32479   0.00000  Uiso   1.00
O132   O     0.51875   0.20587   0.09900   0.00000  Uiso   1.00
O133   O     0.51182   0.08101   0.27820   0.00000  Uiso   1.00
O134   O     0.55258   0.06670   0.10027   0.00000  Uiso   1.00
O135   O     0.59432   0.07694   0.42041   0.00000  Uiso   1.00
O136   O     0.40577   0.26543   0.48543   0.00000  Uiso   1.00
O137   O     0.42364   0.29125   0.40641   0.00000  Uiso   1.00
O138   O     0.44611   0.18949   0.08185   0.00000  Uiso   1.00
O139   O     0.58209   0.20270   0.41211   0.00000  Uiso   1.00
O140   O     0.47914   0.26136   0.26767   0.00000  Uiso   1.00
O141   O     0.40785   0.13251   0.23607   0.00000  Uiso   1.00
O142   O     0.60119   0.19179   0.21805   0.00000  Uiso   1.00
O143   O     0.40323   0.18960   0.27820   0.00000  Uiso   1.00
O144   O     0.58773   0.15277   0.26767   0.00000  Uiso   1.00
O145   O     0.47133   0.06903   0.23607   0.00000  Uiso   1.00
O146   O     0.53771   0.25527   0.21805   0.00000  Uiso   1.00
Zn147  Zn    0.52577   0.14090   0.28277   0.00000  Uiso   1.00
Zn148  Zn    0.46792   0.12378   0.22257   0.00000  Uiso   1.00
Zn149  Zn    0.54500   0.19664   0.21188   0.00000  Uiso   1.00
Zn150  Zn    0.46131   0.20535   0.28277   0.00000  Uiso   1.00
C151   C     0.71946   0.16046   0.25856   0.00000  Uiso   1.00
C152   C     0.88467   0.15299   0.45767   0.00000  Uiso   1.00
C153   C     0.89739   0.12288   0.47592   0.00000  Uiso   1.00
C154   C     0.94764   0.17344   0.24140   0.00000  Uiso   1.00
C155   C     0.88203   0.12298   0.01779   0.00000  Uiso   1.00
C156   C     0.85876   0.15611   0.03972   0.00000  Uiso   1.00
C157   C     0.88975   0.09206   0.03868   0.00000  Uiso   1.00
C158   C     0.87951   0.09798   0.08063   0.00000  Uiso   1.00
C159   C     0.85814   0.16637   0.07984   0.00000  Uiso   1.00
C160   C     0.99337   0.17502   0.23806   0.00000  Uiso   1.00
C161   C     0.67376   0.15794   0.26387   0.00000  Uiso   1.00
C162   C     0.77550   0.22981   0.42176   0.00000  Uiso   1.00
C163   C     0.84409   0.32164   0.23638   0.00000  Uiso   1.00
C164   C     0.81936   0.01349   0.26500   0.00000  Uiso   1.00
C165   C     0.82264   0.05652   0.25943   0.00000  Uiso   1.00
C166   C     0.84311   0.27766   0.24128   0.00000  Uiso   1.00
C167   C     0.85530   0.14507   0.14396   0.00000  Uiso   1.00
C168   C     0.81182   0.18806   0.35656   0.00000  Uiso   1.00
C169   C     0.80297   0.19906   0.40019   0.00000  Uiso   1.00
C170   C     0.86502   0.13619   0.10082   0.00000  Uiso   1.00
C171   C     0.76854   0.23835   0.46327   0.00000  Uiso   1.00
C172   C     0.79711   0.00384   0.30629   0.00000  Uiso   1.00
C173   C     0.82448   0.17957   0.42022   0.00000  Uiso   1.00
C174   C     0.93051   0.09541   0.45198   0.00000  Uiso   1.00
C175   C     0.75347   0.25335   0.40198   0.00000  Uiso   1.00
C176   C     0.91405   0.16716   0.41975   0.00000  Uiso   1.00
C177   C     0.82225   0.19140   0.46032   0.00000  Uiso   1.00
C178   C     0.79131   0.21856   0.48275   0.00000  Uiso   1.00
C179   C     0.84801   0.17419   0.47915   0.00000  Uiso   1.00
C180   C     0.83614   0.17717   0.02104   0.00000  Uiso   1.00
C181   C     0.79953   0.19762   0.04308   0.00000  Uiso   1.00
C182   C     0.78160   0.22307   0.02449   0.00000  Uiso   1.00
H183   H     0.68314   0.19023   0.21392   0.00000  Uiso   1.00
H184   H     0.95716   0.09082   0.46284   0.00000  Uiso   1.00
H185   H     0.71532   0.26436   0.47322   0.00000  Uiso   1.00
H186   H     0.73351   0.23715   0.38390   0.00000  Uiso   1.00
H187   H     0.74872   0.19470   0.08902   0.00000  Uiso   1.00
H188   H     0.93598   0.14699   0.39899   0.00000  Uiso   1.00
H189   H     0.84299   0.15446   0.40409   0.00000  Uiso   1.00
H190   H     0.75853   0.25843   0.07295   0.00000  Uiso   1.00
H191   H     0.90940   0.03718   0.03573   0.00000  Uiso   1.00
H192   H     0.99571   0.12966   0.31110   0.00000  Uiso   1.00
H193   H     0.88356   0.31523   0.18297   0.00000  Uiso   1.00
H194   H     0.76584   0.01479   0.32128   0.00000  Uiso   1.00
H195   H     0.85976   0.22584   0.07881   0.00000  Uiso   1.00
H196   H     0.88187   0.07604   0.12867   0.00000  Uiso   1.00
O197   O     0.83333   0.16667   0.25000   0.00000  Uiso   1.00
O198   O     0.82360   0.12393   0.16625   0.00000  Uiso   1.00
O199   O     0.79354   0.20646   0.33749   0.00000  Uiso   1.00
O200   O     0.87755   0.17493   0.15877   0.00000  Uiso   1.00
O201   O     0.83865   0.16135   0.33749   0.00000  Uiso   1.00
O202   O     0.75264   0.25036   0.04695   0.00000  Uiso   1.00
O203   O     0.90455   0.05543   0.01780   0.00000  Uiso   1.00
O204   O     0.97874   0.13977   0.29589   0.00000  Uiso   1.00
O205   O     0.86906   0.00439   0.20171   0.00000  Uiso   1.00
O206   O     0.81489   0.32021   0.32479   0.00000  Uiso   1.00
O207   O     0.85209   0.20587   0.09900   0.00000  Uiso   1.00
O208   O     0.84515   0.08101   0.27820   0.00000  Uiso   1.00
O209   O     0.88592   0.06670   0.10027   0.00000  Uiso   1.00
O210   O     0.92765   0.07694   0.42041   0.00000  Uiso   1.00
O211   O     0.73911   0.26543   0.48543   0.00000  Uiso   1.00
O212   O     0.75697   0.29125   0.40641   0.00000  Uiso   1.00
O213   O     0.77945   0.18949   0.08185   0.00000  Uiso   1.00
O214   O     0.91542   0.20270   0.41211   0.00000  Uiso   1.00
O215   O     0.81247   0.26136   0.26767   0.00000  Uiso   1.00
O216   O     0.74119   0.13251   0.23607   0.00000  Uiso   1.00
O217   O     0.93452   0.19179   0.21805   0.00000  Uiso   1.00
O218   O     0.73656   0.18960   0.27820   0.00000  Uiso   1.00
O219   O     0.92106   0.15277   0.26767   0.00000  Uiso   1.00
O220   O     0.80467   0.06903   0.23607   0.00000  Uiso   1.00
O221   O     0.87104   0.25527   0.21805   0.00000  Uiso   1.00
Zn222  Zn    0.85910   0.14090   0.28277   0.00000  Uiso   1.00
Zn223  Zn    0.80125   0.12378   0.22257   0.00000  Uiso   1.00
Zn224  Zn    0.87833   0.19664   0.21188   0.00000  Uiso   1.00
Zn225  Zn    0.79465   0.20535   0.28277   0.00000  Uiso   1.00
C226   C     0.05279   0.49379   0.25856   0.00000  Uiso   1.00
C227   C     0.21800   0.48632   0.45767   0.00000  Uiso   1.00
C228   C     0.23072   0.45621   0.47592   0.00000  Uiso   1.00
C229   C     0.28097   0.50678   0.24140   0.00000  Uiso   1.00
C230   C     0.21537   0.45631   0.01779   0.00000  Uiso   1.00
C231   C     0.19209   0.48945   0.03972   0.00000  Uiso   1.00
C232   C     0.22308   0.42539   0.03868   0.00000  Uiso   1.00
C233   C     0.21285   0.43131   0.08063   0.00000  Uiso   1.00
C234   C     0.19148   0.49971   0.07984   0.00000  Uiso   1.00
C235   C     0.32671   0.50836   0.23806   0.00000  Uiso   1.00
C236   C     0.00709   0.49127   0.26387   0.00000  Uiso   1.00
C237   C     0.10883   0.56315   0.42176   0.00000  Uiso   1.00
C238   C     0.17743   0.65498   0.23638   0.00000  Uiso   1.00
C239   C     0.15270   0.34682   0.26500   0.00000  Uiso   1.00
C240   C     0.15598   0.38985   0.25943   0.00000  Uiso   1.00
C241   C     0.17644   0.61100   0.24128   0.00000  Uiso   1.00
C242   C     0.18864   0.47841   0.14396   0.00000  Uiso   1.00
C243   C     0.14516   0.52140   0.35656   0.00000  Uiso   1.00
C244   C     0.13630   0.53239   0.40019   0.00000  Uiso   1.00
C245   C     0.19835   0.46952   0.10082   0.00000  Uiso   1.00
C246   C     0.10187   0.57168   0.46327   0.00000  Uiso   1.00
C247   C     0.13044   0.33717   0.30629   0.00000  Uiso   1.00
C248   C     0.15781   0.51291   0.42022   0.00000  Uiso   1.00
C249   C     0.26385   0.42874   0.45198   0.00000  Uiso   1.00
C250   C     0.08680   0.58668   0.40198   0.00000  Uiso   1.00
C251   C     0.24739   0.50050   0.41975   0.00000  Uiso   1.00
C252   C     0.15558   0.52473   0.46032   0.00000  Uiso   1.00
C253   C     0.12464   0.55189   0.48275   0.00000  Uiso   1.00
C254   C     0.18134   0.50752   0.47915   0.00000  Uiso   1.00
C255   C     0.16948   0.51050   0.02104   0.00000  Uiso   1.00
C256   C     0.13286   0.53095   0.04308   0.00000  Uiso   1.00
C257   C     0.11493   0.55641   0.02449   0.00000  Uiso   1.00
H258   H     0.01648   0.52356   0.21392   0.00000  Uiso   1.00
H259   H     0.29049   0.42416   0.46284   0.00000  Uiso   1.00
H260   H     0.04866   0.59769   0.47322   0.00000  Uiso   1.00
H261   H     0.06685   0.57048   0.38390   0.00000  Uiso   1.00
H262   H     0.08206   0.52803   0.08902   0.00000  Uiso   1.00
H263   H     0.26931   0.48033   0.39899   0.00000  Uiso   1.00
H264   H     0.17632   0.48779   0.40409   0.00000  Uiso   1.00
H265   H     0.09186   0.59176   0.07295   0.00000  Uiso   1.00
H266   H     0.24273   0.37052   0.03573   0.00000  Uiso   1.00
H267   H     0.32904   0.46299   0.31110   0.00000  Uiso   1.00
H268   H     0.21689   0.64856   0.18297   0.00000  Uiso   1.00
H269   H     0.09917   0.34813   0.32128   0.00000  Uiso   1.00
H270   H     0.19309   0.55917   0.07881   0.00000  Uiso   1.00
H271   H     0.21520   0.40937   0.12867   0.00000  Uiso   1.00
O272   O     0.16667   0.50000   0.25000   0.00000  Uiso   1.00
O273   O     0.15693   0.45726   0.16625   0.00000  Uiso   1.00
O274   O     0.12687   0.53979   0.33749   0.00000  Uiso   1.00
O275   O     0.21088   0.50826   0.15877   0.00000  Uiso   1.00
O276   O     0.17198   0.49468   0.33749   0.00000  Uiso   1.00
O277   O     0.08597   0.58369   0.04695   0.00000  Uiso   1.00
O278   O     0.23788   0.38876   0.01780   0.00000  Uiso   1.00
O279   O     0.31208   0.47310   0.29589   0.00000  Uiso   1.00
O280   O     0.20239   0.33773   0.20171   0.00000  Uiso   1.00
O281   O     0.14823   0.65354   0.32479   0.00000  Uiso   1.00
O282   O     0.18542   0.53921   0.09900   0.00000  Uiso   1.00
O283   O     0.17849   0.41434   0.27820   0.00000  Uiso   1.00
O284   O     0.21925   0.40003   0.10027   0.00000  Uiso   1.00
O285   O     0.26099   0.41027   0.42041   0.00000  Uiso   1.00
O286   O     0.07244   0.59877   0.48543   0.00000  Uiso   1.00
O287   O     0.09031   0.62458   0.40641   0.00000  Uiso   1.00
O288   O     0.11278   0.52282   0.08185   0.00000  Uiso   1.00
O289   O     0.24876   0.53603   0.41211   0.00000  Uiso   1.00
O290   O     0.14581   0.59469   0.26767   0.00000  Uiso   1.00
O291   O     0.07452   0.46584   0.23607   0.00000  Uiso   1.00
O292   O     0.26785   0.52512   0.21805   0.00000  Uiso   1.00
O293   O     0.06990   0.52293   0.27820   0.00000  Uiso   1.00
O294   O     0.25440   0.48610   0.26767   0.00000  Uiso   1.00
O295   O     0.13800   0.40236   0.23607   0.00000  Uiso   1.00
O296   O     0.20437   0.58860   0.21805   0.00000  Uiso   1.00
Zn297  Zn    0.19244   0.47423   0.28277   0.00000  Uiso   1.00
Zn298  Zn    0.13459   0.45711   0.22257   0.00000  Uiso   1.00
Zn299  Zn    0.21166   0.52997   0.21188   0.00000  Uiso   1.00
Zn300  Zn    0.12798   0.53868   0.28277   0.00000  Uiso   1.00
C301   C     0.38612   0.49379   0.25856   0.00000  Uiso   1.00
C302   C     0.55133   0.48632   0.45767   0.00000  Uiso   1.00
C303   C     0.56406   0.45621   0.47592   0.00000  Uiso   1.00
C304   C     0.61430   0.50678   0.24140   0.00000  Uiso   1.00
C305   C     0.54870   0.45631   0.01779   0.00000  Uiso   1.00
C306   C     0.52542   0.48945   0.03972   0.00000  Uiso   1.00
C307   C     0.55641   0.42539   0.03868   0.00000  Uiso   1.00
C308   C     0.54618   0.43131   0.08063   0.00000  Uiso   1.00
C309   C     0.52481   0.49971   0.07984   0.00000  Uiso   1.00
C310   C     0.66004   0.50836   0.23806   0.00000  Uiso   1.00
C311   C     0.34043   0.49127   0.26387   0.00000  Uiso   1.00
C312   C     0.44216   0.56315   0.42176   0.00000  Uiso   1.00
C313   C     0.51076   0.65498   0.23638   0.00000  Uiso   1.00
C314   C     0.48603   0.34682   0.26500   0.00000  Uiso   1.00
C315   C     0.48931   0.38985   0.25943   0.00000  Uiso   1.00
C316   C     0.50978   0.61100   0.24128   0.00000  Uiso   1.00
C317   C     0.52197   0.47841   0.14396   0.00000  Uiso   1.00
C318   C     0.47849   0.52140   0.35656   0.00000  Uiso   1.00
C319   C     0.46963   0.53239   0.40019   0.00000  Uiso   1.00
C320   C     0.53169   0.46952   0.10082   0.00000  Uiso   1.00
C321   C     0.43520   0.57168   0.46327   0.00000  Uiso   1.00
C322   C     0.46378   0.33717   0.30629   0.00000  Uiso   1.00
C323   C     0.49115   0.51291   0.42022   0.00000  Uiso   1.00
C324   C     0.59718   0.42874   0.45198   0.00000  Uiso   1.00
C325   C     0.42014   0.58668   0.40198   0.00000  Uiso   1.00
C326   C     0.58072   0.50050   0.41975   0.00000  Uiso   1.00
C327   C     0.48891   0.52473   0.46032   0.00000  Uiso   1.00
C328   C     0.45798   0.55189   0.48275   0.00000  Uiso   1.00
C329   C     0.51467   0.50752   0.47915   0.00000  Uiso   1.00
C330   C     0.50281   0.51050   0.02104   0.00000  Uiso   1.00
C331   C     0.46620   0.53095   0.04308   0.00000  Uiso   1.00
C332   C     0.44826   0.55641   0.02449   0.00000  Uiso   1.00
H333   H     0.34981   0.52356   0.21392   0.00000  Uiso   1.00
H334   H     0.62383   0.42416   0.46284   0.00000  Uiso   1.00
H335   H     0.38199   0.59769   0.47322   0.00000  Uiso   1.00
H336   H     0.40018   0.57048   0.38390   0.00000  Uiso   1.00
H337   H     0.41539   0.52803   0.08902   0.00000  Uiso   1.00
H338   H     0.60265   0.48033   0.39899   0.00000  Uiso   1.00
H339   H     0.50966   0.48779   0.40409   0.00000  Uiso   1.00
H340   H     0.42520   0.59176   0.07295   0.00000  Uiso   1.00
H341   H     0.57606   0.37052   0.03573   0.00000  Uiso   1.00
H342   H     0.66237   0.46299   0.31110   0.00000  Uiso   1.00
H343   H     0.55023   0.64856   0.18297   0.00000  Uiso   1.00
H344   H     0.43250   0.34813   0.32128   0.00000  Uiso   1.00
H345   H     0.52642   0.55917   0.07881   0.00000  Uiso   1.00
H346   H     0.54853   0.40937   0.12867   0.00000  Uiso   1.00
O347   O     0.50000   0.50000   0.25000   0.00000  Uiso   1.00
O348   O     0.49027   0.45726   0.16625   0.00000  Uiso   1.00
O349   O     0.46020   0.53979   0.33749   0.00000  Uiso   1.00
O350   O     0.54421   0.50826   0.15877   0.00000  Uiso   1.00
O351   O     0.50532   0.49468   0.33749   0.00000  Uiso   1.00
O352   O     0.41930   0.58369   0.04695   0.00000  Uiso   1.00
O353   O     0.57121   0.38876   0.01780   0.00000  Uiso   1.00
O354   O     0.64541   0.47310   0.29589   0.00000  Uiso   1.00
O355   O     0.53573   0.33773   0.20171   0.00000  Uiso   1.00
O356   O     0.48156   0.65354   0.32479   0.00000  Uiso   1.00
O357   O     0.51875   0.53921   0.09900   0.00000  Uiso   1.00
O358   O     0.51182   0.41434   0.27820   0.00000  Uiso   1.00
O359   O     0.55258   0.40003   0.10027   0.00000  Uiso   1.00
O360   O     0.59432   0.41027   0.42041   0.00000  Uiso   1.00
O361   O     0.40577   0.59877   0.48543   0.00000  Uiso   1.00
O362   O     0.42364   0.62458   0.40641   0.00000  Uiso   1.00
O363   O     0.44611   0.52282   0.08185   0.00000  Uiso   1.00
O364   O     0.58209   0.53603   0.41211   0.00000  Uiso   1.00
O365   O     0.47914   0.59469   0.26767   0.00000  Uiso   1.00
O366   O     0.40785   0.46584   0.23607   0.00000  Uiso   1.00
O367   O     0.60119   0.52512   0.21805   0.00000  Uiso   1.00
O368   O     0.40323   0.52293   0.27820   0.00000  Uiso   1.00
O369   O     0.58773   0.48610   0.26767   0.00000  Uiso   1.00
O370   O     0.47133   0.40236   0.23607   0.00000  Uiso   1.00
O371   O     0.53771   0.58860   0.21805   0.00000  Uiso   1.00
Zn372  Zn    0.52577   0.47423   0.28277   0.00000  Uiso   1.00
Zn373  Zn    0.46792   0.45711   0.22257   0.00000  Uiso   1.00
Zn374  Zn    0.54500   0.52997   0.21188   0.00000  Uiso   1.00
Zn375  Zn    0.46131   0.53868   0.28277   0.00000  Uiso   1.00
C376   C     0.71946   0.49379   0.25856   0.00000  Uiso   1.00
C377   C     0.88467   0.48632   0.45767   0.00000  Uiso   1.00
C378   C     0.89739   0.45621   0.47592   0.00000  Uiso   1.00
C379   C     0.94764   0.50678   0.24140   0.00000  Uiso   1.00
C380   C     0.88203   0.45631   0.01779   0.00000  Uiso   1.00
C381   C     0.85876   0.48945   0.03972   0.00000  Uiso   1.00
C382   C     0.88975   0.42539   0.03868   0.00000  Uiso   1.00
C383   C     0.87951   0.43131   0.08063   0.00000  Uiso   1.00
C384   C     0.85814   0.49971   0.07984   0.00000  Uiso   1.00
C385   C     0.99337   0.50836   0.23806   0.00000  Uiso   1.00
C386   C     0.67376   0.49127   0.26387   0.00000  Uiso   1.00
C387   C     0.77550   0.56315   0.42176   0.00000  Uiso   1.00
C388   C     0.84409   0.65498   0.23638   0.00000  Uiso   1.00
C389   C     0.81936   0.34682   0.26500   0.00000  Uiso   1.00
C390   C     0.82264   0.38985   0.25943   0.00000  Uiso   1.00
C391   C     0.84311   0.61100   0.24128   0.00000  Uiso   1.00
C392   C     0.85530   0.47841   0.14396   0.00000  Uiso   1.00
C393   C     0.81182   0.52140   0.35656   0.00000  Uiso   1.00
C394   C     0.80297   0.53239   0.40019   0.00000  Uiso   1.00
C395   C     0.86502   0.46952   0.10082   0.00000  Uiso   1.00
C396   C     0.76854   0.57168   0.46327   0.00000  Uiso   1.00
C397   C     0.79711   0.33717   0.30629   0.00000  Uiso   1.00
C398   C     0.82448   0.51291   0.42022   0.00000  Uiso   1.00
C399   C     0.93051   0.42874   0.45198   0.00000  Uiso   1.00
C400   C     0.75347   0.58668   0.40198   0.00000  Uiso   1.00
C401   C     0.91405   0.50050   0.41975   0.00000  Uiso   1.00
C402   C     0.82225   0.52473   0.46032   0.00000  Uiso   1.00
C403   C     0.79131   0.55189   0.48275   0.00000  Uiso   1.00
C404   C     0.84801   0.50752   0.47915   0.00000  Uiso   1.00
C405   C     0.83614   0.51050   0.02104   0.00000  Uiso   1.00
C406   C     0.79953   0.53095   0.04308   0.00000  Uiso   1.00
C407   C     0.78160   0.55641   0.02449   0.00000  Uiso   1.00
H408   H     0.68314   0.52356   0.21392   0.00000  Uiso   1.00
H409   H     0.95716   0.42416   0.46284   0.00000  Uiso   1.00
H410   H     0.71532   0.59769   0.47322   0.00000  Uiso   1.00
H411   H     0.73351   0.57048   0.38390   0.00000  Uiso   1.00
H412   H     0.74872   0.52803   0.08902   0.00000  Uiso   1.00
H413   H     0.93598   0.48033   0.39899   0.00000  Uiso   1.00
H414   H     0.84299   0.48779   0.40409   0.00000  Uiso   1.00
H415   H     0.75853   0.59176   0.07295   0.00000  Uiso   1.00
H416   H     0.90940   0.37052   0.03573   0.00000  Uiso   1.00
H417   H     0.99571   0.46299   0.31110   0.00000  Uiso   1.00
H418   H     0.88356   0.64856   0.18297   0.00000  Uiso   1.00
H419   H     0.76584   0.34813   0.32128   0.00000  Uiso   1.00
H420   H     0.85976   0.55917   0.07881   0.00000  Uiso   1.00
H421   H     0.88187   0.40937   0.12867   0.00000  Uiso   1.00
O422   O     0.83333   0.50000   0.25000   0.00000  Uiso   1.00
O423   O     0.82360   0.45726   0.16625   0.00000  Uiso   1.00
O424   O     0.79354   0.53979   0.33749   0.00000  Uiso   1.00
O425   O     0.87755   0.50826   0.15877   0.00000  Uiso   1.00
O426   O     0.83865   0.49468   0.33749   0.00000  Uiso   1.00
O427   O     0.75264   0.58369   0.04695   0.00000  Uiso   1.00
O428   O     0.90455   0.38876   0.01780   0.00000  Uiso   1.00
O429   O     0.97874   0.47310   0.29589   0.00000  Uiso   1.00
O430   O     0.86906   0.33773   0.20171   0.00000  Uiso   1.00
O431   O     0.81489   0.65354   0.32479   0.00000  Uiso   1.00
O432   O     0.85209   0.53921   0.09900   0.00000  Uiso   1.00
O433   O     0.84515   0.41434   0.27820   0.00000  Uiso   1.00
O434   O     0.88592   0.40003   0.10027   0.00000  Uiso   1.00
O435   O     0.92765   0.41027   0.42041   0.00000  Uiso   1.00
O436   O     0.73911   0.59877   0.48543   0.00000  Uiso   1.00
O437   O     0.75697   0.62458   0.40641   0.00000  Uiso   1.00
O438   O     0.77945   0.52282   0.08185   0.00000  Uiso   1.00
O439   O     0.91542   0.53603   0.41211   0.00000  Uiso   1.00
O440   O     0.81247   0.59469   0.26767   0.00000  Uiso   1.00
O441   O     0.74119   0.46584   0.23607   0.00000  Uiso   1.00
O442   O     0.93452   0.52512   0.21805   0.00000  Uiso   1.00
O443   O     0.73656   0.52293   0.27820   0.00000  Uiso   1.00
O444   O     0.92106   0.48610   0.26767   0.00000  Uiso   1.00
O445   O     0.80467   0.40236   0.23607   0.00000  Uiso   1.00
O446   O     0.87104   0.58860   0.21805   0.00000  Uiso   1.00
Zn447  Zn    0.85910   0.47423   0.28277   0.00000  Uiso   1.00
Zn448  Zn    0.80125   0.45711   0.22257   0.00000  Uiso   1.00
Zn449  Zn    0.87833   0.52997   0.21188   0.00000  Uiso   1.00
Zn450  Zn    0.79465   0.53868   0.28277   0.00000  Uiso   1.00
C451   C     0.05279   0.82713   0.25856   0.00000  Uiso   1.00
C452   C     0.21800   0.81966   0.45767   0.00000  Uiso   1.00
C453   C     0.23072   0.78955   0.47592   0.00000  Uiso   1.00
C454   C     0.28097   0.84011   0.24140   0.00000  Uiso   1.00
C455   C     0.21537   0.78965   0.01779   0.00000  Uiso   1.00
C456   C     0.19209   0.82278   0.03972   0.00000  Uiso   1.00
C457   C     0.22308   0.75873   0.03868   0.00000  Uiso   1.00
C458   C     0.21285   0.76464   0.08063   0.00000  Uiso   1.00
C459   C     0.19148   0.83304   0.07984   0.00000  Uiso   1.00
C460   C     0.32671   0.84169   0.23806   0.00000  Uiso   1.00
C461   C     0.00709   0.82461   0.26387   0.00000  Uiso   1.00
C462   C     0.10883   0.89648   0.42176   0.00000  Uiso   1.00
C463   C     0.17743   0.98831   0.23638   0.00000  Uiso   1.00
C464   C     0.15270   0.68016   0.26500   0.00000  Uiso   1.00
C465   C     0.15598   0.72318   0.25943   0.00000  Uiso   1.00
C466   C     0.17644   0.94433   0.24128   0.00000  Uiso   1.00
C467   C     0.18864   0.81174   0.14396   0.00000  Uiso   1.00
C468   C     0.14516   0.85473   0.35656   0.00000  Uiso   1.00
C469   C     0.13630   0.86573   0.40019   0.00000  Uiso   1.00
C470   C     0.19835   0.80285   0.10082   0.00000  Uiso   1.00
C471   C     0.10187   0.90501   0.46327   0.00000  Uiso   1.00
C472   C     0.13044   0.67050   0.30629   0.00000  Uiso   1.00
C473   C     0.15781   0.84624   0.42022   0.00000  Uiso   1.00
C474   C     0.26385   0.76207   0.45198   0.00000  Uiso   1.00
C475   C     0.08680   0.92001   0.40198   0.00000  Uiso   1.00
C476   C     0.24739   0.83383   0.41975   0.00000  Uiso   1.00
C477   C     0.15558   0.85806   0.46032   0.00000  Uiso   1.00
C478   C     0.12464   0.88522   0.48275   0.00000  Uiso   1.00
C479   C     0.18134   0.84086   0.47915   0.00000  Uiso   1.00
C480   C     0.16948   0.84383   0.02104   0.00000  Uiso   1.00
C481   C     0.13286   0.86429   0.04308   0.00000  Uiso   1.00
C482   C     0.11493   0.88974   0.02449   0.00000  Uiso   1.00
H483   H     0.01648   0.85689   0.21392   0.00000  Uiso   1.00
H484   H     0.29049   0.75749   0.46284   0.00000  Uiso   1.00
H485   H     0.04866   0.93103   0.47322   0.00000  Uiso   1.00
H486   H     0.06685   0.90382   0.38390   0.00000  Uiso   1.00
H487   H     0.08206   0.86137   0.08902   0.00000  Uiso   1.00
H488   H     0.26931   0.81366   0.39899   0.00000  Uiso   1.00
H489   H     0.17632   0.82113   0.40409   0.00000  Uiso   1.00
H490   H     0.09186   0.92509   0.07295   0.00000  Uiso   1.00
H491   H     0.24273   0.70385   0.03573   0.00000  Uiso   1.00
H492   H     0.32904   0.79632   0.31110   0.00000  Uiso   1.00
H493   H     0.21689   0.98190   0.18297   0.00000  Uiso   1.00
H494   H     0.09917   0.68146   0.32128   0.00000  Uiso   1.00
H495   H     0.19309   0.89251   0.07881   0.00000  Uiso   1.00
H496   H     0.21520   0.74271   0.12867   0.00000  Uiso   1.00
O497   O     0.16667   0.83333   0.25000   0.00000  Uiso   1.00
O498   O     0.15693   0.79060   0.16625   0.00000  Uiso   1.00
O499   O     0.12687   0.87313   0.33749   0.00000  Uiso   1.00
O500   O     0.21088   0.84159   0.15877   0.00000  Uiso   1.00
O501   O     0.17198   0.82802   0.33749   0.00000  Uiso   1.00
O502   O     0.08597   0.91702   0.04695   0.00000  Uiso   1.00
O503   O     0.23788   0.72210   0.01780   0.00000  Uiso   1.00
O504   O     0.31208   0.80644   0.29589   0.00000  Uiso   1.00
O505   O     0.20239   0.67106   0.20171   0.00000  Uiso   1.00
O506   O     0.14823   0.98688   0.32479   0.00000  Uiso   1.00
O507   O     0.18542   0.87254   0.09900   0.00000  Uiso   1.00
O508   O     0.17849   0.74768   0.27820   0.00000  Uiso   1.00
O509   O     0.21925   0.73336   0.10027   0.00000  Uiso   1.00
O510   O     0.26099   0.74360   0.42041   0.00000  Uiso   1.00
O511   O     0.07244   0.93210   0.48543   0.00000  Uiso   1.00
O512   O     0.09031   0.95792   0.40641   0.00000  Uiso   1.00
O513   O     0.11278   0.85616   0.08185   0.00000  Uiso   1.00
O514   O     0.24876   0.86937   0.41211   0.00000  Uiso   1.00
O515   O     0.14581   0.92803   0.26767   0.00000  Uiso   1.00
O516   O     0.07452   0.79917   0.23607   0.00000  Uiso   1.00
O517   O     0.26785   0.85845   0.21805   0.00000  Uiso   1.00
O518   O     0.06990   0.85627   0.27820   0.00000  Uiso   1.00
O519   O     0.25440   0.81944   0.26767   0.00000  Uiso   1.00
O520   O     0.13800   0.73570   0.23607   0.00000  Uiso   1.00
O521   O     0.20437   0.92193   0.21805   0.00000  Uiso   1.00
Zn522  Zn    0.19244   0.80756   0.28277   0.00000  Uiso   1.00
Zn523  Zn    0.13459   0.79044   0.22257   0.00000  Uiso   1.00
Zn524  Zn    0.21166   0.86331   0.21188   0.00000  Uiso   1.00
Zn525  Zn    0.12798   0.87202   0.28277   0.00000  Uiso   1.00
C526   C     0.38612   0.82713   0.25856   0.00000  Uiso   1.00
C527   C     0.55133   0.81966   0.45767   0.00000  Uiso   1.00
C528   C     0.56406   0.78955   0.47592   0.00000  Uiso   1.00
C529   C     0.61430   0.84011   0.24140   0.00000  Uiso   1.00
C530   C     0.54870   0.78965   0.01779   0.00000  Uiso   1.00
C531   C     0.52542   0.82278   0.03972   0.00000  Uiso   1.00
C532   C     0.55641   0.75873   0.03868   0.00000  Uiso   1.00
C533   C     0.54618   0.76464   0.08063   0.00000  Uiso   1.00
C534   C     0.52481   0.83304   0.07984   0.00000  Uiso   1.00
C535   C     0.66004   0.84169   0.23806   0.00000  Uiso   1.00
C536   C     0.34043   0.82461   0.26387   0.00000  Uiso   1.00
C537   C     0.44216   0.89648   0.42176   0.00000  Uiso   1.00
C538   C     0.51076   0.98831   0.23638   0.00000  Uiso   1.00
C539   C     0.48603   0.68016   0.26500   0.00000  Uiso   1.00
C540   C     0.48931   0.72318   0.25943   0.00000  Uiso   1.00
C541   C     0.50978   0.94433   0.24128   0.00000  Uiso   1.00
C542   C     0.52197   0.81174   0.14396   0.00000  Uiso   1.00
C543   C     0.47849   0.85473   0.35656   0.00000  Uiso   1.00
C544   C     0.46963   0.86573   0.40019   0.00000  Uiso   1.00
C545   C     0.53169   0.80285   0.10082   0.00000  Uiso   1.00
C546   C     0.43520   0.90501   0.46327   0.00000  Uiso   1.00
C547   C     0.46378   0.67050   0.30629   0.00000  Uiso   1.00
C548   C     0.49115   0.84624   0.42022   0.00000  Uiso   1.00
C549   C     0.59718   0.76207   0.45198   0.00000  Uiso   1.00
C550   C     0.42014   0.92001   0.40198   0.00000  Uiso   1.00
C551   C     0.58072   0.83383   0.41975   0.00000  Uiso   1.00
C552   C     0.48891   0.85806   0.46032   0.00000  Uiso   1.00
C553   C     0.45798   0.88522   0.48275   0.00000  Uiso   1.00
C554   C     0.51467   0.84086   0.47915   0.00000  Uiso   1.00
C555   C     0.50281   0.84383   0.02104   0.00000  Uiso   1.00
C556   C     0.46620   0.86429   0.04308   0.00000  Uiso   1.00
C557   C     0.44826   0.88974   0.02449   0.00000  Uiso   1.00
H558   H     0.34981   0.85689   0.21392   0.00000  Uiso   1.00
H559   H     0.62383   0.75749   0.46284   0.00000  Uiso   1.00
H560   H     0.38199   0.93103   0.47322   0.00000  Uiso   1.00
H561   H     0.40018   0.90382   0.38390   0.00000  Uiso   1.00
H562   H     0.41539   0.86137   0.08902   0.00000  Uiso   1.00
H563   H     0.60265   0.81366   0.39899   0.00000  Uiso   1.00
H564   H     0.50966   0.82113   0.40409   0.00000  Uiso   1.00
H565   H     0.42520   0.92509   0.07295   0.00000  Uiso   1.00
H566   H     0.57606   0.70385   0.03573   0.00000  Uiso   1.00
H567   H     0.66237   0.79632   0.31110   0.00000  Uiso   1.00
H568   H     0.55023   0.98190   0.18297   0.00000  Uiso   1.00
H569   H     0.43250   0.68146   0.32128   0.00000  Uiso   1.00
H570   H     0.52642   0.89251   0.07881   0.00000  Uiso   1.00
H571   H     0.54853   0.74271   0.12867   0.00000  Uiso   1.00
O572   O     0.50000   0.83333   0.25000   0.00000  Uiso   1.00
O573   O     0.49027   0.79060   0.16625   0.00000  Uiso   1.00
O574   O     0.46020   0.87313   0.33749   0.00000  Uiso   1.00
O575   O     0.54421   0.84159   0.15877   0.00000  Uiso   1.00
O576   O     0.50532   0.82802   0.33749   0.00000  Uiso   1.00
O577   O     0.41930   0.91702   0.04695   0.00000  Uiso   1.00
O578   O     0.57121   0.72210   0.01780   0.00000  Uiso   1.00
O579   O     0.64541   0.80644   0.29589   0.00000  Uiso   1.00
O580   O     0.53573   0.67106   0.20171   0.00000  Uiso   1.00
O581   O     0.48156   0.98688   0.32479   0.00000  Uiso   1.00
O582   O     0.51875   0.87254   0.09900   0.00000  Uiso   1.00
O583   O     0.51182   0.74768   0.27820   0.00000  Uiso   1.00
O584   O     0.55258   0.73336   0.10027   0.00000  Uiso   1.00
O585   O     0.59432   0.74360   0.42041   0.00000  Uiso   1.00
O586   O     0.40577   0.93210   0.48543   0.00000  Uiso   1.00
O587   O     0.42364   0.95792   0.40641   0.00000  Uiso   1.00
O588   O     0.44611   0.85616   0.08185   0.00000  Uiso   1.00
O589   O     0.58209   0.86937   0.41211   0.00000  Uiso   1.00
O590   O     0.47914   0.92803   0.26767   0.00000  Uiso   1.00
O591   O     0.40785   0.79917   0.23607   0.00000  Uiso   1.00
O592   O     0.60119   0.85845   0.21805   0.00000  Uiso   1.00
O593   O     0.40323   0.85627   0.27820   0.00000  Uiso   1.00
O594   O     0.58773   0.81944   0.26767   0.00000  Uiso   1.00
O595   O     0.47133   0.73570   0.23607   0.00000  Uiso   1.00
O596   O     0.53771   0.92193   0.21805   0.00000  Uiso   1.00
Zn597  Zn    0.52577   0.80756   0.28277   0.00000  Uiso   1.00
Zn598  Zn    0.46792   0.79044   0.22257   0.00000  Uiso   1.00
Zn599  Zn    0.54500   0.86331   0.21188   0.00000  Uiso   1.00
Zn600  Zn    0.46131   0.87202   0.28277   0.00000  Uiso   1.00
C601   C     0.71946   0.82713   0.25856   0.00000  Uiso   1.00
C602   C     0.88467   0.81966   0.45767   0.00000  Uiso   1.00
C603   C     0.89739   0.78955   0.47592   0.00000  Uiso   1.00
C604   C     0.94764   0.84011   0.24140   0.00000  Uiso   1.00
C605   C     0.88203   0.78965   0.01779   0.00000  Uiso   1.00
C606   C     0.85876   0.82278   0.03972   0.00000  Uiso   1.00
C607   C     0.88975   0.75873   0.03868   0.00000  Uiso   1.00
C608   C     0.87951   0.76464   0.08063   0.00000  Uiso   1.00
C609   C     0.85814   0.83304   0.07984   0.00000  Uiso   1.00
C610   C     0.99337   0.84169   0.23806   0.00000  Uiso   1.00
C611   C     0.67376   0.82461   0.26387   0.00000  Uiso   1.00
C612   C     0.77550   0.89648   0.42176   0.00000  Uiso   1.00
C613   C     0.84409   0.98831   0.23638   0.00000  Uiso   1.00
C614   C     0.81936   0.68016   0.26500   0.00000  Uiso   1.00
C615   C     0.82264   0.72318   0.25943   0.00000  Uiso   1.00
C616   C     0.84311   0.94433   0.24128   0.00000  Uiso   1.00
C617   C     0.85530   0.81174   0.14396   0.00000  Uiso   1.00
C618   C     0.81182   0.85473   0.35656   0.00000  Uiso   1.00
C619   C     0.80297   0.86573   0.40019   0.00000  Uiso   1.00
C620   C     0.86502   0.80285   0.10082   0.00000  Uiso   1.00
C621   C     0.76854   0.90501   0.46327   0.00000  Uiso   1.00
C622   C     0.79711   0.67050   0.30629   0.00000  Uiso   1.00
C623   C     0.82448   0.84624   0.42022   0.00000  Uiso   1.00
C624   C     0.93051   0.76207   0.45198   0.00000  Uiso   1.00
C625   C     0.75347   0.92001   0.40198   0.00000  Uiso   1.00
C626   C     0.91405   0.83383   0.41975   0.00000  Uiso   1.00
C627   C     0.82225   0.85806   0.46032   0.00000  Uiso   1.00
C628   C     0.79131   0.88522   0.48275   0.00000  Uiso   1.00
C629   C     0.84801   0.84086   0.47915   0.00000  Uiso   1.00
C630   C     0.83614   0.84383   0.02104   0.00000  Uiso   1.00
C631   C     0.79953   0.86429   0.04308   0.00000  Uiso   1.00
C632   C     0.78160   0.88974   0.02449   0.00000  Uiso   1.00
H633   H     0.68314   0.85689   0.21392   0.00000  Uiso   1.00
H634   H     0.95716   0.75749   0.46284   0.00000  Uiso   1.00
H635   H     0.71532   0.93103   0.47322   0.00000  Uiso   1.00
H636   H     0.73351   0.90382   0.38390   0.00000  Uiso   1.00
H637   H     0.74872   0.86137   0.08902   0.00000  Uiso   1.00
H638   H     0.93598   0.81366   0.39899   0.00000  Uiso   1.00
H639   H     0.84299   0.82113   0.40409   0.00000  Uiso   1.00
H640   H     0.75853   0.92509   0.07295   0.00000  Uiso   1.00
H641   H     0.90940   0.70385   0.03573   0.00000  Uiso   1.00
H642   H     0.99571   0.79632   0.31110   0.00000  Uiso   1.00
H643   H     0.88356   0.98190   0.18297   0.00000  Uiso   1.00
H644   H     0.76584   0.68146   0.32128   0.00000  Uiso   1.00
H645   H     0.85976   0.89251   0.07881   0.00000  Uiso   1.00
H646   H     0.88187   0.74271   0.12867   0.00000  Uiso   1.00
O647   O     0.83333   0.83333   0.25000   0.00000  Uiso   1.00
O648   O     0.82360   0.79060   0.16625   0.00000  Uiso   1.00
O649   O     0.79354   0.87313   0.33749   0.00000  Uiso   1.00
O650   O     0.87755   0.84159   0.15877   0.00000  Uiso   1.00
O651   O     0.83865   0.82802   0.33749   0.00000  Uiso   1.00
O652   O     0.75264   0.91702   0.04695   0.00000  Uiso   1.00
O653   O     0.90455   0.72210   0.01780   0.00000  Uiso   1.00
O654   O     0.97874   0.80644   0.29589   0.00000  Uiso   1.00
O655   O     0.86906   0.67106   0.20171   0.00000  Uiso   1.00
O656   O     0.81489   0.98688   0.32479   0.00000  Uiso   1.00
O657   O     0.85209   0.87254   0.09900   0.00000  Uiso   1.00
O658   O     0.84515   0.74768   0.27820   0.00000  Uiso   1.00
O659   O     0.88592   0.73336   0.10027   0.00000  Uiso   1.00
O660   O     0.92765   0.74360   0.42041   0.00000  Uiso   1.00
O661   O     0.73911   0.93210   0.48543   0.00000  Uiso   1.00
O662   O     0.75697   0.95792   0.40641   0.00000  Uiso   1.00
O663   O     0.77945   0.85616   0.08185   0.00000  Uiso   1.00
O664   O     0.91542   0.86937   0.41211   0.00000  Uiso   1.00
O665   O     0.81247   0.92803   0.26767   0.00000  Uiso   1.00
O666   O     0.74119   0.79917   0.23607   0.00000  Uiso   1.00
O667   O     0.93452   0.85845   0.21805   0.00000  Uiso   1.00
O668   O     0.73656   0.85627   0.27820   0.00000  Uiso   1.00
O669   O     0.92106   0.81944   0.26767   0.00000  Uiso   1.00
O670   O     0.80467   0.73570   0.23607   0.00000  Uiso   1.00
O671   O     0.87104   0.92193   0.21805   0.00000  Uiso   1.00
Zn672  Zn    0.85910   0.80756   0.28277   0.00000  Uiso   1.00
Zn673  Zn    0.80125   0.79044   0.22257   0.00000  Uiso   1.00
Zn674  Zn    0.87833   0.86331   0.21188   0.00000  Uiso   1.00
Zn675  Zn    0.79465   0.87202   0.28277   0.00000  Uiso   1.00
C676   C     0.05279   0.16046   0.75856   0.00000  Uiso   1.00
C677   C     0.21800   0.15299   0.95767   0.00000  Uiso   1.00
C678   C     0.23072   0.12288   0.97592   0.00000  Uiso   1.00
C679   C     0.28097   0.17344   0.74140   0.00000  Uiso   1.00
C680   C     0.21537   0.12298   0.51779   0.00000  Uiso   1.00
C681   C     0.19209   0.15611   0.53972   0.00000  Uiso   1.00
C682   C     0.22308   0.09206   0.53868   0.00000  Uiso   1.00
C683   C     0.21285   0.09798   0.58063   0.00000  Uiso   1.00
C684   C     0.19148   0.16637   0.57984   0.00000  Uiso   1.00
C685   C     0.32671   0.17502   0.73806   0.00000  Uiso   1.00
C686   C     0.00709   0.15794   0.76387   0.00000  Uiso   1.00
C687   C     0.10883   0.22981   0.92176   0.00000  Uiso   1.00
C688   C     0.17743   0.32164   0.73638   0.00000  Uiso   1.00
C689   C     0.15270   0.01349   0.76500   0.00000  Uiso   1.00
C690   C     0.15598   0.05652   0.75943   0.00000  Uiso   1.00
C691   C     0.17644   0.27766   0.74128   0.00000  Uiso   1.00
C692   C     0.18864   0.14507   0.64396   0.00000  Uiso   1.00
C693   C     0.14516   0.18806   0.85656   0.00000  Uiso   1.00
C694   C     0.13630   0.19906   0.90019   0.00000  Uiso   1.00
C695   C     0.19835   0.13619   0.60082   0.00000  Uiso   1.00
C696   C     0.10187   0.23835   0.96327   0.00000  Uiso   1.00
C697   C     0.13044   0.00384   0.80629   0.00000  Uiso   1.00
C698   C     0.15781   0.17957   0.92022   0.00000  Uiso   1.00
C699   C     0.26385   0.09541   0.95198   0.00000  Uiso   1.00
C700   C     0.08680   0.25335   0.90198   0.00000  Uiso   1.00
C701   C     0.24739   0.16716   0.91975   0.00000  Uiso   1.00
C702   C     0.15558   0.19140   0.96032   0.00000  Uiso   1.00
C703   C     0.12464   0.21856   0.98275   0.00000  Uiso   1.00
C704   C     0.18134   0.17419   0.97915   0.00000  Uiso   1.00
C705   C     0.16948   0.17717   0.52104   0.00000  Uiso   1.00
C706   C     0.13286   0.19762   0.54308   0.00000  Uiso   1.00
C707   C     0.11493   0.22307   0.52449   0.00000  Uiso   1.00
H708   H     0.01648   0.19023   0.71392   0.00000  Uiso   1.00
H709   H     0.29049   0.09082   0.96284   0.00000  Uiso   1.00
H710   H     0.04866   0.26436   0.97322   0.00000  Uiso   1.00
H711   H     0.06685   0.23715   0.88390   0.00000  Uiso   1.00
H712   H     0.08206   0.19470   0.58902   0.00000  Uiso   1.00
H713   H     0.26931   0.14699   0.89899   0.00000  Uiso   1.00
H714   H     0.17632   0.15446   0.90409   0.00000  Uiso   1.00
H715   H     0.09186   0.25843   0.57295   0.00000  Uiso   1.00
H716   H     0.24273   0.03718   0.53573   0.00000  Uiso   1.00
H717   H     0.32904   0.12966   0.81110   0.00000  Uiso   1.00
H718   H     0.21689   0.31523   0.68297   0.00000  Uiso   1.00
H719   H     0.09917   0.01479   0.82128   0.00000  Uiso   1.00
H720   H     0.19309   0.22584   0.57881   0.00000  Uiso   1.00
H721   H     0.21520   0.07604   0.62867   0.00000  Uiso   1.00
O722   O     0.16667   0.16667   0.75000   0.00000  Uiso   1.00
O723   O     0.15693   0.12393   0.66625   0.00000  Uiso   1.00
O724   O     0.12687   0.20646   0.83749   0.00000  Uiso   1.00
O725   O     0.21088   0.17493   0.65877   0.00000  Uiso   1.00
O726   O     0.17198   0.16135   0.83749   0.00000  Uiso   1.00
O727   O     0.08597   0.25036   0.54695   0.00000  Uiso   1.00
O728   O     0.23788   0.05543   0.51780   0.00000  Uiso   1.00
O729   O     0.31208   0.13977   0.79589   0.00000  Uiso   1.00
O730   O     0.20239   0.00439   0.70171   0.00000  Uiso   1.00
O731   O     0.14823   0.32021   0.82479   0.00000  Uiso   1.00
O732   O     0.18542   0.20587   0.59900   0.00000  Uiso   1.00
O733   O     0.17849   0.08101   0.77820   0.00000  Uiso   1.00
O734   O     0.21925   0.06670   0.60027   0.00000  Uiso   1.00
O735   O     0.26099   0.07694   0.92041   0.00000  Uiso   1.00
O736   O     0.07244   0.26543   0.98543   0.00000  Uiso   1.00
O737   O     0.09031   0.29125   0.90641   0.00000  Uiso   1.00
O738   O     0.11278   0.18949   0.58185   0.00000  Uiso   1.00
O739   O     0.24876   0.20270   0.91211   0.00000  Uiso   1.00
O740   O     0.14581   0.26136   0.76767   0.00000  Uiso   1.00
O741   O     0.07452   0.13251   0.73607   0.00000  Uiso   1.00
O742   O     0.26785   0.19179   0.71805   0.00000  Uiso   1.00
O743   O     0.06990   0.18960   0.77820   0.00000  Uiso   1.00
O744   O     0.25440   0.15277   0.76767   0.00000  Uiso   1.00
O745   O     0.13800   0.06903   0.73607   0.00000  Uiso   1.00
O746   O     0.20437   0.25527   0.71805   0.00000  Uiso   1.00
Zn747  Zn    0.19244   0.14090   0.78277   0.00000  Uiso   1.00
Zn748  Zn    0.13459   0.12378   0.72257   0.00000  Uiso   1.00
Zn749  Zn    0.21166   0.19664   0.71188   0.00000  Uiso   1.00
Zn750  Zn    0.12798   0.20535   0.78277   0.00000  Uiso   1.00
C751   C     0.38612   0.16046   0.75856   0.00000  Uiso   1.00
C752   C     0.55133   0.15299   0.95767   0.00000  Uiso   1.00
C753   C     0.56406   0.12288   0.97592   0.00000  Uiso   1.00
C754   C     0.61430   0.17344   0.74140   0.00000  Uiso   1.00
C755   C     0.54870   0.12298   0.51779   0.00000  Uiso   1.00
C756   C     0.52542   0.15611   0.53972   0.00000  Uiso   1.00
C757   C     0.55641   0.09206   0.53868   0.00000  Uiso   1.00
C758   C     0.54618   0.09798   0.58063   0.00000  Uiso   1.00
C759   C     0.52481   0.16637   0.57984   0.00000  Uiso   1.00
C760   C     0.66004   0.17502   0.73806   0.00000  Uiso   1.00
C761   C     0.34043   0.15794   0.76387   0.00000  Uiso   1.00
C762   C     0.44216   0.22981   0.92176   0.00000  Uiso   1.00
C763   C     0.51076   0.32164   0.73638   0.00000  Uiso   1.00
C764   C     0.48603   0.01349   0.76500   0.00000  Uiso   1.00
C765   C     0.48931   0.05652   0.75943   0.00000  Uiso   1.00
C766   C     0.50978   0.27766   0.74128   0.00000  Uiso   1.00
C767   C     0.52197   0.14507   0.64396   0.00000  Uiso   1.00
C768   C     0.47849   0.18806   0.85656   0.00000  Uiso   1.00
C769   C     0.46963   0.19906   0.90019   0.00000  Uiso   1.00
C770   C     0.53169   0.13619   0.60082   0.00000  Uiso   1.00
C771   C     0.43520   0.23835   0.96327   0.00000  Uiso   1.00
C772   C     0.46378   0.00384   0.80629   0.00000  Uiso   1.00
C773   C     0.49115   0.17957   0.92022   0.00000  Uiso   1.00
C774   C     0.59718   0.09541   0.95198   0.00000  Uiso   1.00
C775   C     0.42014   0.25335   0.90198   0.00000  Uiso   1.00
C776   C     0.58072   0.16716   0.91975   0.00000  Uiso   1.00
C777   C     0.48891   0.19140   0.96032   0.00000  Uiso   1.00
C778   C     0.45798   0.21856   0.98275   0.00000  Uiso   1.00
C779   C     0.51467   0.17419   0.97915   0.00000  Uiso   1.00
C780   C     0.50281   0.17717   0.52104   0.00000  Uiso   1.00
C781   C     0.46620   0.19762   0.54308   0.00000  Uiso   1.00
C782   C     0.44826   0.22307   0.52449   0.00000  Uiso   1.00
H783   H     0.34981   0.19023   0.71392   0.00000  Uiso   1.00
H784   H     0.62383   0.09082   0.96284   0.00000  Uiso   1.00
H785   H     0.38199   0.26436   0.97322   0.00000  Uiso   1.00
H786   H     0.40018   0.23715   0.88390   0.00000  Uiso   1.00
H787   H     0.41539   0.19470   0.58902   0.00000  Uiso   1.00
H788   H     0.60265   0.14699   0.89899   0.00000  Uiso   1.00
H789   H     0.50966   0.15446   0.90409   0.00000  Uiso   1.00
H790   H     0.42520   0.25843   0.57295   0.00000  Uiso   1.00
H791   H     0.57606   0.03718   0.53573   0.00000  Uiso   1.00
H792   H     0.66237   0.12966   0.81110   0.00000  Uiso   1.00
H793   H     0.55023   0.31523   0.68297   0.00000  Uiso   1.00
H794   H     0.43250   0.01479   0.82128   0.00000  Uiso   1.00
H795   H     0.52642   0.22584   0.57881   0.00000  Uiso   1.00
H796   H     0.54853   0.07604   0.62867   0.00000  Uiso   1.00
O797   O     0.50000   0.16667   0.75000   0.00000  Uiso   1.00
O798   O     0.49027   0.12393   0.66625   0.00000  Uiso   1.00
O799   O     0.46020   0.20646   0.83749   0.00000  Uiso   1.00
O800   O     0.54421   0.17493   0.65877   0.00000  Uiso   1.00
O801   O     0.50532   0.16135   0.83749   0.00000  Uiso   1.00
O802   O     0.41930   0.25036   0.54695   0.00000  Uiso   1.00
O803   O     0.57121   0.05543   0.51780   0.00000  Uiso   1.00
O804   O     0.64541   0.13977   0.79589   0.00000  Uiso   1.00
O805   O     0.53573   0.00439   0.70171   0.00000  Uiso   1.00
O806   O     0.48156   0.32021   0.82479   0.00000  Uiso   1.00
O807   O     0.51875   0.20587   0.59900   0.00000  Uiso   1.00
O808   O     0.51182   0.08101   0.77820   0.00000  Uiso   1.00
O809   O     0.55258   0.06670   0.60027   0.00000  Uiso   1.00
O810   O     0.59432   0.07694   0.92041   0.00000  Uiso   1.00
O811   O     0.40577   0.26543   0.98543   0.00000  Uiso   1.00
O812   O     0.42364   0.29125   0.90641   0.00000  Uiso   1.00
O813   O     0.44611   0.18949   0.58185   0.00000  Uiso   1.00
O814   O     0.58209   0.20270   0.91211   0.00000  Uiso   1.00
O815   O     0.47914   0.26136   0.76767   0.00000  Uiso   1.00
O816   O     0.40785   0.13251   0.73607   0.00000  Uiso   1.00
O817   O     0.60119   0.19179   0.71805   0.00000  Uiso   1.00
O818   O     0.40323   0.18960   0.77820   0.00000  Uiso   1.00
O819   O     0.58773   0.15277   0.76767   0.00000  Uiso   1.00
O820   O     0.47133   0.06903   0.73607   0.00000  Uiso   1.00
O821   O     0.53771   0.25527   0.71805   0.00000  Uiso   1.00
Zn822  Zn    0.52577   0.14090   0.78277   0.00000  Uiso   1.00
Zn823  Zn    0.46792   0.12378   0.72257   0.00000  Uiso   1.00
Zn824  Zn    0.54500   0.19664   0.71188   0.00000  Uiso   1.00
Zn825  Zn    0.46131   0.20535   0.78277   0.00000  Uiso   1.00
C826   C     0.71946   0.16046   0.75856   0.00000  Uiso   1.00
C827   C     0.88467   0.15299   0.95767   0.00000  Uiso   1.00
C828   C     0.89739   0.12288   0.97592   0.00000  Uiso   1.00
C829   C     0.94764   0.17344   0.74140   0.00000  Uiso   1.00
C830   C     0.88203   0.12298   0.51779   0.00000  Uiso   1.00
C831   C     0.85876   0.15611   0.53972   0.00000  Uiso   1.00
C832   C     0.88975   0.09206   0.53868   0.00000  Uiso   1.00
C833   C     0.87951   0.09798   0.58063   0.00000  Uiso   1.00
C834   C     0.85814   0.16637   0.57984   0.00000  Uiso   1.00
C835   C     0.99337   0.17502   0.73806   0.00000  Uiso   1.00
C836   C     0.67376   0.15794   0.76387   0.00000  Uiso   1.00
C837   C     0.77550   0.22981   0.92176   0.00000  Uiso   1.00
C838   C     0.84409   0.32164   0.73638   0.00000  Uiso   1.00
C839   C     0.81936   0.01349   0.76500   0.00000  Uiso   1.00
C840   C     0.82264   0.05652   0.75943   0.00000  Uiso   1.00
C841   C     0.84311   0.27766   0.74128   0.00000  Uiso   1.00
C842   C     0.85530   0.14507   0.64396   0.00000  Uiso   1.00
C843   C     0.81182   0.18806   0.85656   0.00000  Uiso   1.00
C844   C     0.80297   0.19906   0.90019   0.00000  Uiso   1.00
C845   C     0.86502   0.13619   0.60082   0.00000  Uiso   1.00
C846   C     0.76854   0.23835   0.96327   0.00000  Uiso   1.00
C847   C     0.79711   0.00384   0.80629   0.00000  Uiso   1.00
C848   C     0.82448   0.17957   0.92022   0.00000  Uiso   1.00
C849   C     0.93051   0.09541   0.95198   0.00000  Uiso   1.00
C850   C     0.75347   0.25335   0.90198   0.00000  Uiso   1.00
C851   C     0.91405   0.16716   0.91975   0.00000  Uiso   1.00
C852   C     0.82225   0.19140   0.96032   0.00000  Uiso   1.00
C853   C     0.79131   0.21856   0.98275   0.00000  Uiso   1.00
C854   C     0.84801   0.17419   0.97915   0.00000  Uiso   1.00
C855   C     0.83614   0.17717   0.52104   0.00000  Uiso   1.00
C856   C     0.79953   0.19762   0.54308   0.00000  Uiso   1.00
C857   C     0.78160   0.22307   0.52449   0.00000  Uiso   1.00
H858   H     0.68314   0.19023   0.71392   0.00000  Uiso   1.00
H859   H     0.95716   0.09082   0.96284   0.00000  Uiso   1.00
H860   H     0.71532   0.26436   0.97322   0.00000  Uiso   1.00
H861   H     0.73351   0.23715   0.88390   0.00000  Uiso   1.00
H862   H     0.74872   0.19470   0.58902   0.00000  Uiso   1.00
H863   H     0.93598   0.14699   0.89899   0.00000  Uiso   1.00
H864   H     0.84299   0.15446   0.90409   0.00000  Uiso   1.00
H865   H     0.75853   0.25843   0.57295   0.00000  Uiso   1.00
H866   H     0.90940   0.03718   0.53573   0.00000  Uiso   1.00
H867   H     0.99571   0.12966   0.81110   0.00000  Uiso   1.00
H868   H     0.88356   0.31523   0.68297   0.00000  Uiso   1.00
H869   H     0.76584   0.01479   0.82128   0.00000  Uiso   1.00
H870   H     0.85976   0.22584   0.57881   0.00000  Uiso   1.00
H871   H     0.88187   0.07604   0.62867   0.00000  Uiso   1.00
O872   O     0.83333   0.16667   0.75000   0.00000  Uiso   1.00
O873   O     0.82360   0.12393   0.66625   0.00000  Uiso   1.00
O874   O     0.79354   0.20646   0.83749   0.00000  Uiso   1.00
O875   O     0.87755   0.17493   0.65877   0.00000  Uiso   1.00
O876   O     0.83865   0.16135   0.83749   0.00000  Uiso   1.00
O877   O     0.75264   0.25036   0.54695   0.00000  Uiso   1.00
O878   O     0.90455   0.05543   0.51780   0.00000  Uiso   1.00
O879   O     0.97874   0.13977   0.79589   0.00000  Uiso   1.00
O880   O     0.86906   0.00439   0.70171   0.00000  Uiso   1.00
O881   O     0.81489   0.32021   0.82479   0.00000  Uiso   1.00
O882   O     0.85209   0.20587   0.59900   0.00000  Uiso   1.00
O883   O     0.84515   0.08101   0.77820   0.00000  Uiso   1.00
O884   O     0.88592   0.06670   0.60027   0.00000  Uiso   1.00
O885   O     0.92765   0.07694   0.92041   0.00000  Uiso   1.00
O886   O     0.73911   0.26543   0.98543   0.00000  Uiso   1.00
O887   O     0.75697   0.29125   0.90641   0.00000  Uiso   1.00
O888   O     0.77945   0.18949   0.58185   0.00000  Uiso   1.00
O889   O     0.91542   0.20270   0.91211   0.00000  Uiso   1.00
O890   O     0.81247   0.26136   0.76767   0.00000  Uiso   1.00
O891   O     0.74119   0.13251   0.73607   0.00000  Uiso   1.00
O892   O     0.93452   0.19179   0.71805   0.00000  Uiso   1.00
O893   O     0.73656   0.18960   0.77820   0.00000  Uiso   1.00
O894   O     0.92106   0.15277   0.76767   0.00000  Uiso   1.00
O895   O     0.80467   0.06903   0.73607   0.00000  Uiso   1.00
O896   O     0.87104   0.25527   0.71805   0.00000  Uiso   1.00
Zn897  Zn    0.85910   0.14090   0.78277   0.00000  Uiso   1.00
Zn898  Zn    0.80125   0.12378   0.72257   0.00000  Uiso   1.00
Zn899  Zn    0.87833   0.19664   0.71188   0.00000  Uiso   1.00
Zn900  Zn    0.79465   0.20535   0.78277   0.00000  Uiso   1.00
C901   C     0.05279   0.49379   0.75856   0.00000  Uiso   1.00
C902   C     0.21800   0.48632   0.95767   0.00000  Uiso   1.00
C903   C     0.23072   0.45621   0.97592   0.00000  Uiso   1.00
C904   C     0.28097   0.50678   0.74140   0.00000  Uiso   1.00
C905   C     0.21537   0.45631   0.51779   0.00000  Uiso   1.00
C906   C     0.19209   0.48945   0.53972   0.00000  Uiso   1.00
C907   C     0.22308   0.42539   0.53868   0.00000  Uiso   1.00
C908   C     0.21285   0.43131   0.58063   0.00000  Uiso   1.00
C909   C     0.19148   0.49971   0.57984   0.00000  Uiso   1.00
C910   C     0.32671   0.50836   0.73806   0.00000  Uiso   1.00
C911   C     0.00709   0.49127   0.76387   0.00000  Uiso   1.00
C912   C     0.10883   0.56315   0.92176   0.00000  Uiso   1.00
C913   C     0.17743   0.65498   0.73638   0.00000  Uiso   1.00
C914   C     0.15270   0.34682   0.76500   0.00000  Uiso   1.00
C915   C     0.15598   0.38985   0.75943   0.00000  Uiso   1.00
C916   C     0.17644   0.61100   0.74128   0.00000  Uiso   1.00
C917   C     0.18864   0.47841   0.64396   0.00000  Uiso   1.00
C918   C     0.14516   0.52140   0.85656   0.00000  Uiso   1.00
C919   C     0.13630   0.53239   0.90019   0.00000  Uiso   1.00
C920   C     0.19835   0.46952   0.60082   0.00000  Uiso   1.00
C921   C     0.10187   0.57168   0.96327   0.00000  Uiso   1.00
C922   C     0.13044   0.33717   0.80629   0.00000  Uiso   1.00
C923   C     0.15781   0.51291   0.92022   0.00000  Uiso   1.00
C924   C     0.26385   0.42874   0.95198   0.00000  Uiso   1.00
C925   C     0.08680   0.58668   0.90198   0.00000  Uiso   1.00
C926   C     0.24739   0.50050   0.91975   0.00000  Uiso   1.00
C927   C     0.15558   0.52473   0.96032   0.00000  Uiso   1.00
C928   C     0.12464   0.55189   0.98275   0.00000  Uiso   1.00
C929   C     0.18134   0.50752   0.97915   0.00000  Uiso   1.00
C930   C     0.16948   0.51050   0.52104   0.00000  Uiso   1.00
C931   C     0.13286   0.53095   0.54308   0.00000  Uiso   1.00
C932   C     0.11493   0.55641   0.52449   0.00000  Uiso   1.00
H933   H     0.01648   0.52356   0.71392   0.00000  Uiso   1.00
H934   H     0.29049   0.42416   0.96284   0.00000  Uiso   1.00
H935   H     0.04866   0.59769   0.97322   0.00000  Uiso   1.00
H936   H     0.06685   0.57048   0.88390   0.00000  Uiso   1.00
H937   H     0.08206   0.52803   0.58902   0.00000  Uiso   1.00
H938   H     0.26931   0.48033   0.89899   0.00000  Uiso   1.00
H939   H     0.17632   0.48779   0.90409   0.00000  Uiso   1.00
H940   H     0.09186   0.59176   0.57295   0.00000  Uiso   1.00
H941   H     0.24273   0.37052   0.53573   0.00000  Uiso   1.00
H942   H     0.32904   0.46299   0.81110   0.00000  Uiso   1.00
H943   H     0.21689   0.64856   0.68297   0.00000  Uiso   1.00
H944   H     0.09917   0.34813   0.82128   0.00000  Uiso   1.00
H945   H     0.19309   0.55917   0.57881   0.00000  Uiso   1.00
H946   H     0.21520   0.40937   0.62867   0.00000  Uiso   1.00
O947   O     0.16667   0.50000   0.75000   0.00000  Uiso   1.00
O948   O     0.15693   0.45726   0.66625   0.00000  Uiso   1.00
O949   O     0.12687   0.53979   0.83749   0.00000  Uiso   1.00
O950   O     0.21088   0.50826   0.65877   0.00000  Uiso   1.00
O951   O     0.17198   0.49468   0.83749   0.00000  Uiso   1.00
O952   O     0.08597   0.58369   0.54695   0.00000  Uiso   1.00
O953   O     0.23788   0.38876   0.51780   0.00000  Uiso   1.00
O954   O     0.31208   0.47310   0.79589   0.00000  Uiso   1.00
O955   O     0.20239   0.33773   0.70171   0.00000  Uiso   1.00
O956   O     0.14823   0.65354   0.82479   0.00000  Uiso   1.00
O957   O     0.18542   0.53921   0.59900   0.00000  Uiso   1.00
O958   O     0.17849   0.41434   0.77820   0.00000  Uiso   1.00
O959   O     0.21925   0.40003   0.60027   0.00000  Uiso   1.00
O960   O     0.26099   0.41027   0.92041   0.00000  Uiso   1.00
O961   O     0.07244   0.59877   0.98543   0.00000  Uiso   1.00
O962   O     0.09031   0.62458   0.90641   0.00000  Uiso   1.00
O963   O     0.11278   0.52282   0.58185   0.00000  Uiso   1.00
O964   O     0.24876   0.53603   0.91211   0.00000  Uiso   1.00
O965   O     0.14581   0.59469   0.76767   0.00000  Uiso   1.00
O966   O     0.07452   0.46584   0.73607   0.00000  Uiso   1.00
O967   O     0.26785   0.52512   0.71805   0.00000  Uiso   1.00
O968   O     0.06990   0.52293   0.77820   0.00000  Uiso   1.00
O969   O     0.25440   0.48610   0.76767   0.00000  Uiso   1.00
O970   O     0.13800   0.40236   0.73607   0.00000  Uiso   1.00
O971   O     0.20437   0.58860   0.71805   0.00000  Uiso   1.00
Zn972  Zn    0.19244   0.47423   0.78277   0.00000  Uiso   1.00
Zn973  Zn    0.13459   0.45711   0.72257   0.00000  Uiso   1.00
Zn974  Zn    0.21166   0.52997   0.71188   0.00000  Uiso   1.00
Zn975  Zn    0.12798   0.53868   0.78277   0.00000  Uiso   1.00
C976   C     0.38612   0.49379   0.75856   0.00000  Uiso   1.00
C977   C     0.55133   0.48632   0.95767   0.00000  Uiso   1.00
C978   C     0.56406   0.45621   0.97592   0.00000  Uiso   1.00
C979   C     0.61430   0.50678   0.74140   0.00000  Uiso   1.00
C980   C     0.54870   0.45631   0.51779   0.00000  Uiso   1.00
C981   C     0.52542   0.48945   0.53972   0.00000  Uiso   1.00
C982   C     0.55641   0.42539   0.53868   0.00000  Uiso   1.00
C983   C     0.54618   0.43131   0.58063   0.00000  Uiso   1.00
C984   C     0.52481   0.49971   0.57984   0.00000  Uiso   1.00
C985   C     0.66004   0.50836   0.73806   0.00000  Uiso   1.00
C986   C     0.34043   0.49127   0.76387   0.00000  Uiso   1.00
C987   C     0.44216   0.56315   0.92176   0.00000  Uiso   1.00
C988   C     0.51076   0.65498   0.73638   0.00000  Uiso   1.00
C989   C     0.48603   0.34682   0.76500   0.00000  Uiso   1.00
C990   C     0.48931   0.38985   0.75943   0.00000  Uiso   1.00
C991   C     0.50978   0.61100   0.74128   0.00000  Uiso   1.00
C992   C     0.52197   0.47841   0.64396   0.00000  Uiso   1.00
C993   C     0.47849   0.52140   0.85656   0.00000  Uiso   1.00
C994   C     0.46963   0.53239   0.90019   0.00000  Uiso   1.00
C995   C     0.53169   0.46952   0.60082   0.00000  Uiso   1.00
C996   C     0.43520   0.57168   0.96327   0.00000  Uiso   1.00
C997   C     0.46378   0.33717   0.80629   0.00000  Uiso   1.00
C998   C     0.49115   0.51291   0.92022   0.00000  Uiso   1.00
C999   C     0.59718   0.42874   0.95198   0.00000  Uiso   1.00
C1000  C     0.42014   0.58668   0.90198   0.00000  Uiso   1.00
C1001  C     0.58072   0.50050   0.91975   0.00000  Uiso   1.00
C1002  C     0.48891   0.52473   0.96032   0.00000  Uiso   1.00
C1003  C     0.45798   0.55189   0.98275   0.00000  Uiso   1.00
C1004  C     0.51467   0.50752   0.97915   0.00000  Uiso   1.00
C1005  C     0.50281   0.51050   0.52104   0.00000  Uiso   1.00
C1006  C     0.46620   0.53095   0.54308   0.00000  Uiso   1.00
C1007  C     0.44826   0.55641   0.52449   0.00000  Uiso   1.00
H1008  H     0.34981   0.52356   0.71392   0.00000  Uiso   1.00
H1009  H     0.62383   0.42416   0.96284   0.00000  Uiso   1.00
H1010  H     0.38199   0.59769   0.97322   0.00000  Uiso   1.00
H1011  H     0.40018   0.57048   0.88390   0.00000  Uiso   1.00
H1012  H     0.41539   0.52803   0.58902   0.00000  Uiso   1.00
H1013  H     0.60265   0.48033   0.89899   0.00000  Uiso   1.00
H1014  H     0.50966   0.48779   0.90409   0.00000  Uiso   1.00
H1015  H     0.42520   0.59176   0.57295   0.00000  Uiso   1.00
H1016  H     0.57606   0.37052   0.53573   0.00000  Uiso   1.00
H1017  H     0.66237   0.46299   0.81110   0.00000  Uiso   1.00
H1018  H     0.55023   0.64856   0.68297   0.00000  Uiso   1.00
H1019  H     0.43250   0.34813   0.82128   0.00000  Uiso   1.00
H1020  H     0.52642   0.55917   0.57881   0.00000  Uiso   1.00
H1021  H     0.54853   0.40937   0.62867   0.00000  Uiso   1.00
O1022  O     0.50000   0.50000   0.75000   0.00000  Uiso   1.00
O1023  O     0.49027   0.45726   0.66625   0.00000  Uiso   1.00
O1024  O     0.46020   0.53979   0.83749   0.00000  Uiso   1.00
O1025  O     0.54421   0.50826   0.65877   0.00000  Uiso   1.00
O1026  O     0.50532   0.49468   0.83749   0.00000  Uiso   1.00
O1027  O     0.41930   0.58369   0.54695   0.00000  Uiso   1.00
O1028  O     0.57121   0.38876   0.51780   0.00000  Uiso   1.00
O1029  O     0.64541   0.47310   0.79589   0.00000  Uiso   1.00
O1030  O     0.53573   0.33773   0.70171   0.00000  Uiso   1.00
O1031  O     0.48156   0.65354   0.82479   0.00000  Uiso   1.00
O1032  O     0.51875   0.53921   0.59900   0.00000  Uiso   1.00
O1033  O     0.51182   0.41434   0.77820   0.00000  Uiso   1.00
O1034  O     0.55258   0.40003   0.60027   0.00000  Uiso   1.00
O1035  O     0.59432   0.41027   0.92041   0.00000  Uiso   1.00
O1036  O     0.40577   0.59877   0.98543   0.00000  Uiso   1.00
O1037  O     0.42364   0.62458   0.90641   0.00000  Uiso   1.00
O1038  O     0.44611   0.52282   0.58185   0.00000  Uiso   1.00
O1039  O     0.58209   0.53603   0.91211   0.00000  Uiso   1.00
O1040  O     0.47914   0.59469   0.76767   0.00000  Uiso   1.00
O1041  O     0.40785   0.46584   0.73607   0.00000  Uiso   1.00
O1042  O     0.60119   0.52512   0.71805   0.00000  Uiso   1.00
O1043  O     0.40323   0.52293   0.77820   0.00000  Uiso   1.00
O1044  O     0.58773   0.48610   0.76767   0.00000  Uiso   1.00
O1045  O     0.47133   0.40236   0.73607   0.00000  Uiso   1.00
O1046  O     0.53771   0.58860   0.71805   0.00000  Uiso   1.00
Zn1047 Zn    0.52577   0.47423   0.78277   0.00000  Uiso   1.00
Zn1048 Zn    0.46792   0.45711   0.72257   0.00000  Uiso   1.00
Zn1049 Zn    0.54500   0.52997   0.71188   0.00000  Uiso   1.00
Zn1050 Zn    0.46131   0.53868   0.78277   0.00000  Uiso   1.00
C1051  C     0.71946   0.49379   0.75856   0.00000  Uiso   1.00
C1052  C     0.88467   0.48632   0.95767   0.00000  Uiso   1.00
C1053  C     0.89739   0.45621   0.97592   0.00000  Uiso   1.00
C1054  C     0.94764   0.50678   0.74140   0.00000  Uiso   1.00
C1055  C     0.88203   0.45631   0.51779   0.00000  Uiso   1.00
C1056  C     0.85876   0.48945   0.53972   0.00000  Uiso   1.00
C1057  C     0.88975   0.42539   0.53868   0.00000  Uiso   1.00
C1058  C     0.87951   0.43131   0.58063   0.00000  Uiso   1.00
C1059  C     0.85814   0.49971   0.57984   0.00000  Uiso   1.00
C1060  C     0.99337   0.50836   0.73806   0.00000  Uiso   1.00
C1061  C     0.67376   0.49127   0.76387   0.00000  Uiso   1.00
C1062  C     0.77550   0.56315   0.92176   0.00000  Uiso   1.00
C1063  C     0.84409   0.65498   0.73638   0.00000  Uiso   1.00
C1064  C     0.81936   0.34682   0.76500   0.00000  Uiso   1.00
C1065  C     0.82264   0.38985   0.75943   0.00000  Uiso   1.00
C1066  C     0.84311   0.61100   0.74128   0.00000  Uiso   1.00
C1067  C     0.85530   0.47841   0.64396   0.00000  Uiso   1.00
C1068  C     0.81182   0.52140   0.85656   0.00000  Uiso   1.00
C1069  C     0.80297   0.53239   0.90019   0.00000  Uiso   1.00
C1070  C     0.86502   0.46952   0.60082   0.00000  Uiso   1.00
C1071  C     0.76854   0.57168   0.96327   0.00000  Uiso   1.00
C1072  C     0.79711   0.33717   0.80629   0.00000  Uiso   1.00
C1073  C     0.82448   0.51291   0.92022   0.00000  Uiso   1.00
C1074  C     0.93051   0.42874   0.95198   0.00000  Uiso   1.00
C1075  C     0.75347   0.58668   0.90198   0.00000  Uiso   1.00
C1076  C     0.91405   0.50050   0.91975   0.00000  Uiso   1.00
C1077  C     0.82225   0.52473   0.96032   0.00000  Uiso   1.00
C1078  C     0.79131   0.55189   0.98275   0.00000  Uiso   1.00
C1079  C     0.84801   0.50752   0.97915   0.00000  Uiso   1.00
C1080  C     0.83614   0.51050   0.52104   0.00000  Uiso   1.00
C1081  C     0.79953   0.53095   0.54308   0.00000  Uiso   1.00
C1082  C     0.78160   0.55641   0.52449   0.00000  Uiso   1.00
H1083  H     0.68314   0.52356   0.71392   0.00000  Uiso   1.00
H1084  H     0.95716   0.42416   0.96284   0.00000  Uiso   1.00
H1085  H     0.71532   0.59769   0.97322   0.00000  Uiso   1.00
H1086  H     0.73351   0.57048   0.88390   0.00000  Uiso   1.00
H1087  H     0.74872   0.52803   0.58902   0.00000  Uiso   1.00
H1088  H     0.93598   0.48033   0.89899   0.00000  Uiso   1.00
H1089  H     0.84299   0.48779   0.90409   0.00000  Uiso   1.00
H1090  H     0.75853   0.59176   0.57295   0.00000  Uiso   1.00
H1091  H     0.90940   0.37052   0.53573   0.00000  Uiso   1.00
H1092  H     0.99571   0.46299   0.81110   0.00000  Uiso   1.00
H1093  H     0.88356   0.64856   0.68297   0.00000  Uiso   1.00
H1094  H     0.76584   0.34813   0.82128   0.00000  Uiso   1.00
H1095  H     0.85976   0.55917   0.57881   0.00000  Uiso   1.00
H1096  H     0.88187   0.40937   0.62867   0.00000  Uiso   1.00
O1097  O     0.83333   0.50000   0.75000   0.00000  Uiso   1.00
O1098  O     0.82360   0.45726   0.66625   0.00000  Uiso   1.00
O1099  O     0.79354   0.53979   0.83749   0.00000  Uiso   1.00
O1100  O     0.87755   0.50826   0.65877   0.00000  Uiso   1.00
O1101  O     0.83865   0.49468   0.83749   0.00000  Uiso   1.00
O1102  O     0.75264   0.58369   0.54695   0.00000  Uiso   1.00
O1103  O     0.90455   0.38876   0.51780   0.00000  Uiso   1.00
O1104  O     0.97874   0.47310   0.79589   0.00000  Uiso   1.00
O1105  O     0.86906   0.33773   0.70171   0.00000  Uiso   1.00
O1106  O     0.81489   0.65354   0.82479   0.00000  Uiso   1.00
O1107  O     0.85209   0.53921   0.59900   0.00000  Uiso   1.00
O1108  O     0.84515   0.41434   0.77820   0.00000  Uiso   1.00
O1109  O     0.88592   0.40003   0.60027   0.00000  Uiso   1.00
O1110  O     0.92765   0.41027   0.92041   0.00000  Uiso   1.00
O1111  O     0.73911   0.59877   0.98543   0.00000  Uiso   1.00
O1112  O     0.75697   0.62458   0.90641   0.00000  Uiso   1.00
O1113  O     0.77945   0.52282   0.58185   0.00000  Uiso   1.00
O1114  O     0.91542   0.53603   0.91211   0.00000  Uiso   1.00
O1115  O     0.81247   0.59469   0.76767   0.00000  Uiso   1.00
O1116  O     0.74119   0.46584   0.73607   0.00000  Uiso   1.00
O1117  O     0.93452   0.52512   0.71805   0.00000  Uiso   1.00
O1118  O     0.73656   0.52293   0.77820   0.00000  Uiso   1.00
O1119  O     0.92106   0.48610   0.76767   0.00000  Uiso   1.00
O1120  O     0.80467   0.40236   0.73607   0.00000  Uiso   1.00
O1121  O     0.87104   0.58860   0.71805   0.00000  Uiso   1.00
Zn1122 Zn    0.85910   0.47423   0.78277   0.00000  Uiso   1.00
Zn1123 Zn    0.80125   0.45711   0.72257   0.00000  Uiso   1.00
Zn1124 Zn    0.87833   0.52997   0.71188   0.00000  Uiso   1.00
Zn1125 Zn    0.79465   0.53868   0.78277   0.00000  Uiso   1.00
C1126  C     0.05279   0.82713   0.75856   0.00000  Uiso   1.00
C1127  C     0.21800   0.81966   0.95767   0.00000  Uiso   1.00
C1128  C     0.23072   0.78955   0.97592   0.00000  Uiso   1.00
C1129  C     0.28097   0.84011   0.74140   0.00000  Uiso   1.00
C1130  C     0.21537   0.78965   0.51779   0.00000  Uiso   1.00
C1131  C     0.19209   0.82278   0.53972   0.00000  Uiso   1.00
C1132  C     0.22308   0.75873   0.53868   0.00000  Uiso   1.00
C1133  C     0.21285   0.76464   0.58063   0.00000  Uiso   1.00
C1134  C     0.19148   0.83304   0.57984   0.00000  Uiso   1.00
C1135  C     0.32671   0.84169   0.73806   0.00000  Uiso   1.00
C1136  C     0.00709   0.82461   0.76387   0.00000  Uiso   1.00
C1137  C     0.10883   0.89648   0.92176   0.00000  Uiso   1.00
C1138  C     0.17743   0.98831   0.73638   0.00000  Uiso   1.00
C1139  C     0.15270   0.68016   0.76500   0.00000  Uiso   1.00
C1140  C     0.15598   0.72318   0.75943   0.00000  Uiso   1.00
C1141  C     0.17644   0.94433   0.74128   0.00000  Uiso   1.00
C1142  C     0.18864   0.81174   0.64396   0.00000  Uiso   1.00
C1143  C     0.14516   0.85473   0.85656   0.00000  Uiso   1.00
C1144  C     0.13630   0.86573   0.90019   0.00000  Uiso   1.00
C1145  C     0.19835   0.80285   0.60082   0.00000  Uiso   1.00
C1146  C     0.10187   0.90501   0.96327   0.00000  Uiso   1.00
C1147  C     0.13044   0.67050   0.80629   0.00000  Uiso   1.00
C1148  C     0.15781   0.84624   0.92022   0.00000  Uiso   1.00
C1149  C     0.26385   0.76207   0.95198   0.00000  Uiso   1.00
C1150  C     0.08680   0.92001   0.90198   0.00000  Uiso   1.00
C1151  C     0.24739   0.83383   0.91975   0.00000  Uiso   1.00
C1152  C     0.15558   0.85806   0.96032   0.00000  Uiso   1.00
C1153  C     0.12464   0.88522   0.98275   0.00000  Uiso   1.00
C1154  C     0.18134   0.84086   0.97915   0.00000  Uiso   1.00
C1155  C     0.16948   0.84383   0.52104   0.00000  Uiso   1.00
C1156  C     0.13286   0.86429   0.54308   0.00000  Uiso   1.00
C1157  C     0.11493   0.88974   0.52449   0.00000  Uiso   1.00
H1158  H     0.01648   0.85689   0.71392   0.00000  Uiso   1.00
H1159  H     0.29049   0.75749   0.96284   0.00000  Uiso   1.00
H1160  H     0.04866   0.93103   0.97322   0.00000  Uiso   1.00
H1161  H     0.06685   0.90382   0.88390   0.00000  Uiso   1.00
H1162  H     0.08206   0.86137   0.58902   0.00000  Uiso   1.00
H1163  H     0.26931   0.81366   0.89899   0.00000  Uiso   1.00
H1164  H     0.17632   0.82113   0.90409   0.00000  Uiso   1.00
H1165  H     0.09186   0.92509   0.57295   0.00000  Uiso   1.00
H1166  H     0.24273   0.70385   0.53573   0.00000  Uiso   1.00
H1167  H     0.32904   0.79632   0.81110   0.00000  Uiso   1.00
H1168  H     0.21689   0.98190   0.68297   0.00000  Uiso   1.00
H1169  H     0.09917   0.68146   0.82128   0.00000  Uiso   1.00
H1170  H     0.19309   0.89251   0.57881   0.00000  Uiso   1.00
H1171  H     0.21520   0.74271   0.62867   0.00000  Uiso   1.00
O1172  O     0.16667   0.83333   0.75000   0.00000  Uiso   1.00
O1173  O     0.15693   0.79060   0.66625   0.00000  Uiso   1.00
O1174  O     0.12687   0.87313   0.83749   0.00000  Uiso   1.00
O1175  O     0.21088   0.84159   0.65877   0.00000  Uiso   1.00
O1176  O     0.17198   0.82802   0.83749   0.00000  Uiso   1.00
O1177  O     0.08597   0.91702   0.54695   0.00000  Uiso   1.00
O1178  O     0.23788   0.72210   0.51780   0.00000  Uiso   1.00
O1179  O     0.31208   0.80644   0.79589   0.00000  Uiso   1.00
O1180  O     0.20239   0.67106   0.70171   0.00000  Uiso   1.00
O1181  O     0.14823   0.98688   0.82479   0.00000  Uiso   1.00
O1182  O     0.18542   0.87254   0.59900   0.00000  Uiso   1.00
O1183  O     0.17849   0.74768   0.77820   0.00000  Uiso   1.00
O1184  O     0.21925   0.73336   0.60027   0.00000  Uiso   1.00
O1185  O     0.26099   0.74360   0.92041   0.00000  Uiso   1.00
O1186  O     0.07244   0.93210   0.98543   0.00000  Uiso   1.00
O1187  O     0.09031   0.95792   0.90641   0.00000  Uiso   1.00
O1188  O     0.11278   0.85616   0.58185   0.00000  Uiso   1.00
O1189  O     0.24876   0.86937   0.91211   0.00000  Uiso   1.00
O1190  O     0.14581   0.92803   0.76767   0.00000  Uiso   1.00
O1191  O     0.07452   0.79917   0.73607   0.00000  Uiso   1.00
O1192  O     0.26785   0.85845   0.71805   0.00000  Uiso   1.00
O1193  O     0.06990   0.85627   0.77820   0.00000  Uiso   1.00
O1194  O     0.25440   0.81944   0.76767   0.00000  Uiso   1.00
O1195  O     0.13800   0.73570   0.73607   0.00000  Uiso   1.00
O1196  O     0.20437   0.92193   0.71805   0.00000  Uiso   1.00
Zn1197 Zn    0.19244   0.80756   0.78277   0.00000  Uiso   1.00
Zn1198 Zn    0.13459   0.79044   0.72257   0.00000  Uiso   1.00
Zn1199 Zn    0.21166   0.86331   0.71188   0.00000  Uiso   1.00
Zn1200 Zn    0.12798   0.87202   0.78277   0.00000  Uiso   1.00
C1201  C     0.38612   0.82713   0.75856   0.00000  Uiso   1.00
C1202  C     0.55133   0.81966   0.95767   0.00000  Uiso   1.00
C1203  C     0.56406   0.78955   0.97592   0.00000  Uiso   1.00
C1204  C     0.61430   0.84011   0.74140   0.00000  Uiso   1.00
C1205  C     0.54870   0.78965   0.51779   0.00000  Uiso   1.00
C1206  C     0.52542   0.82278   0.53972   0.00000  Uiso   1.00
C1207  C     0.55641   0.75873   0.53868   0.00000  Uiso   1.00
C1208  C     0.54618   0.76464   0.58063   0.00000  Uiso   1.00
C1209  C     0.52481   0.83304   0.57984   0.00000  Uiso   1.00
C1210  C     0.66004   0.84169   0.73806   0.00000  Uiso   1.00
C1211  C     0.34043   0.82461   0.76387   0.00000  Uiso   1.00
C1212  C     0.44216   0.89648   0.92176   0.00000  Uiso   1.00
C1213  C     0.51076   0.98831   0.73638   0.00000  Uiso   1.00
C1214  C     0.48603   0.68016   0.76500   0.00000  Uiso   1.00
C1215  C     0.48931   0.72318   0.75943   0.00000  Uiso   1.00
C1216  C     0.50978   0.94433   0.74128   0.00000  Uiso   1.00
C1217  C     0.52197   0.81174   0.64396   0.00000  Uiso   1.00
C1218  C     0.47849   0.85473   0.85656   0.00000  Uiso   1.00
C1219  C     0.46963   0.86573   0.90019   0.00000  Uiso   1.00
C1220  C     0.53169   0.80285   0.60082   0.00000  Uiso   1.00
C1221  C     0.43520   0.90501   0.96327   0.00000  Uiso   1.00
C1222  C     0.46378   0.67050   0.80629   0.00000  Uiso   1.00
C1223  C     0.49115   0.84624   0.92022   0.00000  Uiso   1.00
C1224  C     0.59718   0.76207   0.95198   0.00000  Uiso   1.00
C1225  C     0.42014   0.92001   0.90198   0.00000  Uiso   1.00
C1226  C     0.58072   0.83383   0.91975   0.00000  Uiso   1.00
C1227  C     0.48891   0.85806   0.96032   0.00000  Uiso   1.00
C1228  C     0.45798   0.88522   0.98275   0.00000  Uiso   1.00
C1229  C     0.51467   0.84086   0.97915   0.00000  Uiso   1.00
C1230  C     0.50281   0.84383   0.52104   0.00000  Uiso   1.00
C1231  C     0.46620   0.86429   0.54308   0.00000  Uiso   1.00
C1232  C     0.44826   0.88974   0.52449   0.00000  Uiso   1.00
H1233  H     0.34981   0.85689   0.71392   0.00000  Uiso   1.00
H1234  H     0.62383   0.75749   0.96284   0.00000  Uiso   1.00
H1235  H     0.38199   0.93103   0.97322   0.00000  Uiso   1.00
H1236  H     0.40018   0.90382   0.88390   0.00000  Uiso   1.00
H1237  H     0.41539   0.86137   0.58902   0.00000  Uiso   1.00
H1238  H     0.60265   0.81366   0.89899   0.00000  Uiso   1.00
H1239  H     0.50966   0.82113   0.90409   0.00000  Uiso   1.00
H1240  H     0.42520   0.92509   0.57295   0.00000  Uiso   1.00
H1241  H     0.57606   0.70385   0.53573   0.00000  Uiso   1.00
H1242  H     0.66237   0.79632   0.81110   0.00000  Uiso   1.00
H1243  H     0.55023   0.98190   0.68297   0.00000  Uiso   1.00
H1244  H     0.43250   0.68146   0.82128   0.00000  Uiso   1.00
H1245  H     0.52642   0.89251   0.57881   0.00000  Uiso   1.00
H1246  H     0.54853   0.74271   0.62867   0.00000  Uiso   1.00
O1247  O     0.50000   0.83333   0.75000   0.00000  Uiso   1.00
O1248  O     0.49027   0.79060   0.66625   0.00000  Uiso   1.00
O1249  O     0.46020   0.87313   0.83749   0.00000  Uiso   1.00
O1250  O     0.54421   0.84159   0.65877   0.00000  Uiso   1.00
O1251  O     0.50532   0.82802   0.83749   0.00000  Uiso   1.00
O1252  O     0.41930   0.91702   0.54695   0.00000  Uiso   1.00
O1253  O     0.57121   0.72210   0.51780   0.00000  Uiso   1.00
O1254  O     0.64541   0.80644   0.79589   0.00000  Uiso   1.00
O1255  O     0.53573   0.67106   0.70171   0.00000  Uiso   1.00
O1256  O     0.48156   0.98688   0.82479   0.00000  Uiso   1.00
O1257  O     0.51875   0.87254   0.59900   0.00000  Uiso   1.00
O1258  O     0.51182   0.74768   0.77820   0.00000  Uiso   1.00
O1259  O     0.55258   0.73336   0.60027   0.00000  Uiso   1.00
O1260  O     0.59432   0.74360   0.92041   0.00000  Uiso   1.00
O1261  O     0.40577   0.93210   0.98543   0.00000  Uiso   1.00
O1262  O     0.42364   0.95792   0.90641   0.00000  Uiso   1.00
O1263  O     0.44611   0.85616   0.58185   0.00000  Uiso   1.00
O1264  O     0.58209   0.86937   0.91211   0.00000  Uiso   1.00
O1265  O     0.47914   0.92803   0.76767   0.00000  Uiso   1.00
O1266  O     0.40785   0.79917   0.73607   0.00000  Uiso   1.00
O1267  O     0.60119   0.85845   0.71805   0.00000  Uiso   1.00
O1268  O     0.40323   0.85627   0.77820   0.00000  Uiso   1.00
O1269  O     0.58773   0.81944   0.76767   0.00000  Uiso   1.00
O1270  O     0.47133   0.73570   0.73607   0.00000  Uiso   1.00
O1271  O     0.53771   0.92193   0.71805   0.00000  Uiso   1.00
Zn1272 Zn    0.52577   0.80756   0.78277   0.00000  Uiso   1.00
Zn1273 Zn    0.46792   0.79044   0.72257   0.00000  Uiso   1.00
Zn1274 Zn    0.54500   0.86331   0.71188   0.00000  Uiso   1.00
Zn1275 Zn    0.46131   0.87202   0.78277   0.00000  Uiso   1.00
C1276  C     0.71946   0.82713   0.75856   0.00000  Uiso   1.00
C1277  C     0.88467   0.81966   0.95767   0.00000  Uiso   1.00
C1278  C     0.89739   0.78955   0.97592   0.00000  Uiso   1.00
C1279  C     0.94764   0.84011   0.74140   0.00000  Uiso   1.00
C1280  C     0.88203   0.78965   0.51779   0.00000  Uiso   1.00
C1281  C     0.85876   0.82278   0.53972   0.00000  Uiso   1.00
C1282  C     0.88975   0.75873   0.53868   0.00000  Uiso   1.00
C1283  C     0.87951   0.76464   0.58063   0.00000  Uiso   1.00
C1284  C     0.85814   0.83304   0.57984   0.00000  Uiso   1.00
C1285  C     0.99337   0.84169   0.73806   0.00000  Uiso   1.00
C1286  C     0.67376   0.82461   0.76387   0.00000  Uiso   1.00
C1287  C     0.77550   0.89648   0.92176   0.00000  Uiso   1.00
C1288  C     0.84409   0.98831   0.73638   0.00000  Uiso   1.00
C1289  C     0.81936   0.68016   0.76500   0.00000  Uiso   1.00
C1290  C     0.82264   0.72318   0.75943   0.00000  Uiso   1.00
C1291  C     0.84311   0.94433   0.74128   0.00000  Uiso   1.00
C1292  C     0.85530   0.81174   0.64396   0.00000  Uiso   1.00
C1293  C     0.81182   0.85473   0.85656   0.00000  Uiso   1.00
C1294  C     0.80297   0.86573   0.90019   0.00000  Uiso   1.00
C1295  C     0.86502   0.80285   0.60082   0.00000  Uiso   1.00
C1296  C     0.76854   0.90501   0.96327   0.00000  Uiso   1.00
C1297  C     0.79711   0.67050   0.80629   0.00000  Uiso   1.00
C1298  C     0.82448   0.84624   0.92022   0.00000  Uiso   1.00
C1299  C     0.93051   0.76207   0.95198   0.00000  Uiso   1.00
C1300  C     0.75347   0.92001   0.90198   0.00000  Uiso   1.00
C1301  C     0.91405   0.83383   0.91975   0.00000  Uiso   1.00
C1302  C     0.82225   0.85806   0.96032   0.00000  Uiso   1.00
C1303  C     0.79131   0.88522   0.98275   0.00000  Uiso   1.00
C1304  C     0.84801   0.84086   0.97915   0.00000  Uiso   1.00
C1305  C     0.83614   0.84383   0.52104   0.00000  Uiso   1.00
C1306  C     0.79953   0.86429   0.54308   0.00000  Uiso   1.00
C1307  C     0.78160   0.88974   0.52449   0.00000  Uiso   1.00
H1308  H     0.68314   0.85689   0.71392   0.00000  Uiso   1.00
H1309  H     0.95716   0.75749   0.96284   0.00000  Uiso   1.00
H1310  H     0.71532   0.93103   0.97322   0.00000  Uiso   1.00
H1311  H     0.73351   0.90382   0.88390   0.00000  Uiso   1.00
H1312  H     0.74872   0.86137   0.58902   0.00000  Uiso   1.00
H1313  H     0.93598   0.81366   0.89899   0.00000  Uiso   1.00
H1314  H     0.84299   0.82113   0.90409   0.00000  Uiso   1.00
H1315  H     0.75853   0.92509   0.57295   0.00000  Uiso   1.00
H1316  H     0.90940   0.70385   0.53573   0.00000  Uiso   1.00
H1317  H     0.99571   0.79632   0.81110   0.00000  Uiso   1.00
H1318  H     0.88356   0.98190   0.68297   0.00000  Uiso   1.00
H1319  H     0.76584   0.68146   0.82128   0.00000  Uiso   1.00
H1320  H     0.85976   0.89251   0.57881   0.00000  Uiso   1.00
H1321  H     0.88187   0.74271   0.62867   0.00000  Uiso   1.00
O1322  O     0.83333   0.83333   0.75000   0.00000  Uiso   1.00
O1323  O     0.82360   0.79060   0.66625   0.00000  Uiso   1.00
O1324  O     0.79354   0.87313   0.83749   0.00000  Uiso   1.00
O1325  O     0.87755   0.84159   0.65877   0.00000  Uiso   1.00
O1326  O     0.83865   0.82802   0.83749   0.00000  Uiso   1.00
O1327  O     0.75264   0.91702   0.54695   0.00000  Uiso   1.00
O1328  O     0.90455   0.72210   0.51780   0.00000  Uiso   1.00
O1329  O     0.97874   0.80644   0.79589   0.00000  Uiso   1.00
O1330  O     0.86906   0.67106   0.70171   0.00000  Uiso   1.00
O1331  O     0.81489   0.98688   0.82479   0.00000  Uiso   1.00
O1332  O     0.85209   0.87254   0.59900   0.00000  Uiso   1.00
O1333  O     0.84515   0.74768   0.77820   0.00000  Uiso   1.00
O1334  O     0.88592   0.73336   0.60027   0.00000  Uiso   1.00
O1335  O     0.92765   0.74360   0.92041   0.00000  Uiso   1.00
O1336  O     0.73911   0.93210   0.98543   0.00000  Uiso   1.00
O1337  O     0.75697   0.95792   0.90641   0.00000  Uiso   1.00
O1338  O     0.77945   0.85616   0.58185   0.00000  Uiso   1.00
O1339  O     0.91542   0.86937   0.91211   0.00000  Uiso   1.00
O1340  O     0.81247   0.92803   0.76767   0.00000  Uiso   1.00
O1341  O     0.74119   0.79917   0.73607   0.00000  Uiso   1.00
O1342  O     0.93452   0.85845   0.71805   0.00000  Uiso   1.00
O1343  O     0.73656   0.85627   0.77820   0.00000  Uiso   1.00
O1344  O     0.92106   0.81944   0.76767   0.00000  Uiso   1.00
O1345  O     0.80467   0.73570   0.73607   0.00000  Uiso   1.00
O1346  O     0.87104   0.92193   0.71805   0.00000  Uiso   1.00
Zn1347 Zn    0.85910   0.80756   0.78277   0.00000  Uiso   1.00
Zn1348 Zn    0.80125   0.79044   0.72257   0.00000  Uiso   1.00
Zn1349 Zn    0.87833   0.86331   0.71188   0.00000  Uiso   1.00
Zn1350 Zn    0.79465   0.87202   0.78277   0.00000  Uiso   1.00
loop_
_geom_bond_atom_site_label_1
_geom_bond_atom_site_label_2
_geom_bond_distance
_geom_bond_site_symmetry_2
_ccdc_geom_bond_type
C1     C11     1.439   .     S
C1     O68     1.268   .     A
C1     O66     1.271   .     A
C2     C29     1.425   .     A
C2     C26     1.495   .     S
C2     C3      1.418   .     A
C3     C24     1.485   .     S
C3     C680    1.422   .     S
C4     O69     1.271   .     A
C4     O67     1.284   .     A
C4     C10     1.456   .     S
C5     C7      1.423   .     A
C5     C6      1.413   .     A
C5     C678    1.422   1_554 S
C6     C9      1.413   .     A
C6     C30     1.420   .     A
C7     C8      1.419   .     A
C7     O53     1.384   .     S
C8     C20     1.418   .     A
C8     O59     1.385   .     S
C9     C20     1.394   .     A
C9     O57     1.384   .     S
C10    C86     1.345   .     S
C10    H108    1.088   .     S
C11    C160    1.345   1_455 S
C11    O204    1.385   1_455 S
C12    C21     1.417   .     A
C12    C25     1.485   .     S
C12    C19     1.424   .     A
C13    C16     1.467   .     S
C13    C239    1.351   .     S
C13    O280    1.388   .     S
C14    C22     1.488   .     S
C14    C15     1.433   .     S
C14    C463    1.351   1_545 S
C15    O58     1.268   .     A
C15    O70     1.284   .     A
C16    O71     1.271   .     A
C16    O65     1.265   .     A
C17    O48     1.283   .     A
C17    C20     1.466   .     S
C17    O50     1.283   .     A
C18    C19     1.491   .     S
C18    O51     1.297   .     A
C18    O49     1.276   .     A
C19    C23     1.396   .     A
C21    O61     1.384   .     S
C21    C28     1.418   .     A
C22    H44     1.085   .     S
C22    O506    1.222   1_545 S
C23    C27     1.406   .     A
C23    H39     1.080   .     S
C24    H34     1.085   .     S
C24    O60     1.221   .     D
C25    O62     1.221   .     D
C25    H36     1.085   .     S
C26    O64     1.222   .     D
C26    H38     1.083   .     S
C27    C29     1.428   .     A
C27    C28     1.419   .     A
C28    C707    1.413   .     S
C29    C705    1.415   .     S
C30    C31     1.416   .     A
C30    C704    1.415   1_554 S
C31    O63     1.384   .     S
C31    C32     1.410   .     A
C32    O52     1.382   .     S
C32    C703    1.413   1_554 S
H33    C160    1.088   1_455 S
H35    O61     0.990   .     S
H37    O63     0.991   .     S
H40    O52     0.992   .     S
H41    O53     0.989   .     S
H42    O54     0.992   .     S
H43    O280    0.990   .     S
H45    O57     0.991   .     S
H46    O59     0.988   .     S
O47    Zn73    1.958   .     S
O47    Zn74    1.936   .     S
O47    Zn75    1.925   .     S
O47    Zn72    1.955   .     S
O48    Zn73    1.917   .     S
O49    Zn75    1.929   .     S
O50    Zn74    1.928   .     S
O51    Zn72    1.914   .     S
O54    C86     1.385   .     S
O55    H493    0.990   1_545 S
O55    C463    1.388   1_545 S
O56    C247    1.222   .     S
O58    Zn72    1.944   .     S
O65    Zn75    1.943   .     S
O66    Zn73    1.926   .     S
O67    Zn74    1.940   .     S
O68    Zn75    1.943   .     S
O69    Zn72    1.930   .     S
O70    Zn73    1.942   .     S
O71    Zn74    1.938   .     S
C76    C86     1.439   .     S
C76    O143    1.268   .     A
C76    O141    1.271   .     A
C77    C104    1.425   .     A
C77    C101    1.495   .     S
C77    C78     1.418   .     A
C78    C99     1.485   .     S
C78    C755    1.422   .     S
C79    O144    1.271   .     A
C79    O142    1.284   .     A
C79    C85     1.456   .     S
C80    C82     1.423   .     A
C80    C81     1.413   .     A
C80    C753    1.422   1_554 S
C81    C84     1.413   .     A
C81    C105    1.420   .     A
C82    C83     1.419   .     A
C82    O128    1.384   .     S
C83    C95     1.418   .     A
C83    O134    1.385   .     S
C84    C95     1.394   .     A
C84    O132    1.384   .     S
C85    C161    1.345   .     S
C85    H183    1.088   .     S
C87    C96     1.417   .     A
C87    C100    1.485   .     S
C87    C94     1.424   .     A
C88    C91     1.467   .     S
C88    C314    1.351   .     S
C88    O355    1.388   .     S
C89    C97     1.488   .     S
C89    C90     1.433   .     S
C89    C538    1.351   1_545 S
C90    O133    1.268   .     A
C90    O145    1.284   .     A
C91    O146    1.271   .     A
C91    O140    1.265   .     A
C92    O123    1.283   .     A
C92    C95     1.466   .     S
C92    O125    1.283   .     A
C93    C94     1.491   .     S
C93    O126    1.297   .     A
C93    O124    1.276   .     A
C94    C98     1.396   .     A
C96    O136    1.384   .     S
C96    C103    1.418   .     A
C97    H119    1.085   .     S
C97    O581    1.222   1_545 S
C98    C102    1.406   .     A
C98    H114    1.080   .     S
C99    H109    1.085   .     S
C99    O135    1.221   .     D
C100   O137    1.221   .     D
C100   H111    1.085   .     S
C101   O139    1.222   .     D
C101   H113    1.083   .     S
C102   C104    1.428   .     A
C102   C103    1.419   .     A
C103   C782    1.413   .     S
C104   C780    1.415   .     S
C105   C106    1.416   .     A
C105   C779    1.415   1_554 S
C106   O138    1.384   .     S
C106   C107    1.410   .     A
C107   O127    1.382   .     S
C107   C778    1.413   1_554 S
H110   O136    0.990   .     S
H112   O138    0.991   .     S
H115   O127    0.992   .     S
H116   O128    0.989   .     S
H117   O129    0.992   .     S
H118   O355    0.990   .     S
H120   O132    0.991   .     S
H121   O134    0.988   .     S
O122   Zn148   1.958   .     S
O122   Zn149   1.936   .     S
O122   Zn150   1.925   .     S
O122   Zn147   1.955   .     S
O123   Zn148   1.917   .     S
O124   Zn150   1.929   .     S
O125   Zn149   1.928   .     S
O126   Zn147   1.914   .     S
O129   C161    1.385   .     S
O130   H568    0.990   1_545 S
O130   C538    1.388   1_545 S
O131   C322    1.222   .     S
O133   Zn147   1.944   .     S
O140   Zn150   1.943   .     S
O141   Zn148   1.926   .     S
O142   Zn149   1.940   .     S
O143   Zn150   1.943   .     S
O144   Zn147   1.930   .     S
O145   Zn148   1.942   .     S
O146   Zn149   1.938   .     S
C151   C161    1.439   .     S
C151   O218    1.268   .     A
C151   O216    1.271   .     A
C152   C179    1.425   .     A
C152   C176    1.495   .     S
C152   C153    1.418   .     A
C153   C174    1.485   .     S
C153   C830    1.422   .     S
C154   O219    1.271   .     A
C154   O217    1.284   .     A
C154   C160    1.456   .     S
C155   C157    1.423   .     A
C155   C156    1.413   .     A
C155   C828    1.422   1_554 S
C156   C159    1.413   .     A
C156   C180    1.420   .     A
C157   C158    1.419   .     A
C157   O203    1.384   .     S
C158   C170    1.418   .     A
C158   O209    1.385   .     S
C159   C170    1.394   .     A
C159   O207    1.384   .     S
C160   C11     1.345   1_655 S
C160   H33     1.088   1_655 S
C162   C171    1.417   .     A
C162   C175    1.485   .     S
C162   C169    1.424   .     A
C163   C166    1.467   .     S
C163   C389    1.351   .     S
C163   O430    1.388   .     S
C164   C172    1.488   .     S
C164   C165    1.433   .     S
C164   C613    1.351   1_545 S
C165   O208    1.268   .     A
C165   O220    1.284   .     A
C166   O221    1.271   .     A
C166   O215    1.265   .     A
C167   O198    1.283   .     A
C167   C170    1.466   .     S
C167   O200    1.283   .     A
C168   C169    1.491   .     S
C168   O201    1.297   .     A
C168   O199    1.276   .     A
C169   C173    1.396   .     A
C171   O211    1.384   .     S
C171   C178    1.418   .     A
C172   H194    1.085   .     S
C172   O656    1.222   1_545 S
C173   C177    1.406   .     A
C173   H189    1.080   .     S
C174   H184    1.085   .     S
C174   O210    1.221   .     D
C175   O212    1.221   .     D
C175   H186    1.085   .     S
C176   O214    1.222   .     D
C176   H188    1.083   .     S
C177   C179    1.428   .     A
C177   C178    1.419   .     A
C178   C857    1.413   .     S
C179   C855    1.415   .     S
C180   C181    1.416   .     A
C180   C854    1.415   1_554 S
C181   O213    1.384   .     S
C181   C182    1.410   .     A
C182   O202    1.382   .     S
C182   C853    1.413   1_554 S
H185   O211    0.990   .     S
H187   O213    0.991   .     S
H190   O202    0.992   .     S
H191   O203    0.989   .     S
H192   O204    0.992   .     S
H193   O430    0.990   .     S
H195   O207    0.991   .     S
H196   O209    0.988   .     S
O197   Zn223   1.958   .     S
O197   Zn224   1.936   .     S
O197   Zn225   1.925   .     S
O197   Zn222   1.955   .     S
O198   Zn223   1.917   .     S
O199   Zn225   1.929   .     S
O200   Zn224   1.928   .     S
O201   Zn222   1.914   .     S
O204   C11     1.385   1_655 S
O205   H643    0.990   1_545 S
O205   C613    1.388   1_545 S
O206   C397    1.222   .     S
O208   Zn222   1.944   .     S
O215   Zn225   1.943   .     S
O216   Zn223   1.926   .     S
O217   Zn224   1.940   .     S
O218   Zn225   1.943   .     S
O219   Zn222   1.930   .     S
O220   Zn223   1.942   .     S
O221   Zn224   1.938   .     S
C226   C236    1.439   .     S
C226   O293    1.268   .     A
C226   O291    1.271   .     A
C227   C254    1.425   .     A
C227   C251    1.495   .     S
C227   C228    1.418   .     A
C228   C249    1.485   .     S
C228   C905    1.422   .     S
C229   O294    1.271   .     A
C229   O292    1.284   .     A
C229   C235    1.456   .     S
C230   C232    1.423   .     A
C230   C231    1.413   .     A
C230   C903    1.422   1_554 S
C231   C234    1.413   .     A
C231   C255    1.420   .     A
C232   C233    1.419   .     A
C232   O278    1.384   .     S
C233   C245    1.418   .     A
C233   O284    1.385   .     S
C234   C245    1.394   .     A
C234   O282    1.384   .     S
C235   C311    1.345   .     S
C235   H333    1.088   .     S
C236   C385    1.345   1_455 S
C236   O429    1.385   1_455 S
C237   C246    1.417   .     A
C237   C250    1.485   .     S
C237   C244    1.424   .     A
C238   C241    1.467   .     S
C238   C464    1.351   .     S
C238   O505    1.388   .     S
C239   C247    1.488   .     S
C239   C240    1.433   .     S
C240   O283    1.268   .     A
C240   O295    1.284   .     A
C241   O296    1.271   .     A
C241   O290    1.265   .     A
C242   O273    1.283   .     A
C242   C245    1.466   .     S
C242   O275    1.283   .     A
C243   C244    1.491   .     S
C243   O276    1.297   .     A
C243   O274    1.276   .     A
C244   C248    1.396   .     A
C246   O286    1.384   .     S
C246   C253    1.418   .     A
C247   H269    1.085   .     S
C248   C252    1.406   .     A
C248   H264    1.080   .     S
C249   H259    1.085   .     S
C249   O285    1.221   .     D
C250   O287    1.221   .     D
C250   H261    1.085   .     S
C251   O289    1.222   .     D
C251   H263    1.083   .     S
C252   C254    1.428   .     A
C252   C253    1.419   .     A
C253   C932    1.413   .     S
C254   C930    1.415   .     S
C255   C256    1.416   .     A
C255   C929    1.415   1_554 S
C256   O288    1.384   .     S
C256   C257    1.410   .     A
C257   O277    1.382   .     S
C257   C928    1.413   1_554 S
H258   C385    1.088   1_455 S
H260   O286    0.990   .     S
H262   O288    0.991   .     S
H265   O277    0.992   .     S
H266   O278    0.989   .     S
H267   O279    0.992   .     S
H268   O505    0.990   .     S
H270   O282    0.991   .     S
H271   O284    0.988   .     S
O272   Zn298   1.958   .     S
O272   Zn299   1.936   .     S
O272   Zn300   1.925   .     S
O272   Zn297   1.955   .     S
O273   Zn298   1.917   .     S
O274   Zn300   1.929   .     S
O275   Zn299   1.928   .     S
O276   Zn297   1.914   .     S
O279   C311    1.385   .     S
O281   C472    1.222   .     S
O283   Zn297   1.944   .     S
O290   Zn300   1.943   .     S
O291   Zn298   1.926   .     S
O292   Zn299   1.940   .     S
O293   Zn300   1.943   .     S
O294   Zn297   1.930   .     S
O295   Zn298   1.942   .     S
O296   Zn299   1.938   .     S
C301   C311    1.439   .     S
C301   O368    1.268   .     A
C301   O366    1.271   .     A
C302   C329    1.425   .     A
C302   C326    1.495   .     S
C302   C303    1.418   .     A
C303   C324    1.485   .     S
C303   C980    1.422   .     S
C304   O369    1.271   .     A
C304   O367    1.284   .     A
C304   C310    1.456   .     S
C305   C307    1.423   .     A
C305   C306    1.413   .     A
C305   C978    1.422   1_554 S
C306   C309    1.413   .     A
C306   C330    1.420   .     A
C307   C308    1.419   .     A
C307   O353    1.384   .     S
C308   C320    1.418   .     A
C308   O359    1.385   .     S
C309   C320    1.394   .     A
C309   O357    1.384   .     S
C310   C386    1.345   .     S
C310   H408    1.088   .     S
C312   C321    1.417   .     A
C312   C325    1.485   .     S
C312   C319    1.424   .     A
C313   C316    1.467   .     S
C313   C539    1.351   .     S
C313   O580    1.388   .     S
C314   C322    1.488   .     S
C314   C315    1.433   .     S
C315   O358    1.268   .     A
C315   O370    1.284   .     A
C316   O371    1.271   .     A
C316   O365    1.265   .     A
C317   O348    1.283   .     A
C317   C320    1.466   .     S
C317   O350    1.283   .     A
C318   C319    1.491   .     S
C318   O351    1.297   .     A
C318   O349    1.276   .     A
C319   C323    1.396   .     A
C321   O361    1.384   .     S
C321   C328    1.418   .     A
C322   H344    1.085   .     S
C323   C327    1.406   .     A
C323   H339    1.080   .     S
C324   H334    1.085   .     S
C324   O360    1.221   .     D
C325   O362    1.221   .     D
C325   H336    1.085   .     S
C326   O364    1.222   .     D
C326   H338    1.083   .     S
C327   C329    1.428   .     A
C327   C328    1.419   .     A
C328   C1007   1.413   .     S
C329   C1005   1.415   .     S
C330   C331    1.416   .     A
C330   C1004   1.415   1_554 S
C331   O363    1.384   .     S
C331   C332    1.410   .     A
C332   O352    1.382   .     S
C332   C1003   1.413   1_554 S
H335   O361    0.990   .     S
H337   O363    0.991   .     S
H340   O352    0.992   .     S
H341   O353    0.989   .     S
H342   O354    0.992   .     S
H343   O580    0.990   .     S
H345   O357    0.991   .     S
H346   O359    0.988   .     S
O347   Zn373   1.958   .     S
O347   Zn374   1.936   .     S
O347   Zn375   1.925   .     S
O347   Zn372   1.955   .     S
O348   Zn373   1.917   .     S
O349   Zn375   1.929   .     S
O350   Zn374   1.928   .     S
O351   Zn372   1.914   .     S
O354   C386    1.385   .     S
O356   C547    1.222   .     S
O358   Zn372   1.944   .     S
O365   Zn375   1.943   .     S
O366   Zn373   1.926   .     S
O367   Zn374   1.940   .     S
O368   Zn375   1.943   .     S
O369   Zn372   1.930   .     S
O370   Zn373   1.942   .     S
O371   Zn374   1.938   .     S
C376   C386    1.439   .     S
C376   O443    1.268   .     A
C376   O441    1.271   .     A
C377   C404    1.425   .     A
C377   C401    1.495   .     S
C377   C378    1.418   .     A
C378   C399    1.485   .     S
C378   C1055   1.422   .     S
C379   O444    1.271   .     A
C379   O442    1.284   .     A
C379   C385    1.456   .     S
C380   C382    1.423   .     A
C380   C381    1.413   .     A
C380   C1053   1.422   1_554 S
C381   C384    1.413   .     A
C381   C405    1.420   .     A
C382   C383    1.419   .     A
C382   O428    1.384   .     S
C383   C395    1.418   .     A
C383   O434    1.385   .     S
C384   C395    1.394   .     A
C384   O432    1.384   .     S
C385   C236    1.345   1_655 S
C385   H258    1.088   1_655 S
C387   C396    1.417   .     A
C387   C400    1.485   .     S
C387   C394    1.424   .     A
C388   C391    1.467   .     S
C388   C614    1.351   .     S
C388   O655    1.388   .     S
C389   C397    1.488   .     S
C389   C390    1.433   .     S
C390   O433    1.268   .     A
C390   O445    1.284   .     A
C391   O446    1.271   .     A
C391   O440    1.265   .     A
C392   O423    1.283   .     A
C392   C395    1.466   .     S
C392   O425    1.283   .     A
C393   C394    1.491   .     S
C393   O426    1.297   .     A
C393   O424    1.276   .     A
C394   C398    1.396   .     A
C396   O436    1.384   .     S
C396   C403    1.418   .     A
C397   H419    1.085   .     S
C398   C402    1.406   .     A
C398   H414    1.080   .     S
C399   H409    1.085   .     S
C399   O435    1.221   .     D
C400   O437    1.221   .     D
C400   H411    1.085   .     S
C401   O439    1.222   .     D
C401   H413    1.083   .     S
C402   C404    1.428   .     A
C402   C403    1.419   .     A
C403   C1082   1.413   .     S
C404   C1080   1.415   .     S
C405   C406    1.416   .     A
C405   C1079   1.415   1_554 S
C406   O438    1.384   .     S
C406   C407    1.410   .     A
C407   O427    1.382   .     S
C407   C1078   1.413   1_554 S
H410   O436    0.990   .     S
H412   O438    0.991   .     S
H415   O427    0.992   .     S
H416   O428    0.989   .     S
H417   O429    0.992   .     S
H418   O655    0.990   .     S
H420   O432    0.991   .     S
H421   O434    0.988   .     S
O422   Zn448   1.958   .     S
O422   Zn449   1.936   .     S
O422   Zn450   1.925   .     S
O422   Zn447   1.955   .     S
O423   Zn448   1.917   .     S
O424   Zn450   1.929   .     S
O425   Zn449   1.928   .     S
O426   Zn447   1.914   .     S
O429   C236    1.385   1_655 S
O431   C622    1.222   .     S
O433   Zn447   1.944   .     S
O440   Zn450   1.943   .     S
O441   Zn448   1.926   .     S
O442   Zn449   1.940   .     S
O443   Zn450   1.943   .     S
O444   Zn447   1.930   .     S
O445   Zn448   1.942   .     S
O446   Zn449   1.938   .     S
C451   C461    1.439   .     S
C451   O518    1.268   .     A
C451   O516    1.271   .     A
C452   C479    1.425   .     A
C452   C476    1.495   .     S
C452   C453    1.418   .     A
C453   C474    1.485   .     S
C453   C1130   1.422   .     S
C454   O519    1.271   .     A
C454   O517    1.284   .     A
C454   C460    1.456   .     S
C455   C457    1.423   .     A
C455   C456    1.413   .     A
C455   C1128   1.422   1_554 S
C456   C459    1.413   .     A
C456   C480    1.420   .     A
C457   C458    1.419   .     A
C457   O503    1.384   .     S
C458   C470    1.418   .     A
C458   O509    1.385   .     S
C459   C470    1.394   .     A
C459   O507    1.384   .     S
C460   C536    1.345   .     S
C460   H558    1.088   .     S
C461   C610    1.345   1_455 S
C461   O654    1.385   1_455 S
C462   C471    1.417   .     A
C462   C475    1.485   .     S
C462   C469    1.424   .     A
C463   C466    1.467   .     S
C463   C14     1.351   1_565 S
C463   O55     1.388   1_565 S
C464   C472    1.488   .     S
C464   C465    1.433   .     S
C465   O508    1.268   .     A
C465   O520    1.284   .     A
C466   O521    1.271   .     A
C466   O515    1.265   .     A
C467   O498    1.283   .     A
C467   C470    1.466   .     S
C467   O500    1.283   .     A
C468   C469    1.491   .     S
C468   O501    1.297   .     A
C468   O499    1.276   .     A
C469   C473    1.396   .     A
C471   O511    1.384   .     S
C471   C478    1.418   .     A
C472   H494    1.085   .     S
C473   C477    1.406   .     A
C473   H489    1.080   .     S
C474   H484    1.085   .     S
C474   O510    1.221   .     D
C475   O512    1.221   .     D
C475   H486    1.085   .     S
C476   O514    1.222   .     D
C476   H488    1.083   .     S
C477   C479    1.428   .     A
C477   C478    1.419   .     A
C478   C1157   1.413   .     S
C479   C1155   1.415   .     S
C480   C481    1.416   .     A
C480   C1154   1.415   1_554 S
C481   O513    1.384   .     S
C481   C482    1.410   .     A
C482   O502    1.382   .     S
C482   C1153   1.413   1_554 S
H483   C610    1.088   1_455 S
H485   O511    0.990   .     S
H487   O513    0.991   .     S
H490   O502    0.992   .     S
H491   O503    0.989   .     S
H492   O504    0.992   .     S
H493   O55     0.990   1_565 S
H495   O507    0.991   .     S
H496   O509    0.988   .     S
O497   Zn523   1.958   .     S
O497   Zn524   1.936   .     S
O497   Zn525   1.925   .     S
O497   Zn522   1.955   .     S
O498   Zn523   1.917   .     S
O499   Zn525   1.929   .     S
O500   Zn524   1.928   .     S
O501   Zn522   1.914   .     S
O504   C536    1.385   .     S
O506   C22     1.222   1_565 S
O508   Zn522   1.944   .     S
O515   Zn525   1.943   .     S
O516   Zn523   1.926   .     S
O517   Zn524   1.940   .     S
O518   Zn525   1.943   .     S
O519   Zn522   1.930   .     S
O520   Zn523   1.942   .     S
O521   Zn524   1.938   .     S
C526   C536    1.439   .     S
C526   O593    1.268   .     A
C526   O591    1.271   .     A
C527   C554    1.425   .     A
C527   C551    1.495   .     S
C527   C528    1.418   .     A
C528   C549    1.485   .     S
C528   C1205   1.422   .     S
C529   O594    1.271   .     A
C529   O592    1.284   .     A
C529   C535    1.456   .     S
C530   C532    1.423   .     A
C530   C531    1.413   .     A
C530   C1203   1.422   1_554 S
C531   C534    1.413   .     A
C531   C555    1.420   .     A
C532   C533    1.419   .     A
C532   O578    1.384   .     S
C533   C545    1.418   .     A
C533   O584    1.385   .     S
C534   C545    1.394   .     A
C534   O582    1.384   .     S
C535   C611    1.345   .     S
C535   H633    1.088   .     S
C537   C546    1.417   .     A
C537   C550    1.485   .     S
C537   C544    1.424   .     A
C538   C541    1.467   .     S
C538   C89     1.351   1_565 S
C538   O130    1.388   1_565 S
C539   C547    1.488   .     S
C539   C540    1.433   .     S
C540   O583    1.268   .     A
C540   O595    1.284   .     A
C541   O596    1.271   .     A
C541   O590    1.265   .     A
C542   O573    1.283   .     A
C542   C545    1.466   .     S
C542   O575    1.283   .     A
C543   C544    1.491   .     S
C543   O576    1.297   .     A
C543   O574    1.276   .     A
C544   C548    1.396   .     A
C546   O586    1.384   .     S
C546   C553    1.418   .     A
C547   H569    1.085   .     S
C548   C552    1.406   .     A
C548   H564    1.080   .     S
C549   H559    1.085   .     S
C549   O585    1.221   .     D
C550   O587    1.221   .     D
C550   H561    1.085   .     S
C551   O589    1.222   .     D
C551   H563    1.083   .     S
C552   C554    1.428   .     A
C552   C553    1.419   .     A
C553   C1232   1.413   .     S
C554   C1230   1.415   .     S
C555   C556    1.416   .     A
C555   C1229   1.415   1_554 S
C556   O588    1.384   .     S
C556   C557    1.410   .     A
C557   O577    1.382   .     S
C557   C1228   1.413   1_554 S
H560   O586    0.990   .     S
H562   O588    0.991   .     S
H565   O577    0.992   .     S
H566   O578    0.989   .     S
H567   O579    0.992   .     S
H568   O130    0.990   1_565 S
H570   O582    0.991   .     S
H571   O584    0.988   .     S
O572   Zn598   1.958   .     S
O572   Zn599   1.936   .     S
O572   Zn600   1.925   .     S
O572   Zn597   1.955   .     S
O573   Zn598   1.917   .     S
O574   Zn600   1.929   .     S
O575   Zn599   1.928   .     S
O576   Zn597   1.914   .     S
O579   C611    1.385   .     S
O581   C97     1.222   1_565 S
O583   Zn597   1.944   .     S
O590   Zn600   1.943   .     S
O591   Zn598   1.926   .     S
O592   Zn599   1.940   .     S
O593   Zn600   1.943   .     S
O594   Zn597   1.930   .     S
O595   Zn598   1.942   .     S
O596   Zn599   1.938   .     S
C601   C611    1.439   .     S
C601   O668    1.268   .     A
C601   O666    1.271   .     A
C602   C629    1.425   .     A
C602   C626    1.495   .     S
C602   C603    1.418   .     A
C603   C624    1.485   .     S
C603   C1280   1.422   .     S
C604   O669    1.271   .     A
C604   O667    1.284   .     A
C604   C610    1.456   .     S
C605   C607    1.423   .     A
C605   C606    1.413   .     A
C605   C1278   1.422   1_554 S
C606   C609    1.413   .     A
C606   C630    1.420   .     A
C607   C608    1.419   .     A
C607   O653    1.384   .     S
C608   C620    1.418   .     A
C608   O659    1.385   .     S
C609   C620    1.394   .     A
C609   O657    1.384   .     S
C610   C461    1.345   1_655 S
C610   H483    1.088   1_655 S
C612   C621    1.417   .     A
C612   C625    1.485   .     S
C612   C619    1.424   .     A
C613   C616    1.467   .     S
C613   C164    1.351   1_565 S
C613   O205    1.388   1_565 S
C614   C622    1.488   .     S
C614   C615    1.433   .     S
C615   O658    1.268   .     A
C615   O670    1.284   .     A
C616   O671    1.271   .     A
C616   O665    1.265   .     A
C617   O648    1.283   .     A
C617   C620    1.466   .     S
C617   O650    1.283   .     A
C618   C619    1.491   .     S
C618   O651    1.297   .     A
C618   O649    1.276   .     A
C619   C623    1.396   .     A
C621   O661    1.384   .     S
C621   C628    1.418   .     A
C622   H644    1.085   .     S
C623   C627    1.406   .     A
C623   H639    1.080   .     S
C624   H634    1.085   .     S
C624   O660    1.221   .     D
C625   O662    1.221   .     D
C625   H636    1.085   .     S
C626   O664    1.222   .     D
C626   H638    1.083   .     S
C627   C629    1.428   .     A
C627   C628    1.419   .     A
C628   C1307   1.413   .     S
C629   C1305   1.415   .     S
C630   C631    1.416   .     A
C630   C1304   1.415   1_554 S
C631   O663    1.384   .     S
C631   C632    1.410   .     A
C632   O652    1.382   .     S
C632   C1303   1.413   1_554 S
H635   O661    0.990   .     S
H637   O663    0.991   .     S
H640   O652    0.992   .     S
H641   O653    0.989   .     S
H642   O654    0.992   .     S
H643   O205    0.990   1_565 S
H645   O657    0.991   .     S
H646   O659    0.988   .     S
O647   Zn673   1.958   .     S
O647   Zn674   1.936   .     S
O647   Zn675   1.925   .     S
O647   Zn672   1.955   .     S
O648   Zn673   1.917   .     S
O649   Zn675   1.929   .     S
O650   Zn674   1.928   .     S
O651   Zn672   1.914   .     S
O654   C461    1.385   1_655 S
O656   C172    1.222   1_565 S
O658   Zn672   1.944   .     S
O665   Zn675   1.943   .     S
O666   Zn673   1.926   .     S
O667   Zn674   1.940   .     S
O668   Zn675   1.943   .     S
O669   Zn672   1.930   .     S
O670   Zn673   1.942   .     S
O671   Zn674   1.938   .     S
C676   C686    1.439   .     S
C676   O743    1.268   .     A
C676   O741    1.271   .     A
C677   C704    1.425   .     A
C677   C701    1.495   .     S
C677   C678    1.418   .     A
C678   C699    1.485   .     S
C678   C5      1.422   1_556 S
C679   O744    1.271   .     A
C679   O742    1.284   .     A
C679   C685    1.456   .     S
C680   C682    1.423   .     A
C680   C681    1.413   .     A
C681   C684    1.413   .     A
C681   C705    1.420   .     A
C682   C683    1.419   .     A
C682   O728    1.384   .     S
C683   C695    1.418   .     A
C683   O734    1.385   .     S
C684   C695    1.394   .     A
C684   O732    1.384   .     S
C685   C761    1.345   .     S
C685   H783    1.088   .     S
C686   C835    1.345   1_455 S
C686   O879    1.385   1_455 S
C687   C696    1.417   .     A
C687   C700    1.485   .     S
C687   C694    1.424   .     A
C688   C691    1.467   .     S
C688   C914    1.351   .     S
C688   O955    1.388   .     S
C689   C697    1.488   .     S
C689   C690    1.433   .     S
C689   C1138   1.351   1_545 S
C690   O733    1.268   .     A
C690   O745    1.284   .     A
C691   O746    1.271   .     A
C691   O740    1.265   .     A
C692   O723    1.283   .     A
C692   C695    1.466   .     S
C692   O725    1.283   .     A
C693   C694    1.491   .     S
C693   O726    1.297   .     A
C693   O724    1.276   .     A
C694   C698    1.396   .     A
C696   O736    1.384   .     S
C696   C703    1.418   .     A
C697   H719    1.085   .     S
C697   O1181   1.222   1_545 S
C698   C702    1.406   .     A
C698   H714    1.080   .     S
C699   H709    1.085   .     S
C699   O735    1.221   .     D
C700   O737    1.221   .     D
C700   H711    1.085   .     S
C701   O739    1.222   .     D
C701   H713    1.083   .     S
C702   C704    1.428   .     A
C702   C703    1.419   .     A
C703   C32     1.413   1_556 S
C704   C30     1.415   1_556 S
C705   C706    1.416   .     A
C706   O738    1.384   .     S
C706   C707    1.410   .     A
C707   O727    1.382   .     S
H708   C835    1.088   1_455 S
H710   O736    0.990   .     S
H712   O738    0.991   .     S
H715   O727    0.992   .     S
H716   O728    0.989   .     S
H717   O729    0.992   .     S
H718   O955    0.990   .     S
H720   O732    0.991   .     S
H721   O734    0.988   .     S
O722   Zn748   1.958   .     S
O722   Zn749   1.936   .     S
O722   Zn750   1.925   .     S
O722   Zn747   1.955   .     S
O723   Zn748   1.917   .     S
O724   Zn750   1.929   .     S
O725   Zn749   1.928   .     S
O726   Zn747   1.914   .     S
O729   C761    1.385   .     S
O730   H1168   0.990   1_545 S
O730   C1138   1.388   1_545 S
O731   C922    1.222   .     S
O733   Zn747   1.944   .     S
O740   Zn750   1.943   .     S
O741   Zn748   1.926   .     S
O742   Zn749   1.940   .     S
O743   Zn750   1.943   .     S
O744   Zn747   1.930   .     S
O745   Zn748   1.942   .     S
O746   Zn749   1.938   .     S
C751   C761    1.439   .     S
C751   O818    1.268   .     A
C751   O816    1.271   .     A
C752   C779    1.425   .     A
C752   C776    1.495   .     S
C752   C753    1.418   .     A
C753   C774    1.485   .     S
C753   C80     1.422   1_556 S
C754   O819    1.271   .     A
C754   O817    1.284   .     A
C754   C760    1.456   .     S
C755   C757    1.423   .     A
C755   C756    1.413   .     A
C756   C759    1.413   .     A
C756   C780    1.420   .     A
C757   C758    1.419   .     A
C757   O803    1.384   .     S
C758   C770    1.418   .     A
C758   O809    1.385   .     S
C759   C770    1.394   .     A
C759   O807    1.384   .     S
C760   C836    1.345   .     S
C760   H858    1.088   .     S
C762   C771    1.417   .     A
C762   C775    1.485   .     S
C762   C769    1.424   .     A
C763   C766    1.467   .     S
C763   C989    1.351   .     S
C763   O1030   1.388   .     S
C764   C772    1.488   .     S
C764   C765    1.433   .     S
C764   C1213   1.351   1_545 S
C765   O808    1.268   .     A
C765   O820    1.284   .     A
C766   O821    1.271   .     A
C766   O815    1.265   .     A
C767   O798    1.283   .     A
C767   C770    1.466   .     S
C767   O800    1.283   .     A
C768   C769    1.491   .     S
C768   O801    1.297   .     A
C768   O799    1.276   .     A
C769   C773    1.396   .     A
C771   O811    1.384   .     S
C771   C778    1.418   .     A
C772   H794    1.085   .     S
C772   O1256   1.222   1_545 S
C773   C777    1.406   .     A
C773   H789    1.080   .     S
C774   H784    1.085   .     S
C774   O810    1.221   .     D
C775   O812    1.221   .     D
C775   H786    1.085   .     S
C776   O814    1.222   .     D
C776   H788    1.083   .     S
C777   C779    1.428   .     A
C777   C778    1.419   .     A
C778   C107    1.413   1_556 S
C779   C105    1.415   1_556 S
C780   C781    1.416   .     A
C781   O813    1.384   .     S
C781   C782    1.410   .     A
C782   O802    1.382   .     S
H785   O811    0.990   .     S
H787   O813    0.991   .     S
H790   O802    0.992   .     S
H791   O803    0.989   .     S
H792   O804    0.992   .     S
H793   O1030   0.990   .     S
H795   O807    0.991   .     S
H796   O809    0.988   .     S
O797   Zn823   1.958   .     S
O797   Zn824   1.936   .     S
O797   Zn825   1.925   .     S
O797   Zn822   1.955   .     S
O798   Zn823   1.917   .     S
O799   Zn825   1.929   .     S
O800   Zn824   1.928   .     S
O801   Zn822   1.914   .     S
O804   C836    1.385   .     S
O805   H1243   0.990   1_545 S
O805   C1213   1.388   1_545 S
O806   C997    1.222   .     S
O808   Zn822   1.944   .     S
O815   Zn825   1.943   .     S
O816   Zn823   1.926   .     S
O817   Zn824   1.940   .     S
O818   Zn825   1.943   .     S
O819   Zn822   1.930   .     S
O820   Zn823   1.942   .     S
O821   Zn824   1.938   .     S
C826   C836    1.439   .     S
C826   O893    1.268   .     A
C826   O891    1.271   .     A
C827   C854    1.425   .     A
C827   C851    1.495   .     S
C827   C828    1.418   .     A
C828   C849    1.485   .     S
C828   C155    1.422   1_556 S
C829   O894    1.271   .     A
C829   O892    1.284   .     A
C829   C835    1.456   .     S
C830   C832    1.423   .     A
C830   C831    1.413   .     A
C831   C834    1.413   .     A
C831   C855    1.420   .     A
C832   C833    1.419   .     A
C832   O878    1.384   .     S
C833   C845    1.418   .     A
C833   O884    1.385   .     S
C834   C845    1.394   .     A
C834   O882    1.384   .     S
C835   C686    1.345   1_655 S
C835   H708    1.088   1_655 S
C837   C846    1.417   .     A
C837   C850    1.485   .     S
C837   C844    1.424   .     A
C838   C841    1.467   .     S
C838   C1064   1.351   .     S
C838   O1105   1.388   .     S
C839   C847    1.488   .     S
C839   C840    1.433   .     S
C839   C1288   1.351   1_545 S
C840   O883    1.268   .     A
C840   O895    1.284   .     A
C841   O896    1.271   .     A
C841   O890    1.265   .     A
C842   O873    1.283   .     A
C842   C845    1.466   .     S
C842   O875    1.283   .     A
C843   C844    1.491   .     S
C843   O876    1.297   .     A
C843   O874    1.276   .     A
C844   C848    1.396   .     A
C846   O886    1.384   .     S
C846   C853    1.418   .     A
C847   H869    1.085   .     S
C847   O1331   1.222   1_545 S
C848   C852    1.406   .     A
C848   H864    1.080   .     S
C849   H859    1.085   .     S
C849   O885    1.221   .     D
C850   O887    1.221   .     D
C850   H861    1.085   .     S
C851   O889    1.222   .     D
C851   H863    1.083   .     S
C852   C854    1.428   .     A
C852   C853    1.419   .     A
C853   C182    1.413   1_556 S
C854   C180    1.415   1_556 S
C855   C856    1.416   .     A
C856   O888    1.384   .     S
C856   C857    1.410   .     A
C857   O877    1.382   .     S
H860   O886    0.990   .     S
H862   O888    0.991   .     S
H865   O877    0.992   .     S
H866   O878    0.989   .     S
H867   O879    0.992   .     S
H868   O1105   0.990   .     S
H870   O882    0.991   .     S
H871   O884    0.988   .     S
O872   Zn898   1.958   .     S
O872   Zn899   1.936   .     S
O872   Zn900   1.925   .     S
O872   Zn897   1.955   .     S
O873   Zn898   1.917   .     S
O874   Zn900   1.929   .     S
O875   Zn899   1.928   .     S
O876   Zn897   1.914   .     S
O879   C686    1.385   1_655 S
O880   H1318   0.990   1_545 S
O880   C1288   1.388   1_545 S
O881   C1072   1.222   .     S
O883   Zn897   1.944   .     S
O890   Zn900   1.943   .     S
O891   Zn898   1.926   .     S
O892   Zn899   1.940   .     S
O893   Zn900   1.943   .     S
O894   Zn897   1.930   .     S
O895   Zn898   1.942   .     S
O896   Zn899   1.938   .     S
C901   C911    1.439   .     S
C901   O968    1.268   .     A
C901   O966    1.271   .     A
C902   C929    1.425   .     A
C902   C926    1.495   .     S
C902   C903    1.418   .     A
C903   C924    1.485   .     S
C903   C230    1.422   1_556 S
C904   O969    1.271   .     A
C904   O967    1.284   .     A
C904   C910    1.456   .     S
C905   C907    1.423   .     A
C905   C906    1.413   .     A
C906   C909    1.413   .     A
C906   C930    1.420   .     A
C907   C908    1.419   .     A
C907   O953    1.384   .     S
C908   C920    1.418   .     A
C908   O959    1.385   .     S
C909   C920    1.394   .     A
C909   O957    1.384   .     S
C910   C986    1.345   .     S
C910   H1008   1.088   .     S
C911   C1060   1.345   1_455 S
C911   O1104   1.385   1_455 S
C912   C921    1.417   .     A
C912   C925    1.485   .     S
C912   C919    1.424   .     A
C913   C916    1.467   .     S
C913   C1139   1.351   .     S
C913   O1180   1.388   .     S
C914   C922    1.488   .     S
C914   C915    1.433   .     S
C915   O958    1.268   .     A
C915   O970    1.284   .     A
C916   O971    1.271   .     A
C916   O965    1.265   .     A
C917   O948    1.283   .     A
C917   C920    1.466   .     S
C917   O950    1.283   .     A
C918   C919    1.491   .     S
C918   O951    1.297   .     A
C918   O949    1.276   .     A
C919   C923    1.396   .     A
C921   O961    1.384   .     S
C921   C928    1.418   .     A
C922   H944    1.085   .     S
C923   C927    1.406   .     A
C923   H939    1.080   .     S
C924   H934    1.085   .     S
C924   O960    1.221   .     D
C925   O962    1.221   .     D
C925   H936    1.085   .     S
C926   O964    1.222   .     D
C926   H938    1.083   .     S
C927   C929    1.428   .     A
C927   C928    1.419   .     A
C928   C257    1.413   1_556 S
C929   C255    1.415   1_556 S
C930   C931    1.416   .     A
C931   O963    1.384   .     S
C931   C932    1.410   .     A
C932   O952    1.382   .     S
H933   C1060   1.088   1_455 S
H935   O961    0.990   .     S
H937   O963    0.991   .     S
H940   O952    0.992   .     S
H941   O953    0.989   .     S
H942   O954    0.992   .     S
H943   O1180   0.990   .     S
H945   O957    0.991   .     S
H946   O959    0.988   .     S
O947   Zn973   1.958   .     S
O947   Zn974   1.936   .     S
O947   Zn975   1.925   .     S
O947   Zn972   1.955   .     S
O948   Zn973   1.917   .     S
O949   Zn975   1.929   .     S
O950   Zn974   1.928   .     S
O951   Zn972   1.914   .     S
O954   C986    1.385   .     S
O956   C1147   1.222   .     S
O958   Zn972   1.944   .     S
O965   Zn975   1.943   .     S
O966   Zn973   1.926   .     S
O967   Zn974   1.940   .     S
O968   Zn975   1.943   .     S
O969   Zn972   1.930   .     S
O970   Zn973   1.942   .     S
O971   Zn974   1.938   .     S
C976   C986    1.439   .     S
C976   O1043   1.268   .     A
C976   O1041   1.271   .     A
C977   C1004   1.425   .     A
C977   C1001   1.495   .     S
C977   C978    1.418   .     A
C978   C999    1.485   .     S
C978   C305    1.422   1_556 S
C979   O1044   1.271   .     A
C979   O1042   1.284   .     A
C979   C985    1.456   .     S
C980   C982    1.423   .     A
C980   C981    1.413   .     A
C981   C984    1.413   .     A
C981   C1005   1.420   .     A
C982   C983    1.419   .     A
C982   O1028   1.384   .     S
C983   C995    1.418   .     A
C983   O1034   1.385   .     S
C984   C995    1.394   .     A
C984   O1032   1.384   .     S
C985   C1061   1.345   .     S
C985   H1083   1.088   .     S
C987   C996    1.417   .     A
C987   C1000   1.485   .     S
C987   C994    1.424   .     A
C988   C991    1.467   .     S
C988   C1214   1.351   .     S
C988   O1255   1.388   .     S
C989   C997    1.488   .     S
C989   C990    1.433   .     S
C990   O1033   1.268   .     A
C990   O1045   1.284   .     A
C991   O1046   1.271   .     A
C991   O1040   1.265   .     A
C992   O1023   1.283   .     A
C992   C995    1.466   .     S
C992   O1025   1.283   .     A
C993   C994    1.491   .     S
C993   O1026   1.297   .     A
C993   O1024   1.276   .     A
C994   C998    1.396   .     A
C996   O1036   1.384   .     S
C996   C1003   1.418   .     A
C997   H1019   1.085   .     S
C998   C1002   1.406   .     A
C998   H1014   1.080   .     S
C999   H1009   1.085   .     S
C999   O1035   1.221   .     D
C1000  O1037   1.221   .     D
C1000  H1011   1.085   .     S
C1001  O1039   1.222   .     D
C1001  H1013   1.083   .     S
C1002  C1004   1.428   .     A
C1002  C1003   1.419   .     A
C1003  C332    1.413   1_556 S
C1004  C330    1.415   1_556 S
C1005  C1006   1.416   .     A
C1006  O1038   1.384   .     S
C1006  C1007   1.410   .     A
C1007  O1027   1.382   .     S
H1010  O1036   0.990   .     S
H1012  O1038   0.991   .     S
H1015  O1027   0.992   .     S
H1016  O1028   0.989   .     S
H1017  O1029   0.992   .     S
H1018  O1255   0.990   .     S
H1020  O1032   0.991   .     S
H1021  O1034   0.988   .     S
O1022  Zn1048  1.958   .     S
O1022  Zn1049  1.936   .     S
O1022  Zn1050  1.925   .     S
O1022  Zn1047  1.955   .     S
O1023  Zn1048  1.917   .     S
O1024  Zn1050  1.929   .     S
O1025  Zn1049  1.928   .     S
O1026  Zn1047  1.914   .     S
O1029  C1061   1.385   .     S
O1031  C1222   1.222   .     S
O1033  Zn1047  1.944   .     S
O1040  Zn1050  1.943   .     S
O1041  Zn1048  1.926   .     S
O1042  Zn1049  1.940   .     S
O1043  Zn1050  1.943   .     S
O1044  Zn1047  1.930   .     S
O1045  Zn1048  1.942   .     S
O1046  Zn1049  1.938   .     S
C1051  C1061   1.439   .     S
C1051  O1118   1.268   .     A
C1051  O1116   1.271   .     A
C1052  C1079   1.425   .     A
C1052  C1076   1.495   .     S
C1052  C1053   1.418   .     A
C1053  C1074   1.485   .     S
C1053  C380    1.422   1_556 S
C1054  O1119   1.271   .     A
C1054  O1117   1.284   .     A
C1054  C1060   1.456   .     S
C1055  C1057   1.423   .     A
C1055  C1056   1.413   .     A
C1056  C1059   1.413   .     A
C1056  C1080   1.420   .     A
C1057  C1058   1.419   .     A
C1057  O1103   1.384   .     S
C1058  C1070   1.418   .     A
C1058  O1109   1.385   .     S
C1059  C1070   1.394   .     A
C1059  O1107   1.384   .     S
C1060  C911    1.345   1_655 S
C1060  H933    1.088   1_655 S
C1062  C1071   1.417   .     A
C1062  C1075   1.485   .     S
C1062  C1069   1.424   .     A
C1063  C1066   1.467   .     S
C1063  C1289   1.351   .     S
C1063  O1330   1.388   .     S
C1064  C1072   1.488   .     S
C1064  C1065   1.433   .     S
C1065  O1108   1.268   .     A
C1065  O1120   1.284   .     A
C1066  O1121   1.271   .     A
C1066  O1115   1.265   .     A
C1067  O1098   1.283   .     A
C1067  C1070   1.466   .     S
C1067  O1100   1.283   .     A
C1068  C1069   1.491   .     S
C1068  O1101   1.297   .     A
C1068  O1099   1.276   .     A
C1069  C1073   1.396   .     A
C1071  O1111   1.384   .     S
C1071  C1078   1.418   .     A
C1072  H1094   1.085   .     S
C1073  C1077   1.406   .     A
C1073  H1089   1.080   .     S
C1074  H1084   1.085   .     S
C1074  O1110   1.221   .     D
C1075  O1112   1.221   .     D
C1075  H1086   1.085   .     S
C1076  O1114   1.222   .     D
C1076  H1088   1.083   .     S
C1077  C1079   1.428   .     A
C1077  C1078   1.419   .     A
C1078  C407    1.413   1_556 S
C1079  C405    1.415   1_556 S
C1080  C1081   1.416   .     A
C1081  O1113   1.384   .     S
C1081  C1082   1.410   .     A
C1082  O1102   1.382   .     S
H1085  O1111   0.990   .     S
H1087  O1113   0.991   .     S
H1090  O1102   0.992   .     S
H1091  O1103   0.989   .     S
H1092  O1104   0.992   .     S
H1093  O1330   0.990   .     S
H1095  O1107   0.991   .     S
H1096  O1109   0.988   .     S
O1097  Zn1123  1.958   .     S
O1097  Zn1124  1.936   .     S
O1097  Zn1125  1.925   .     S
O1097  Zn1122  1.955   .     S
O1098  Zn1123  1.917   .     S
O1099  Zn1125  1.929   .     S
O1100  Zn1124  1.928   .     S
O1101  Zn1122  1.914   .     S
O1104  C911    1.385   1_655 S
O1106  C1297   1.222   .     S
O1108  Zn1122  1.944   .     S
O1115  Zn1125  1.943   .     S
O1116  Zn1123  1.926   .     S
O1117  Zn1124  1.940   .     S
O1118  Zn1125  1.943   .     S
O1119  Zn1122  1.930   .     S
O1120  Zn1123  1.942   .     S
O1121  Zn1124  1.938   .     S
C1126  C1136   1.439   .     S
C1126  O1193   1.268   .     A
C1126  O1191   1.271   .     A
C1127  C1154   1.425   .     A
C1127  C1151   1.495   .     S
C1127  C1128   1.418   .     A
C1128  C1149   1.485   .     S
C1128  C455    1.422   1_556 S
C1129  O1194   1.271   .     A
C1129  O1192   1.284   .     A
C1129  C1135   1.456   .     S
C1130  C1132   1.423   .     A
C1130  C1131   1.413   .     A
C1131  C1134   1.413   .     A
C1131  C1155   1.420   .     A
C1132  C1133   1.419   .     A
C1132  O1178   1.384   .     S
C1133  C1145   1.418   .     A
C1133  O1184   1.385   .     S
C1134  C1145   1.394   .     A
C1134  O1182   1.384   .     S
C1135  C1211   1.345   .     S
C1135  H1233   1.088   .     S
C1136  C1285   1.345   1_455 S
C1136  O1329   1.385   1_455 S
C1137  C1146   1.417   .     A
C1137  C1150   1.485   .     S
C1137  C1144   1.424   .     A
C1138  C1141   1.467   .     S
C1138  C689    1.351   1_565 S
C1138  O730    1.388   1_565 S
C1139  C1147   1.488   .     S
C1139  C1140   1.433   .     S
C1140  O1183   1.268   .     A
C1140  O1195   1.284   .     A
C1141  O1196   1.271   .     A
C1141  O1190   1.265   .     A
C1142  O1173   1.283   .     A
C1142  C1145   1.466   .     S
C1142  O1175   1.283   .     A
C1143  C1144   1.491   .     S
C1143  O1176   1.297   .     A
C1143  O1174   1.276   .     A
C1144  C1148   1.396   .     A
C1146  O1186   1.384   .     S
C1146  C1153   1.418   .     A
C1147  H1169   1.085   .     S
C1148  C1152   1.406   .     A
C1148  H1164   1.080   .     S
C1149  H1159   1.085   .     S
C1149  O1185   1.221   .     D
C1150  O1187   1.221   .     D
C1150  H1161   1.085   .     S
C1151  O1189   1.222   .     D
C1151  H1163   1.083   .     S
C1152  C1154   1.428   .     A
C1152  C1153   1.419   .     A
C1153  C482    1.413   1_556 S
C1154  C480    1.415   1_556 S
C1155  C1156   1.416   .     A
C1156  O1188   1.384   .     S
C1156  C1157   1.410   .     A
C1157  O1177   1.382   .     S
H1158  C1285   1.088   1_455 S
H1160  O1186   0.990   .     S
H1162  O1188   0.991   .     S
H1165  O1177   0.992   .     S
H1166  O1178   0.989   .     S
H1167  O1179   0.992   .     S
H1168  O730    0.990   1_565 S
H1170  O1182   0.991   .     S
H1171  O1184   0.988   .     S
O1172  Zn1198  1.958   .     S
O1172  Zn1199  1.936   .     S
O1172  Zn1200  1.925   .     S
O1172  Zn1197  1.955   .     S
O1173  Zn1198  1.917   .     S
O1174  Zn1200  1.929   .     S
O1175  Zn1199  1.928   .     S
O1176  Zn1197  1.914   .     S
O1179  C1211   1.385   .     S
O1181  C697    1.222   1_565 S
O1183  Zn1197  1.944   .     S
O1190  Zn1200  1.943   .     S
O1191  Zn1198  1.926   .     S
O1192  Zn1199  1.940   .     S
O1193  Zn1200  1.943   .     S
O1194  Zn1197  1.930   .     S
O1195  Zn1198  1.942   .     S
O1196  Zn1199  1.938   .     S
C1201  C1211   1.439   .     S
C1201  O1268   1.268   .     A
C1201  O1266   1.271   .     A
C1202  C1229   1.425   .     A
C1202  C1226   1.495   .     S
C1202  C1203   1.418   .     A
C1203  C1224   1.485   .     S
C1203  C530    1.422   1_556 S
C1204  O1269   1.271   .     A
C1204  O1267   1.284   .     A
C1204  C1210   1.456   .     S
C1205  C1207   1.423   .     A
C1205  C1206   1.413   .     A
C1206  C1209   1.413   .     A
C1206  C1230   1.420   .     A
C1207  C1208   1.419   .     A
C1207  O1253   1.384   .     S
C1208  C1220   1.418   .     A
C1208  O1259   1.385   .     S
C1209  C1220   1.394   .     A
C1209  O1257   1.384   .     S
C1210  C1286   1.345   .     S
C1210  H1308   1.088   .     S
C1212  C1221   1.417   .     A
C1212  C1225   1.485   .     S
C1212  C1219   1.424   .     A
C1213  C1216   1.467   .     S
C1213  C764    1.351   1_565 S
C1213  O805    1.388   1_565 S
C1214  C1222   1.488   .     S
C1214  C1215   1.433   .     S
C1215  O1258   1.268   .     A
C1215  O1270   1.284   .     A
C1216  O1271   1.271   .     A
C1216  O1265   1.265   .     A
C1217  O1248   1.283   .     A
C1217  C1220   1.466   .     S
C1217  O1250   1.283   .     A
C1218  C1219   1.491   .     S
C1218  O1251   1.297   .     A
C1218  O1249   1.276   .     A
C1219  C1223   1.396   .     A
C1221  O1261   1.384   .     S
C1221  C1228   1.418   .     A
C1222  H1244   1.085   .     S
C1223  C1227   1.406   .     A
C1223  H1239   1.080   .     S
C1224  H1234   1.085   .     S
C1224  O1260   1.221   .     D
C1225  O1262   1.221   .     D
C1225  H1236   1.085   .     S
C1226  O1264   1.222   .     D
C1226  H1238   1.083   .     S
C1227  C1229   1.428   .     A
C1227  C1228   1.419   .     A
C1228  C557    1.413   1_556 S
C1229  C555    1.415   1_556 S
C1230  C1231   1.416   .     A
C1231  O1263   1.384   .     S
C1231  C1232   1.410   .     A
C1232  O1252   1.382   .     S
H1235  O1261   0.990   .     S
H1237  O1263   0.991   .     S
H1240  O1252   0.992   .     S
H1241  O1253   0.989   .     S
H1242  O1254   0.992   .     S
H1243  O805    0.990   1_565 S
H1245  O1257   0.991   .     S
H1246  O1259   0.988   .     S
O1247  Zn1273  1.958   .     S
O1247  Zn1274  1.936   .     S
O1247  Zn1275  1.925   .     S
O1247  Zn1272  1.955   .     S
O1248  Zn1273  1.917   .     S
O1249  Zn1275  1.929   .     S
O1250  Zn1274  1.928   .     S
O1251  Zn1272  1.914   .     S
O1254  C1286   1.385   .     S
O1256  C772    1.222   1_565 S
O1258  Zn1272  1.944   .     S
O1265  Zn1275  1.943   .     S
O1266  Zn1273  1.926   .     S
O1267  Zn1274  1.940   .     S
O1268  Zn1275  1.943   .     S
O1269  Zn1272  1.930   .     S
O1270  Zn1273  1.942   .     S
O1271  Zn1274  1.938   .     S
C1276  C1286   1.439   .     S
C1276  O1343   1.268   .     A
C1276  O1341   1.271   .     A
C1277  C1304   1.425   .     A
C1277  C1301   1.495   .     S
C1277  C1278   1.418   .     A
C1278  C1299   1.485   .     S
C1278  C605    1.422   1_556 S
C1279  O1344   1.271   .     A
C1279  O1342   1.284   .     A
C1279  C1285   1.456   .     S
C1280  C1282   1.423   .     A
C1280  C1281   1.413   .     A
C1281  C1284   1.413   .     A
C1281  C1305   1.420   .     A
C1282  C1283   1.419   .     A
C1282  O1328   1.384   .     S
C1283  C1295   1.418   .     A
C1283  O1334   1.385   .     S
C1284  C1295   1.394   .     A
C1284  O1332   1.384   .     S
C1285  C1136   1.345   1_655 S
C1285  H1158   1.088   1_655 S
C1287  C1296   1.417   .     A
C1287  C1300   1.485   .     S
C1287  C1294   1.424   .     A
C1288  C1291   1.467   .     S
C1288  C839    1.351   1_565 S
C1288  O880    1.388   1_565 S
C1289  C1297   1.488   .     S
C1289  C1290   1.433   .     S
C1290  O1333   1.268   .     A
C1290  O1345   1.284   .     A
C1291  O1346   1.271   .     A
C1291  O1340   1.265   .     A
C1292  O1323   1.283   .     A
C1292  C1295   1.466   .     S
C1292  O1325   1.283   .     A
C1293  C1294   1.491   .     S
C1293  O1326   1.297   .     A
C1293  O1324   1.276   .     A
C1294  C1298   1.396   .     A
C1296  O1336   1.384   .     S
C1296  C1303   1.418   .     A
C1297  H1319   1.085   .     S
C1298  C1302   1.406   .     A
C1298  H1314   1.080   .     S
C1299  H1309   1.085   .     S
C1299  O1335   1.221   .     D
C1300  O1337   1.221   .     D
C1300  H1311   1.085   .     S
C1301  O1339   1.222   .     D
C1301  H1313   1.083   .     S
C1302  C1304   1.428   .     A
C1302  C1303   1.419   .     A
C1303  C632    1.413   1_556 S
C1304  C630    1.415   1_556 S
C1305  C1306   1.416   .     A
C1306  O1338   1.384   .     S
C1306  C1307   1.410   .     A
C1307  O1327   1.382   .     S
H1310  O1336   0.990   .     S
H1312  O1338   0.991   .     S
H1315  O1327   0.992   .     S
H1316  O1328   0.989   .     S
H1317  O1329   0.992   .     S
H1318  O880    0.990   1_565 S
H1320  O1332   0.991   .     S
H1321  O1334   0.988   .     S
O1322  Zn1348  1.958   .     S
O1322  Zn1349  1.936   .     S
O1322  Zn1350  1.925   .     S
O1322  Zn1347  1.955   .     S
O1323  Zn1348  1.917   .     S
O1324  Zn1350  1.929   .     S
O1325  Zn1349  1.928   .     S
O1326  Zn1347  1.914   .     S
O1329  C1136   1.385   1_655 S
O1331  C847    1.222   1_565 S
O1333  Zn1347  1.944   .     S
O1340  Zn1350  1.943   .     S
O1341  Zn1348  1.926   .     S
O1342  Zn1349  1.940   .     S
O1343  Zn1350  1.943   .     S
O1344  Zn1347  1.930   .     S
O1345  Zn1348  1.942   .     S
O1346  Zn1349  1.938   .     S
