data_str_m1_o10_o18_pcu_sym.54
_audit_creation_date              2020-01-03
_audit_creation_method            'Materials Studio'
_symmetry_space_group_name_H-M    'P1'
_symmetry_Int_Tables_number       1
_symmetry_cell_setting            triclinic
loop_
_symmetry_equiv_pos_as_xyz
  x,y,z
_cell_length_a                    32.4884
_cell_length_b                    32.5631
_cell_length_c                    35.7974
_cell_angle_alpha                 98.5596
_cell_angle_beta                  72.9876
_cell_angle_gamma                 98.6951
loop_
_atom_site_label
_atom_site_type_symbol
_atom_site_fract_x
_atom_site_fract_y
_atom_site_fract_z
_atom_site_U_iso_or_equiv
_atom_site_adp_type
_atom_site_occupancy
C1     C     0.05238   0.15959   0.25905   0.00000  Uiso   1.00
C2     C     0.18304   0.12148   0.46371   0.00000  Uiso   1.00
C3     C     0.20189   0.09979   0.48363   0.00000  Uiso   1.00
C4     C     0.28104   0.17404   0.24145   0.00000  Uiso   1.00
C5     C     0.20039   0.11269   0.02278   0.00000  Uiso   1.00
C6     C     0.17774   0.14711   0.04312   0.00000  Uiso   1.00
C7     C     0.22010   0.09051   0.04224   0.00000  Uiso   1.00
C8     C     0.21719   0.10172   0.08187   0.00000  Uiso   1.00
C9     C     0.17698   0.15890   0.08280   0.00000  Uiso   1.00
C10    C     0.32720   0.17841   0.23885   0.00000  Uiso   1.00
C11    C     0.00714   0.15732   0.26172   0.00000  Uiso   1.00
C12    C     0.10657   0.22581   0.42105   0.00000  Uiso   1.00
C13    C     0.17988   0.32195   0.23805   0.00000  Uiso   1.00
C14    C     0.15099   0.01243   0.26246   0.00000  Uiso   1.00
C15    C     0.15598   0.05619   0.25876   0.00000  Uiso   1.00
C16    C     0.17662   0.27763   0.24137   0.00000  Uiso   1.00
C17    C     0.18824   0.14497   0.14412   0.00000  Uiso   1.00
C18    C     0.14607   0.18861   0.35618   0.00000  Uiso   1.00
C19    C     0.13732   0.19846   0.39941   0.00000  Uiso   1.00
C20    C     0.19579   0.13595   0.10194   0.00000  Uiso   1.00
C21    C     0.09638   0.23131   0.46194   0.00000  Uiso   1.00
C22    C     0.03840   0.22446   0.06654   0.00000  Uiso   1.00
C23    C     0.16018   0.18033   0.41950   0.00000  Uiso   1.00
C24    C     0.00599   0.21172   0.04205   0.00000  Uiso   1.00
C25    C     0.29585   0.19254   0.06653   0.00000  Uiso   1.00
C26    C     0.02395   0.24417   0.22483   0.00000  Uiso   1.00
C27    C     0.06280   0.26844   0.19838   0.00000  Uiso   1.00
C28    C     0.06386   0.31540   0.21083   0.00000  Uiso   1.00
C29    C     0.11065   0.28443   0.39109   0.00000  Uiso   1.00
C30    C     0.09710   0.32132   0.42214   0.00000  Uiso   1.00
C31    C     0.12059   0.02944   0.40785   0.00000  Uiso   1.00
C32    C     0.23336   0.19500   0.39803   0.00000  Uiso   1.00
C33    C     0.27524   0.17647   0.37529   0.00000  Uiso   1.00
C34    C     0.14613   0.18183   0.46106   0.00000  Uiso   1.00
C35    C     0.31480   0.20897   0.37292   0.00000  Uiso   1.00
C36    C     0.11579   0.20987   0.48223   0.00000  Uiso   1.00
C37    C     0.16265   0.15748   0.48210   0.00000  Uiso   1.00
C38    C     0.15647   0.16805   0.02316   0.00000  Uiso   1.00
C39    C     0.12778   0.19780   0.04310   0.00000  Uiso   1.00
C40    C     0.10553   0.21651   0.02340   0.00000  Uiso   1.00
F41    F     0.11742   0.33057   0.29169   0.00000  Uiso   1.00
H42    H     0.23694   0.06392   0.02699   0.00000  Uiso   1.00
H43    H     0.02419   0.24680   0.09207   0.00000  Uiso   1.00
H44    H     0.04341   0.19678   0.07901   0.00000  Uiso   1.00
H45    H     0.00086   0.23966   0.03026   0.00000  Uiso   1.00
H46    H     0.01914   0.18848   0.01691   0.00000  Uiso   1.00
H47    H     0.30002   0.16412   0.07816   0.00000  Uiso   1.00
H48    H     0.27338   0.18363   0.04778   0.00000  Uiso   1.00
H49    H     0.28136   0.21541   0.09143   0.00000  Uiso   1.00
H50    H     0.02691   0.25029   0.25553   0.00000  Uiso   1.00
H51    H     0.32703   0.25558   0.22387   0.00000  Uiso   1.00
H52    H     0.09320   0.25786   0.19990   0.00000  Uiso   1.00
H53    H     0.31812   0.13726   0.28217   0.00000  Uiso   1.00
H54    H     0.06111   0.26201   0.16744   0.00000  Uiso   1.00
H55    H     0.03461   0.32696   0.20790   0.00000  Uiso   1.00
H56    H     0.09305   0.33197   0.19174   0.00000  Uiso   1.00
H57    H     0.06516   0.32257   0.24179   0.00000  Uiso   1.00
H58    H     0.10469   0.29007   0.36335   0.00000  Uiso   1.00
H59    H     0.14628   0.28301   0.38428   0.00000  Uiso   1.00
H60    H     0.06157   0.32215   0.42894   0.00000  Uiso   1.00
H61    H     0.10491   0.31747   0.44953   0.00000  Uiso   1.00
H62    H     0.15618   0.02957   0.40157   0.00000  Uiso   1.00
H63    H     0.11012   0.05549   0.43096   0.00000  Uiso   1.00
H64    H     0.20646   0.00221   0.21533   0.00000  Uiso   1.00
H65    H     0.11282   0.03464   0.38081   0.00000  Uiso   1.00
H66    H     0.23516   0.20643   0.42853   0.00000  Uiso   1.00
H67    H     0.23032   0.22179   0.38327   0.00000  Uiso   1.00
H68    H     0.27884   0.14999   0.39000   0.00000  Uiso   1.00
H69    H     0.27346   0.16432   0.34507   0.00000  Uiso   1.00
H70    H     0.31253   0.23509   0.35714   0.00000  Uiso   1.00
H71    H     0.01125   0.19426   0.35665   0.00000  Uiso   1.00
H72    H     0.31732   0.22148   0.40288   0.00000  Uiso   1.00
H73    H     0.16172   0.18545   0.09988   0.00000  Uiso   1.00
H74    H     0.23124   0.08354   0.09699   0.00000  Uiso   1.00
H75    H     0.21746   0.07249   0.46831   0.00000  Uiso   1.00
H76    H     0.07271   0.25239   0.47775   0.00000  Uiso   1.00
H77    H     0.12012   0.20593   0.07444   0.00000  Uiso   1.00
H78    H     0.18296   0.10817   0.43427   0.00000  Uiso   1.00
O79    O     0.16667   0.16667   0.25000   0.00000  Uiso   1.00
O80    O     0.15693   0.12393   0.16625   0.00000  Uiso   1.00
O81    O     0.12687   0.20646   0.33749   0.00000  Uiso   1.00
O82    O     0.21088   0.17493   0.15877   0.00000  Uiso   1.00
O83    O     0.17198   0.16135   0.33749   0.00000  Uiso   1.00
O84    O     0.07730   0.24526   0.04417   0.00000  Uiso   1.00
O85    O     0.02377   0.20122   0.21100   0.00000  Uiso   1.00
O86    O     0.08514   0.24673   0.40281   0.00000  Uiso   1.00
O87    O     0.19807   0.16371   0.39836   0.00000  Uiso   1.00
O88    O     0.17849   0.08101   0.27821   0.00000  Uiso   1.00
O89    O     0.14581   0.26136   0.26767   0.00000  Uiso   1.00
O90    O     0.07452   0.13251   0.23607   0.00000  Uiso   1.00
O91    O     0.26785   0.19179   0.21806   0.00000  Uiso   1.00
O92    O     0.06990   0.18960   0.27820   0.00000  Uiso   1.00
O93    O     0.25440   0.15277   0.26768   0.00000  Uiso   1.00
O94    O     0.13800   0.06903   0.23607   0.00000  Uiso   1.00
O95    O     0.20437   0.25527   0.21805   0.00000  Uiso   1.00
Zn96   Zn    0.19244   0.14090   0.28278   0.00000  Uiso   1.00
Zn97   Zn    0.13459   0.12378   0.22258   0.00000  Uiso   1.00
Zn98   Zn    0.21166   0.19664   0.21188   0.00000  Uiso   1.00
Zn99   Zn    0.12798   0.20535   0.28277   0.00000  Uiso   1.00
C100   C     0.38572   0.15959   0.25905   0.00000  Uiso   1.00
C101   C     0.51637   0.12148   0.46371   0.00000  Uiso   1.00
C102   C     0.53522   0.09979   0.48363   0.00000  Uiso   1.00
C103   C     0.61438   0.17404   0.24145   0.00000  Uiso   1.00
C104   C     0.53372   0.11269   0.02278   0.00000  Uiso   1.00
C105   C     0.51108   0.14711   0.04312   0.00000  Uiso   1.00
C106   C     0.55343   0.09051   0.04224   0.00000  Uiso   1.00
C107   C     0.55052   0.10172   0.08187   0.00000  Uiso   1.00
C108   C     0.51031   0.15890   0.08280   0.00000  Uiso   1.00
C109   C     0.66053   0.17841   0.23885   0.00000  Uiso   1.00
C110   C     0.34048   0.15732   0.26172   0.00000  Uiso   1.00
C111   C     0.43991   0.22581   0.42105   0.00000  Uiso   1.00
C112   C     0.51322   0.32195   0.23805   0.00000  Uiso   1.00
C113   C     0.48433   0.01243   0.26246   0.00000  Uiso   1.00
C114   C     0.48931   0.05619   0.25876   0.00000  Uiso   1.00
C115   C     0.50996   0.27763   0.24137   0.00000  Uiso   1.00
C116   C     0.52158   0.14497   0.14412   0.00000  Uiso   1.00
C117   C     0.47941   0.18861   0.35618   0.00000  Uiso   1.00
C118   C     0.47066   0.19846   0.39941   0.00000  Uiso   1.00
C119   C     0.52912   0.13595   0.10194   0.00000  Uiso   1.00
C120   C     0.42971   0.23131   0.46194   0.00000  Uiso   1.00
C121   C     0.37173   0.22446   0.06654   0.00000  Uiso   1.00
C122   C     0.49351   0.18033   0.41950   0.00000  Uiso   1.00
C123   C     0.33932   0.21172   0.04205   0.00000  Uiso   1.00
C124   C     0.62919   0.19254   0.06653   0.00000  Uiso   1.00
C125   C     0.35728   0.24417   0.22483   0.00000  Uiso   1.00
C126   C     0.39613   0.26844   0.19838   0.00000  Uiso   1.00
C127   C     0.39719   0.31540   0.21083   0.00000  Uiso   1.00
C128   C     0.44398   0.28443   0.39109   0.00000  Uiso   1.00
C129   C     0.43044   0.32132   0.42214   0.00000  Uiso   1.00
C130   C     0.45392   0.02944   0.40785   0.00000  Uiso   1.00
C131   C     0.56670   0.19500   0.39803   0.00000  Uiso   1.00
C132   C     0.60858   0.17647   0.37529   0.00000  Uiso   1.00
C133   C     0.47946   0.18183   0.46106   0.00000  Uiso   1.00
C134   C     0.64813   0.20897   0.37292   0.00000  Uiso   1.00
C135   C     0.44913   0.20987   0.48223   0.00000  Uiso   1.00
C136   C     0.49598   0.15748   0.48210   0.00000  Uiso   1.00
C137   C     0.48980   0.16805   0.02316   0.00000  Uiso   1.00
C138   C     0.46111   0.19780   0.04310   0.00000  Uiso   1.00
C139   C     0.43886   0.21651   0.02340   0.00000  Uiso   1.00
F140   F     0.45075   0.33057   0.29169   0.00000  Uiso   1.00
H141   H     0.57027   0.06392   0.02699   0.00000  Uiso   1.00
H142   H     0.35752   0.24680   0.09207   0.00000  Uiso   1.00
H143   H     0.37675   0.19678   0.07901   0.00000  Uiso   1.00
H144   H     0.33419   0.23966   0.03026   0.00000  Uiso   1.00
H145   H     0.35247   0.18848   0.01691   0.00000  Uiso   1.00
H146   H     0.63335   0.16412   0.07816   0.00000  Uiso   1.00
H147   H     0.60671   0.18363   0.04778   0.00000  Uiso   1.00
H148   H     0.61469   0.21541   0.09143   0.00000  Uiso   1.00
H149   H     0.36024   0.25029   0.25553   0.00000  Uiso   1.00
H150   H     0.66037   0.25558   0.22387   0.00000  Uiso   1.00
H151   H     0.42653   0.25786   0.19990   0.00000  Uiso   1.00
H152   H     0.65146   0.13726   0.28217   0.00000  Uiso   1.00
H153   H     0.39444   0.26201   0.16744   0.00000  Uiso   1.00
H154   H     0.36794   0.32696   0.20790   0.00000  Uiso   1.00
H155   H     0.42638   0.33197   0.19174   0.00000  Uiso   1.00
H156   H     0.39849   0.32257   0.24179   0.00000  Uiso   1.00
H157   H     0.43802   0.29007   0.36335   0.00000  Uiso   1.00
H158   H     0.47961   0.28301   0.38428   0.00000  Uiso   1.00
H159   H     0.39491   0.32215   0.42894   0.00000  Uiso   1.00
H160   H     0.43824   0.31747   0.44953   0.00000  Uiso   1.00
H161   H     0.48951   0.02957   0.40157   0.00000  Uiso   1.00
H162   H     0.44345   0.05549   0.43096   0.00000  Uiso   1.00
H163   H     0.53979   0.00221   0.21533   0.00000  Uiso   1.00
H164   H     0.44615   0.03464   0.38081   0.00000  Uiso   1.00
H165   H     0.56850   0.20643   0.42853   0.00000  Uiso   1.00
H166   H     0.56366   0.22179   0.38327   0.00000  Uiso   1.00
H167   H     0.61217   0.14999   0.39000   0.00000  Uiso   1.00
H168   H     0.60679   0.16432   0.34507   0.00000  Uiso   1.00
H169   H     0.64586   0.23509   0.35714   0.00000  Uiso   1.00
H170   H     0.34459   0.19426   0.35665   0.00000  Uiso   1.00
H171   H     0.65065   0.22148   0.40288   0.00000  Uiso   1.00
H172   H     0.49506   0.18545   0.09988   0.00000  Uiso   1.00
H173   H     0.56458   0.08354   0.09699   0.00000  Uiso   1.00
H174   H     0.55080   0.07249   0.46831   0.00000  Uiso   1.00
H175   H     0.40604   0.25239   0.47775   0.00000  Uiso   1.00
H176   H     0.45345   0.20593   0.07444   0.00000  Uiso   1.00
H177   H     0.51629   0.10817   0.43427   0.00000  Uiso   1.00
O178   O     0.50000   0.16667   0.25000   0.00000  Uiso   1.00
O179   O     0.49027   0.12393   0.16625   0.00000  Uiso   1.00
O180   O     0.46020   0.20646   0.33749   0.00000  Uiso   1.00
O181   O     0.54421   0.17493   0.15877   0.00000  Uiso   1.00
O182   O     0.50532   0.16135   0.33749   0.00000  Uiso   1.00
O183   O     0.41063   0.24526   0.04417   0.00000  Uiso   1.00
O184   O     0.35710   0.20122   0.21100   0.00000  Uiso   1.00
O185   O     0.41847   0.24673   0.40281   0.00000  Uiso   1.00
O186   O     0.53140   0.16371   0.39836   0.00000  Uiso   1.00
O187   O     0.51182   0.08101   0.27821   0.00000  Uiso   1.00
O188   O     0.47914   0.26136   0.26767   0.00000  Uiso   1.00
O189   O     0.40785   0.13251   0.23607   0.00000  Uiso   1.00
O190   O     0.60119   0.19179   0.21806   0.00000  Uiso   1.00
O191   O     0.40323   0.18960   0.27820   0.00000  Uiso   1.00
O192   O     0.58773   0.15277   0.26768   0.00000  Uiso   1.00
O193   O     0.47133   0.06903   0.23607   0.00000  Uiso   1.00
O194   O     0.53771   0.25527   0.21805   0.00000  Uiso   1.00
Zn195  Zn    0.52577   0.14090   0.28278   0.00000  Uiso   1.00
Zn196  Zn    0.46792   0.12378   0.22258   0.00000  Uiso   1.00
Zn197  Zn    0.54500   0.19664   0.21188   0.00000  Uiso   1.00
Zn198  Zn    0.46131   0.20535   0.28277   0.00000  Uiso   1.00
C199   C     0.71905   0.15959   0.25905   0.00000  Uiso   1.00
C200   C     0.84970   0.12148   0.46371   0.00000  Uiso   1.00
C201   C     0.86855   0.09979   0.48363   0.00000  Uiso   1.00
C202   C     0.94771   0.17404   0.24145   0.00000  Uiso   1.00
C203   C     0.86705   0.11269   0.02278   0.00000  Uiso   1.00
C204   C     0.84441   0.14711   0.04312   0.00000  Uiso   1.00
C205   C     0.88677   0.09051   0.04224   0.00000  Uiso   1.00
C206   C     0.88386   0.10172   0.08187   0.00000  Uiso   1.00
C207   C     0.84364   0.15890   0.08280   0.00000  Uiso   1.00
C208   C     0.99387   0.17841   0.23885   0.00000  Uiso   1.00
C209   C     0.67381   0.15732   0.26172   0.00000  Uiso   1.00
C210   C     0.77324   0.22581   0.42105   0.00000  Uiso   1.00
C211   C     0.84655   0.32195   0.23805   0.00000  Uiso   1.00
C212   C     0.81766   0.01243   0.26246   0.00000  Uiso   1.00
C213   C     0.82265   0.05619   0.25876   0.00000  Uiso   1.00
C214   C     0.84329   0.27763   0.24137   0.00000  Uiso   1.00
C215   C     0.85491   0.14497   0.14412   0.00000  Uiso   1.00
C216   C     0.81274   0.18861   0.35618   0.00000  Uiso   1.00
C217   C     0.80399   0.19846   0.39941   0.00000  Uiso   1.00
C218   C     0.86246   0.13595   0.10194   0.00000  Uiso   1.00
C219   C     0.76304   0.23131   0.46194   0.00000  Uiso   1.00
C220   C     0.70507   0.22446   0.06654   0.00000  Uiso   1.00
C221   C     0.82685   0.18033   0.41950   0.00000  Uiso   1.00
C222   C     0.67265   0.21172   0.04205   0.00000  Uiso   1.00
C223   C     0.96252   0.19254   0.06653   0.00000  Uiso   1.00
C224   C     0.69062   0.24417   0.22483   0.00000  Uiso   1.00
C225   C     0.72947   0.26844   0.19838   0.00000  Uiso   1.00
C226   C     0.73053   0.31540   0.21083   0.00000  Uiso   1.00
C227   C     0.77731   0.28443   0.39109   0.00000  Uiso   1.00
C228   C     0.76377   0.32132   0.42214   0.00000  Uiso   1.00
C229   C     0.78725   0.02944   0.40785   0.00000  Uiso   1.00
C230   C     0.90003   0.19500   0.39803   0.00000  Uiso   1.00
C231   C     0.94191   0.17647   0.37529   0.00000  Uiso   1.00
C232   C     0.81280   0.18183   0.46106   0.00000  Uiso   1.00
C233   C     0.98146   0.20897   0.37292   0.00000  Uiso   1.00
C234   C     0.78246   0.20987   0.48223   0.00000  Uiso   1.00
C235   C     0.82931   0.15748   0.48210   0.00000  Uiso   1.00
C236   C     0.82313   0.16805   0.02316   0.00000  Uiso   1.00
C237   C     0.79445   0.19780   0.04310   0.00000  Uiso   1.00
C238   C     0.77220   0.21651   0.02340   0.00000  Uiso   1.00
F239   F     0.78409   0.33057   0.29169   0.00000  Uiso   1.00
H240   H     0.90360   0.06392   0.02699   0.00000  Uiso   1.00
H241   H     0.69086   0.24680   0.09207   0.00000  Uiso   1.00
H242   H     0.71008   0.19678   0.07901   0.00000  Uiso   1.00
H243   H     0.66753   0.23966   0.03026   0.00000  Uiso   1.00
H244   H     0.68581   0.18848   0.01691   0.00000  Uiso   1.00
H245   H     0.96668   0.16412   0.07816   0.00000  Uiso   1.00
H246   H     0.94005   0.18363   0.04778   0.00000  Uiso   1.00
H247   H     0.94802   0.21541   0.09143   0.00000  Uiso   1.00
H248   H     0.69357   0.25029   0.25553   0.00000  Uiso   1.00
H249   H     0.99370   0.25558   0.22387   0.00000  Uiso   1.00
H250   H     0.75986   0.25786   0.19990   0.00000  Uiso   1.00
H251   H     0.98479   0.13726   0.28217   0.00000  Uiso   1.00
H252   H     0.72778   0.26201   0.16744   0.00000  Uiso   1.00
H253   H     0.70128   0.32696   0.20790   0.00000  Uiso   1.00
H254   H     0.75972   0.33197   0.19174   0.00000  Uiso   1.00
H255   H     0.73183   0.32257   0.24179   0.00000  Uiso   1.00
H256   H     0.77136   0.29007   0.36335   0.00000  Uiso   1.00
H257   H     0.81294   0.28301   0.38428   0.00000  Uiso   1.00
H258   H     0.72824   0.32215   0.42894   0.00000  Uiso   1.00
H259   H     0.77157   0.31747   0.44953   0.00000  Uiso   1.00
H260   H     0.82285   0.02957   0.40157   0.00000  Uiso   1.00
H261   H     0.77679   0.05549   0.43096   0.00000  Uiso   1.00
H262   H     0.87313   0.00221   0.21533   0.00000  Uiso   1.00
H263   H     0.77949   0.03464   0.38081   0.00000  Uiso   1.00
H264   H     0.90183   0.20643   0.42853   0.00000  Uiso   1.00
H265   H     0.89699   0.22179   0.38327   0.00000  Uiso   1.00
H266   H     0.94551   0.14999   0.39000   0.00000  Uiso   1.00
H267   H     0.94012   0.16432   0.34507   0.00000  Uiso   1.00
H268   H     0.97920   0.23509   0.35714   0.00000  Uiso   1.00
H269   H     0.67792   0.19426   0.35665   0.00000  Uiso   1.00
H270   H     0.98399   0.22148   0.40288   0.00000  Uiso   1.00
H271   H     0.82839   0.18545   0.09988   0.00000  Uiso   1.00
H272   H     0.89791   0.08354   0.09699   0.00000  Uiso   1.00
H273   H     0.88413   0.07249   0.46831   0.00000  Uiso   1.00
H274   H     0.73938   0.25239   0.47775   0.00000  Uiso   1.00
H275   H     0.78679   0.20593   0.07444   0.00000  Uiso   1.00
H276   H     0.84962   0.10817   0.43427   0.00000  Uiso   1.00
O277   O     0.83333   0.16667   0.25000   0.00000  Uiso   1.00
O278   O     0.82360   0.12393   0.16625   0.00000  Uiso   1.00
O279   O     0.79354   0.20646   0.33749   0.00000  Uiso   1.00
O280   O     0.87755   0.17493   0.15877   0.00000  Uiso   1.00
O281   O     0.83865   0.16135   0.33749   0.00000  Uiso   1.00
O282   O     0.74397   0.24526   0.04417   0.00000  Uiso   1.00
O283   O     0.69044   0.20122   0.21100   0.00000  Uiso   1.00
O284   O     0.75181   0.24673   0.40281   0.00000  Uiso   1.00
O285   O     0.86474   0.16371   0.39836   0.00000  Uiso   1.00
O286   O     0.84515   0.08101   0.27821   0.00000  Uiso   1.00
O287   O     0.81247   0.26136   0.26767   0.00000  Uiso   1.00
O288   O     0.74119   0.13251   0.23607   0.00000  Uiso   1.00
O289   O     0.93452   0.19179   0.21806   0.00000  Uiso   1.00
O290   O     0.73656   0.18960   0.27820   0.00000  Uiso   1.00
O291   O     0.92106   0.15277   0.26768   0.00000  Uiso   1.00
O292   O     0.80467   0.06903   0.23607   0.00000  Uiso   1.00
O293   O     0.87104   0.25527   0.21805   0.00000  Uiso   1.00
Zn294  Zn    0.85910   0.14090   0.28278   0.00000  Uiso   1.00
Zn295  Zn    0.80125   0.12378   0.22258   0.00000  Uiso   1.00
Zn296  Zn    0.87833   0.19664   0.21188   0.00000  Uiso   1.00
Zn297  Zn    0.79465   0.20535   0.28277   0.00000  Uiso   1.00
C298   C     0.05238   0.49292   0.25905   0.00000  Uiso   1.00
C299   C     0.18304   0.45482   0.46371   0.00000  Uiso   1.00
C300   C     0.20189   0.43312   0.48363   0.00000  Uiso   1.00
C301   C     0.28104   0.50737   0.24145   0.00000  Uiso   1.00
C302   C     0.20039   0.44603   0.02278   0.00000  Uiso   1.00
C303   C     0.17774   0.48044   0.04312   0.00000  Uiso   1.00
C304   C     0.22010   0.42384   0.04224   0.00000  Uiso   1.00
C305   C     0.21719   0.43505   0.08187   0.00000  Uiso   1.00
C306   C     0.17698   0.49223   0.08280   0.00000  Uiso   1.00
C307   C     0.32720   0.51174   0.23885   0.00000  Uiso   1.00
C308   C     0.00714   0.49066   0.26172   0.00000  Uiso   1.00
C309   C     0.10657   0.55914   0.42105   0.00000  Uiso   1.00
C310   C     0.17988   0.65528   0.23805   0.00000  Uiso   1.00
C311   C     0.15099   0.34577   0.26246   0.00000  Uiso   1.00
C312   C     0.15598   0.38952   0.25876   0.00000  Uiso   1.00
C313   C     0.17662   0.61096   0.24137   0.00000  Uiso   1.00
C314   C     0.18824   0.47830   0.14412   0.00000  Uiso   1.00
C315   C     0.14607   0.52194   0.35618   0.00000  Uiso   1.00
C316   C     0.13732   0.53179   0.39941   0.00000  Uiso   1.00
C317   C     0.19579   0.46929   0.10194   0.00000  Uiso   1.00
C318   C     0.09638   0.56464   0.46194   0.00000  Uiso   1.00
C319   C     0.03840   0.55779   0.06654   0.00000  Uiso   1.00
C320   C     0.16018   0.51366   0.41950   0.00000  Uiso   1.00
C321   C     0.00599   0.54505   0.04205   0.00000  Uiso   1.00
C322   C     0.29585   0.52588   0.06653   0.00000  Uiso   1.00
C323   C     0.02395   0.57750   0.22483   0.00000  Uiso   1.00
C324   C     0.06280   0.60177   0.19838   0.00000  Uiso   1.00
C325   C     0.06386   0.64874   0.21083   0.00000  Uiso   1.00
C326   C     0.11065   0.61776   0.39109   0.00000  Uiso   1.00
C327   C     0.09710   0.65465   0.42214   0.00000  Uiso   1.00
C328   C     0.12059   0.36277   0.40785   0.00000  Uiso   1.00
C329   C     0.23336   0.52833   0.39803   0.00000  Uiso   1.00
C330   C     0.27524   0.50980   0.37529   0.00000  Uiso   1.00
C331   C     0.14613   0.51516   0.46106   0.00000  Uiso   1.00
C332   C     0.31480   0.54230   0.37292   0.00000  Uiso   1.00
C333   C     0.11579   0.54320   0.48223   0.00000  Uiso   1.00
C334   C     0.16265   0.49081   0.48210   0.00000  Uiso   1.00
C335   C     0.15647   0.50138   0.02316   0.00000  Uiso   1.00
C336   C     0.12778   0.53113   0.04310   0.00000  Uiso   1.00
C337   C     0.10553   0.54984   0.02340   0.00000  Uiso   1.00
F338   F     0.11742   0.66390   0.29169   0.00000  Uiso   1.00
H339   H     0.23694   0.39725   0.02699   0.00000  Uiso   1.00
H340   H     0.02419   0.58014   0.09207   0.00000  Uiso   1.00
H341   H     0.04341   0.53012   0.07901   0.00000  Uiso   1.00
H342   H     0.00086   0.57300   0.03026   0.00000  Uiso   1.00
H343   H     0.01914   0.52182   0.01691   0.00000  Uiso   1.00
H344   H     0.30002   0.49745   0.07816   0.00000  Uiso   1.00
H345   H     0.27338   0.51697   0.04778   0.00000  Uiso   1.00
H346   H     0.28136   0.54875   0.09143   0.00000  Uiso   1.00
H347   H     0.02691   0.58362   0.25553   0.00000  Uiso   1.00
H348   H     0.32703   0.58891   0.22387   0.00000  Uiso   1.00
H349   H     0.09320   0.59120   0.19990   0.00000  Uiso   1.00
H350   H     0.31812   0.47059   0.28217   0.00000  Uiso   1.00
H351   H     0.06111   0.59534   0.16744   0.00000  Uiso   1.00
H352   H     0.03461   0.66030   0.20790   0.00000  Uiso   1.00
H353   H     0.09305   0.66530   0.19174   0.00000  Uiso   1.00
H354   H     0.06516   0.65591   0.24179   0.00000  Uiso   1.00
H355   H     0.10469   0.62340   0.36335   0.00000  Uiso   1.00
H356   H     0.14628   0.61634   0.38428   0.00000  Uiso   1.00
H357   H     0.06157   0.65548   0.42894   0.00000  Uiso   1.00
H358   H     0.10491   0.65080   0.44953   0.00000  Uiso   1.00
H359   H     0.15618   0.36290   0.40157   0.00000  Uiso   1.00
H360   H     0.11012   0.38883   0.43096   0.00000  Uiso   1.00
H361   H     0.20646   0.33554   0.21533   0.00000  Uiso   1.00
H362   H     0.11282   0.36797   0.38081   0.00000  Uiso   1.00
H363   H     0.23516   0.53976   0.42853   0.00000  Uiso   1.00
H364   H     0.23032   0.55512   0.38327   0.00000  Uiso   1.00
H365   H     0.27884   0.48333   0.39000   0.00000  Uiso   1.00
H366   H     0.27346   0.49765   0.34507   0.00000  Uiso   1.00
H367   H     0.31253   0.56842   0.35714   0.00000  Uiso   1.00
H368   H     0.01125   0.52759   0.35665   0.00000  Uiso   1.00
H369   H     0.31732   0.55482   0.40288   0.00000  Uiso   1.00
H370   H     0.16172   0.51879   0.09988   0.00000  Uiso   1.00
H371   H     0.23124   0.41687   0.09699   0.00000  Uiso   1.00
H372   H     0.21746   0.40582   0.46831   0.00000  Uiso   1.00
H373   H     0.07271   0.58572   0.47775   0.00000  Uiso   1.00
H374   H     0.12012   0.53926   0.07444   0.00000  Uiso   1.00
H375   H     0.18296   0.44150   0.43427   0.00000  Uiso   1.00
O376   O     0.16667   0.50000   0.25000   0.00000  Uiso   1.00
O377   O     0.15693   0.45726   0.16625   0.00000  Uiso   1.00
O378   O     0.12687   0.53979   0.33749   0.00000  Uiso   1.00
O379   O     0.21088   0.50826   0.15877   0.00000  Uiso   1.00
O380   O     0.17198   0.49468   0.33749   0.00000  Uiso   1.00
O381   O     0.07730   0.57859   0.04417   0.00000  Uiso   1.00
O382   O     0.02377   0.53456   0.21100   0.00000  Uiso   1.00
O383   O     0.08514   0.58006   0.40281   0.00000  Uiso   1.00
O384   O     0.19807   0.49704   0.39836   0.00000  Uiso   1.00
O385   O     0.17849   0.41434   0.27821   0.00000  Uiso   1.00
O386   O     0.14581   0.59469   0.26767   0.00000  Uiso   1.00
O387   O     0.07452   0.46584   0.23607   0.00000  Uiso   1.00
O388   O     0.26785   0.52512   0.21806   0.00000  Uiso   1.00
O389   O     0.06990   0.52293   0.27820   0.00000  Uiso   1.00
O390   O     0.25440   0.48610   0.26768   0.00000  Uiso   1.00
O391   O     0.13800   0.40236   0.23607   0.00000  Uiso   1.00
O392   O     0.20437   0.58860   0.21805   0.00000  Uiso   1.00
Zn393  Zn    0.19244   0.47423   0.28278   0.00000  Uiso   1.00
Zn394  Zn    0.13459   0.45711   0.22258   0.00000  Uiso   1.00
Zn395  Zn    0.21166   0.52997   0.21188   0.00000  Uiso   1.00
Zn396  Zn    0.12798   0.53868   0.28277   0.00000  Uiso   1.00
C397   C     0.38572   0.49292   0.25905   0.00000  Uiso   1.00
C398   C     0.51637   0.45482   0.46371   0.00000  Uiso   1.00
C399   C     0.53522   0.43312   0.48363   0.00000  Uiso   1.00
C400   C     0.61438   0.50737   0.24145   0.00000  Uiso   1.00
C401   C     0.53372   0.44603   0.02278   0.00000  Uiso   1.00
C402   C     0.51108   0.48044   0.04312   0.00000  Uiso   1.00
C403   C     0.55343   0.42384   0.04224   0.00000  Uiso   1.00
C404   C     0.55052   0.43505   0.08187   0.00000  Uiso   1.00
C405   C     0.51031   0.49223   0.08280   0.00000  Uiso   1.00
C406   C     0.66053   0.51174   0.23885   0.00000  Uiso   1.00
C407   C     0.34048   0.49066   0.26172   0.00000  Uiso   1.00
C408   C     0.43991   0.55914   0.42105   0.00000  Uiso   1.00
C409   C     0.51322   0.65528   0.23805   0.00000  Uiso   1.00
C410   C     0.48433   0.34577   0.26246   0.00000  Uiso   1.00
C411   C     0.48931   0.38952   0.25876   0.00000  Uiso   1.00
C412   C     0.50996   0.61096   0.24137   0.00000  Uiso   1.00
C413   C     0.52158   0.47830   0.14412   0.00000  Uiso   1.00
C414   C     0.47941   0.52194   0.35618   0.00000  Uiso   1.00
C415   C     0.47066   0.53179   0.39941   0.00000  Uiso   1.00
C416   C     0.52912   0.46929   0.10194   0.00000  Uiso   1.00
C417   C     0.42971   0.56464   0.46194   0.00000  Uiso   1.00
C418   C     0.37173   0.55779   0.06654   0.00000  Uiso   1.00
C419   C     0.49351   0.51366   0.41950   0.00000  Uiso   1.00
C420   C     0.33932   0.54505   0.04205   0.00000  Uiso   1.00
C421   C     0.62919   0.52588   0.06653   0.00000  Uiso   1.00
C422   C     0.35728   0.57750   0.22483   0.00000  Uiso   1.00
C423   C     0.39613   0.60177   0.19838   0.00000  Uiso   1.00
C424   C     0.39719   0.64874   0.21083   0.00000  Uiso   1.00
C425   C     0.44398   0.61776   0.39109   0.00000  Uiso   1.00
C426   C     0.43044   0.65465   0.42214   0.00000  Uiso   1.00
C427   C     0.45392   0.36277   0.40785   0.00000  Uiso   1.00
C428   C     0.56670   0.52833   0.39803   0.00000  Uiso   1.00
C429   C     0.60858   0.50980   0.37529   0.00000  Uiso   1.00
C430   C     0.47946   0.51516   0.46106   0.00000  Uiso   1.00
C431   C     0.64813   0.54230   0.37292   0.00000  Uiso   1.00
C432   C     0.44913   0.54320   0.48223   0.00000  Uiso   1.00
C433   C     0.49598   0.49081   0.48210   0.00000  Uiso   1.00
C434   C     0.48980   0.50138   0.02316   0.00000  Uiso   1.00
C435   C     0.46111   0.53113   0.04310   0.00000  Uiso   1.00
C436   C     0.43886   0.54984   0.02340   0.00000  Uiso   1.00
F437   F     0.45075   0.66390   0.29169   0.00000  Uiso   1.00
H438   H     0.57027   0.39725   0.02699   0.00000  Uiso   1.00
H439   H     0.35752   0.58014   0.09207   0.00000  Uiso   1.00
H440   H     0.37675   0.53012   0.07901   0.00000  Uiso   1.00
H441   H     0.33419   0.57300   0.03026   0.00000  Uiso   1.00
H442   H     0.35247   0.52182   0.01691   0.00000  Uiso   1.00
H443   H     0.63335   0.49745   0.07816   0.00000  Uiso   1.00
H444   H     0.60671   0.51697   0.04778   0.00000  Uiso   1.00
H445   H     0.61469   0.54875   0.09143   0.00000  Uiso   1.00
H446   H     0.36024   0.58362   0.25553   0.00000  Uiso   1.00
H447   H     0.66037   0.58891   0.22387   0.00000  Uiso   1.00
H448   H     0.42653   0.59120   0.19990   0.00000  Uiso   1.00
H449   H     0.65146   0.47059   0.28217   0.00000  Uiso   1.00
H450   H     0.39444   0.59534   0.16744   0.00000  Uiso   1.00
H451   H     0.36794   0.66030   0.20790   0.00000  Uiso   1.00
H452   H     0.42638   0.66530   0.19174   0.00000  Uiso   1.00
H453   H     0.39849   0.65591   0.24179   0.00000  Uiso   1.00
H454   H     0.43802   0.62340   0.36335   0.00000  Uiso   1.00
H455   H     0.47961   0.61634   0.38428   0.00000  Uiso   1.00
H456   H     0.39491   0.65548   0.42894   0.00000  Uiso   1.00
H457   H     0.43824   0.65080   0.44953   0.00000  Uiso   1.00
H458   H     0.48951   0.36290   0.40157   0.00000  Uiso   1.00
H459   H     0.44345   0.38883   0.43096   0.00000  Uiso   1.00
H460   H     0.53979   0.33554   0.21533   0.00000  Uiso   1.00
H461   H     0.44615   0.36797   0.38081   0.00000  Uiso   1.00
H462   H     0.56850   0.53976   0.42853   0.00000  Uiso   1.00
H463   H     0.56366   0.55512   0.38327   0.00000  Uiso   1.00
H464   H     0.61217   0.48333   0.39000   0.00000  Uiso   1.00
H465   H     0.60679   0.49765   0.34507   0.00000  Uiso   1.00
H466   H     0.64586   0.56842   0.35714   0.00000  Uiso   1.00
H467   H     0.34459   0.52759   0.35665   0.00000  Uiso   1.00
H468   H     0.65065   0.55482   0.40288   0.00000  Uiso   1.00
H469   H     0.49506   0.51879   0.09988   0.00000  Uiso   1.00
H470   H     0.56458   0.41687   0.09699   0.00000  Uiso   1.00
H471   H     0.55080   0.40582   0.46831   0.00000  Uiso   1.00
H472   H     0.40604   0.58572   0.47775   0.00000  Uiso   1.00
H473   H     0.45345   0.53926   0.07444   0.00000  Uiso   1.00
H474   H     0.51629   0.44150   0.43427   0.00000  Uiso   1.00
O475   O     0.50000   0.50000   0.25000   0.00000  Uiso   1.00
O476   O     0.49027   0.45726   0.16625   0.00000  Uiso   1.00
O477   O     0.46020   0.53979   0.33749   0.00000  Uiso   1.00
O478   O     0.54421   0.50826   0.15877   0.00000  Uiso   1.00
O479   O     0.50532   0.49468   0.33749   0.00000  Uiso   1.00
O480   O     0.41063   0.57859   0.04417   0.00000  Uiso   1.00
O481   O     0.35710   0.53456   0.21100   0.00000  Uiso   1.00
O482   O     0.41847   0.58006   0.40281   0.00000  Uiso   1.00
O483   O     0.53140   0.49704   0.39836   0.00000  Uiso   1.00
O484   O     0.51182   0.41434   0.27821   0.00000  Uiso   1.00
O485   O     0.47914   0.59469   0.26767   0.00000  Uiso   1.00
O486   O     0.40785   0.46584   0.23607   0.00000  Uiso   1.00
O487   O     0.60119   0.52512   0.21806   0.00000  Uiso   1.00
O488   O     0.40323   0.52293   0.27820   0.00000  Uiso   1.00
O489   O     0.58773   0.48610   0.26768   0.00000  Uiso   1.00
O490   O     0.47133   0.40236   0.23607   0.00000  Uiso   1.00
O491   O     0.53771   0.58860   0.21805   0.00000  Uiso   1.00
Zn492  Zn    0.52577   0.47423   0.28278   0.00000  Uiso   1.00
Zn493  Zn    0.46792   0.45711   0.22258   0.00000  Uiso   1.00
Zn494  Zn    0.54500   0.52997   0.21188   0.00000  Uiso   1.00
Zn495  Zn    0.46131   0.53868   0.28277   0.00000  Uiso   1.00
C496   C     0.71905   0.49292   0.25905   0.00000  Uiso   1.00
C497   C     0.84970   0.45482   0.46371   0.00000  Uiso   1.00
C498   C     0.86855   0.43312   0.48363   0.00000  Uiso   1.00
C499   C     0.94771   0.50737   0.24145   0.00000  Uiso   1.00
C500   C     0.86705   0.44603   0.02278   0.00000  Uiso   1.00
C501   C     0.84441   0.48044   0.04312   0.00000  Uiso   1.00
C502   C     0.88677   0.42384   0.04224   0.00000  Uiso   1.00
C503   C     0.88386   0.43505   0.08187   0.00000  Uiso   1.00
C504   C     0.84364   0.49223   0.08280   0.00000  Uiso   1.00
C505   C     0.99387   0.51174   0.23885   0.00000  Uiso   1.00
C506   C     0.67381   0.49066   0.26172   0.00000  Uiso   1.00
C507   C     0.77324   0.55914   0.42105   0.00000  Uiso   1.00
C508   C     0.84655   0.65528   0.23805   0.00000  Uiso   1.00
C509   C     0.81766   0.34577   0.26246   0.00000  Uiso   1.00
C510   C     0.82265   0.38952   0.25876   0.00000  Uiso   1.00
C511   C     0.84329   0.61096   0.24137   0.00000  Uiso   1.00
C512   C     0.85491   0.47830   0.14412   0.00000  Uiso   1.00
C513   C     0.81274   0.52194   0.35618   0.00000  Uiso   1.00
C514   C     0.80399   0.53179   0.39941   0.00000  Uiso   1.00
C515   C     0.86246   0.46929   0.10194   0.00000  Uiso   1.00
C516   C     0.76304   0.56464   0.46194   0.00000  Uiso   1.00
C517   C     0.70507   0.55779   0.06654   0.00000  Uiso   1.00
C518   C     0.82685   0.51366   0.41950   0.00000  Uiso   1.00
C519   C     0.67265   0.54505   0.04205   0.00000  Uiso   1.00
C520   C     0.96252   0.52588   0.06653   0.00000  Uiso   1.00
C521   C     0.69062   0.57750   0.22483   0.00000  Uiso   1.00
C522   C     0.72947   0.60177   0.19838   0.00000  Uiso   1.00
C523   C     0.73053   0.64874   0.21083   0.00000  Uiso   1.00
C524   C     0.77731   0.61776   0.39109   0.00000  Uiso   1.00
C525   C     0.76377   0.65465   0.42214   0.00000  Uiso   1.00
C526   C     0.78725   0.36277   0.40785   0.00000  Uiso   1.00
C527   C     0.90003   0.52833   0.39803   0.00000  Uiso   1.00
C528   C     0.94191   0.50980   0.37529   0.00000  Uiso   1.00
C529   C     0.81280   0.51516   0.46106   0.00000  Uiso   1.00
C530   C     0.98146   0.54230   0.37292   0.00000  Uiso   1.00
C531   C     0.78246   0.54320   0.48223   0.00000  Uiso   1.00
C532   C     0.82931   0.49081   0.48210   0.00000  Uiso   1.00
C533   C     0.82313   0.50138   0.02316   0.00000  Uiso   1.00
C534   C     0.79445   0.53113   0.04310   0.00000  Uiso   1.00
C535   C     0.77220   0.54984   0.02340   0.00000  Uiso   1.00
F536   F     0.78409   0.66390   0.29169   0.00000  Uiso   1.00
H537   H     0.90360   0.39725   0.02699   0.00000  Uiso   1.00
H538   H     0.69086   0.58014   0.09207   0.00000  Uiso   1.00
H539   H     0.71008   0.53012   0.07901   0.00000  Uiso   1.00
H540   H     0.66753   0.57300   0.03026   0.00000  Uiso   1.00
H541   H     0.68581   0.52182   0.01691   0.00000  Uiso   1.00
H542   H     0.96668   0.49745   0.07816   0.00000  Uiso   1.00
H543   H     0.94005   0.51697   0.04778   0.00000  Uiso   1.00
H544   H     0.94802   0.54875   0.09143   0.00000  Uiso   1.00
H545   H     0.69357   0.58362   0.25553   0.00000  Uiso   1.00
H546   H     0.99370   0.58891   0.22387   0.00000  Uiso   1.00
H547   H     0.75986   0.59120   0.19990   0.00000  Uiso   1.00
H548   H     0.98479   0.47059   0.28217   0.00000  Uiso   1.00
H549   H     0.72778   0.59534   0.16744   0.00000  Uiso   1.00
H550   H     0.70128   0.66030   0.20790   0.00000  Uiso   1.00
H551   H     0.75972   0.66530   0.19174   0.00000  Uiso   1.00
H552   H     0.73183   0.65591   0.24179   0.00000  Uiso   1.00
H553   H     0.77136   0.62340   0.36335   0.00000  Uiso   1.00
H554   H     0.81294   0.61634   0.38428   0.00000  Uiso   1.00
H555   H     0.72824   0.65548   0.42894   0.00000  Uiso   1.00
H556   H     0.77157   0.65080   0.44953   0.00000  Uiso   1.00
H557   H     0.82285   0.36290   0.40157   0.00000  Uiso   1.00
H558   H     0.77679   0.38883   0.43096   0.00000  Uiso   1.00
H559   H     0.87313   0.33554   0.21533   0.00000  Uiso   1.00
H560   H     0.77949   0.36797   0.38081   0.00000  Uiso   1.00
H561   H     0.90183   0.53976   0.42853   0.00000  Uiso   1.00
H562   H     0.89699   0.55512   0.38327   0.00000  Uiso   1.00
H563   H     0.94551   0.48333   0.39000   0.00000  Uiso   1.00
H564   H     0.94012   0.49765   0.34507   0.00000  Uiso   1.00
H565   H     0.97920   0.56842   0.35714   0.00000  Uiso   1.00
H566   H     0.67792   0.52759   0.35665   0.00000  Uiso   1.00
H567   H     0.98399   0.55482   0.40288   0.00000  Uiso   1.00
H568   H     0.82839   0.51879   0.09988   0.00000  Uiso   1.00
H569   H     0.89791   0.41687   0.09699   0.00000  Uiso   1.00
H570   H     0.88413   0.40582   0.46831   0.00000  Uiso   1.00
H571   H     0.73938   0.58572   0.47775   0.00000  Uiso   1.00
H572   H     0.78679   0.53926   0.07444   0.00000  Uiso   1.00
H573   H     0.84962   0.44150   0.43427   0.00000  Uiso   1.00
O574   O     0.83333   0.50000   0.25000   0.00000  Uiso   1.00
O575   O     0.82360   0.45726   0.16625   0.00000  Uiso   1.00
O576   O     0.79354   0.53979   0.33749   0.00000  Uiso   1.00
O577   O     0.87755   0.50826   0.15877   0.00000  Uiso   1.00
O578   O     0.83865   0.49468   0.33749   0.00000  Uiso   1.00
O579   O     0.74397   0.57859   0.04417   0.00000  Uiso   1.00
O580   O     0.69044   0.53456   0.21100   0.00000  Uiso   1.00
O581   O     0.75181   0.58006   0.40281   0.00000  Uiso   1.00
O582   O     0.86474   0.49704   0.39836   0.00000  Uiso   1.00
O583   O     0.84515   0.41434   0.27821   0.00000  Uiso   1.00
O584   O     0.81247   0.59469   0.26767   0.00000  Uiso   1.00
O585   O     0.74119   0.46584   0.23607   0.00000  Uiso   1.00
O586   O     0.93452   0.52512   0.21806   0.00000  Uiso   1.00
O587   O     0.73656   0.52293   0.27820   0.00000  Uiso   1.00
O588   O     0.92106   0.48610   0.26768   0.00000  Uiso   1.00
O589   O     0.80467   0.40236   0.23607   0.00000  Uiso   1.00
O590   O     0.87104   0.58860   0.21805   0.00000  Uiso   1.00
Zn591  Zn    0.85910   0.47423   0.28278   0.00000  Uiso   1.00
Zn592  Zn    0.80125   0.45711   0.22258   0.00000  Uiso   1.00
Zn593  Zn    0.87833   0.52997   0.21188   0.00000  Uiso   1.00
Zn594  Zn    0.79465   0.53868   0.28277   0.00000  Uiso   1.00
C595   C     0.05238   0.82626   0.25905   0.00000  Uiso   1.00
C596   C     0.18304   0.78815   0.46371   0.00000  Uiso   1.00
C597   C     0.20189   0.76645   0.48363   0.00000  Uiso   1.00
C598   C     0.28104   0.84071   0.24145   0.00000  Uiso   1.00
C599   C     0.20039   0.77936   0.02278   0.00000  Uiso   1.00
C600   C     0.17774   0.81378   0.04312   0.00000  Uiso   1.00
C601   C     0.22010   0.75717   0.04224   0.00000  Uiso   1.00
C602   C     0.21719   0.76839   0.08187   0.00000  Uiso   1.00
C603   C     0.17698   0.82556   0.08280   0.00000  Uiso   1.00
C604   C     0.32720   0.84508   0.23885   0.00000  Uiso   1.00
C605   C     0.00714   0.82399   0.26172   0.00000  Uiso   1.00
C606   C     0.10657   0.89247   0.42105   0.00000  Uiso   1.00
C607   C     0.17988   0.98861   0.23805   0.00000  Uiso   1.00
C608   C     0.15099   0.67910   0.26246   0.00000  Uiso   1.00
C609   C     0.15598   0.72285   0.25876   0.00000  Uiso   1.00
C610   C     0.17662   0.94430   0.24137   0.00000  Uiso   1.00
C611   C     0.18824   0.81164   0.14412   0.00000  Uiso   1.00
C612   C     0.14607   0.85528   0.35618   0.00000  Uiso   1.00
C613   C     0.13732   0.86512   0.39941   0.00000  Uiso   1.00
C614   C     0.19579   0.80262   0.10194   0.00000  Uiso   1.00
C615   C     0.09638   0.89798   0.46194   0.00000  Uiso   1.00
C616   C     0.03840   0.89112   0.06654   0.00000  Uiso   1.00
C617   C     0.16018   0.84700   0.41950   0.00000  Uiso   1.00
C618   C     0.00599   0.87838   0.04205   0.00000  Uiso   1.00
C619   C     0.29585   0.85921   0.06653   0.00000  Uiso   1.00
C620   C     0.02395   0.91084   0.22483   0.00000  Uiso   1.00
C621   C     0.06280   0.93510   0.19838   0.00000  Uiso   1.00
C622   C     0.06386   0.98207   0.21083   0.00000  Uiso   1.00
C623   C     0.11065   0.95109   0.39109   0.00000  Uiso   1.00
C624   C     0.09710   0.98799   0.42214   0.00000  Uiso   1.00
C625   C     0.12059   0.69611   0.40785   0.00000  Uiso   1.00
C626   C     0.23336   0.86166   0.39803   0.00000  Uiso   1.00
C627   C     0.27524   0.84314   0.37529   0.00000  Uiso   1.00
C628   C     0.14613   0.84850   0.46106   0.00000  Uiso   1.00
C629   C     0.31480   0.87564   0.37292   0.00000  Uiso   1.00
C630   C     0.11579   0.87654   0.48223   0.00000  Uiso   1.00
C631   C     0.16265   0.82414   0.48210   0.00000  Uiso   1.00
C632   C     0.15647   0.83472   0.02316   0.00000  Uiso   1.00
C633   C     0.12778   0.86446   0.04310   0.00000  Uiso   1.00
C634   C     0.10553   0.88318   0.02340   0.00000  Uiso   1.00
F635   F     0.11742   0.99724   0.29169   0.00000  Uiso   1.00
H636   H     0.23694   0.73059   0.02699   0.00000  Uiso   1.00
H637   H     0.02419   0.91347   0.09207   0.00000  Uiso   1.00
H638   H     0.04341   0.86345   0.07901   0.00000  Uiso   1.00
H639   H     0.00086   0.90633   0.03026   0.00000  Uiso   1.00
H640   H     0.01914   0.85515   0.01691   0.00000  Uiso   1.00
H641   H     0.30002   0.83079   0.07816   0.00000  Uiso   1.00
H642   H     0.27338   0.85030   0.04778   0.00000  Uiso   1.00
H643   H     0.28136   0.88208   0.09143   0.00000  Uiso   1.00
H644   H     0.02691   0.91695   0.25553   0.00000  Uiso   1.00
H645   H     0.32703   0.92225   0.22387   0.00000  Uiso   1.00
H646   H     0.09320   0.92453   0.19990   0.00000  Uiso   1.00
H647   H     0.31812   0.80393   0.28217   0.00000  Uiso   1.00
H648   H     0.06111   0.92867   0.16744   0.00000  Uiso   1.00
H649   H     0.03461   0.99363   0.20790   0.00000  Uiso   1.00
H650   H     0.09305   0.99864   0.19174   0.00000  Uiso   1.00
H651   H     0.06516   0.98924   0.24179   0.00000  Uiso   1.00
H652   H     0.10469   0.95673   0.36335   0.00000  Uiso   1.00
H653   H     0.14628   0.94968   0.38428   0.00000  Uiso   1.00
H654   H     0.06157   0.98882   0.42894   0.00000  Uiso   1.00
H655   H     0.10491   0.98413   0.44953   0.00000  Uiso   1.00
H656   H     0.15618   0.69624   0.40157   0.00000  Uiso   1.00
H657   H     0.11012   0.72216   0.43096   0.00000  Uiso   1.00
H658   H     0.20646   0.66888   0.21533   0.00000  Uiso   1.00
H659   H     0.11282   0.70130   0.38081   0.00000  Uiso   1.00
H660   H     0.23516   0.87309   0.42853   0.00000  Uiso   1.00
H661   H     0.23032   0.88845   0.38327   0.00000  Uiso   1.00
H662   H     0.27884   0.81666   0.39000   0.00000  Uiso   1.00
H663   H     0.27346   0.83099   0.34507   0.00000  Uiso   1.00
H664   H     0.31253   0.90175   0.35714   0.00000  Uiso   1.00
H665   H     0.01125   0.86092   0.35665   0.00000  Uiso   1.00
H666   H     0.31732   0.88815   0.40288   0.00000  Uiso   1.00
H667   H     0.16172   0.85212   0.09988   0.00000  Uiso   1.00
H668   H     0.23124   0.75021   0.09699   0.00000  Uiso   1.00
H669   H     0.21746   0.73915   0.46831   0.00000  Uiso   1.00
H670   H     0.07271   0.91906   0.47775   0.00000  Uiso   1.00
H671   H     0.12012   0.87260   0.07444   0.00000  Uiso   1.00
H672   H     0.18296   0.77484   0.43427   0.00000  Uiso   1.00
O673   O     0.16667   0.83333   0.25000   0.00000  Uiso   1.00
O674   O     0.15693   0.79060   0.16625   0.00000  Uiso   1.00
O675   O     0.12687   0.87313   0.33749   0.00000  Uiso   1.00
O676   O     0.21088   0.84159   0.15877   0.00000  Uiso   1.00
O677   O     0.17198   0.82802   0.33749   0.00000  Uiso   1.00
O678   O     0.07730   0.91192   0.04417   0.00000  Uiso   1.00
O679   O     0.02377   0.86789   0.21100   0.00000  Uiso   1.00
O680   O     0.08514   0.91339   0.40281   0.00000  Uiso   1.00
O681   O     0.19807   0.83037   0.39836   0.00000  Uiso   1.00
O682   O     0.17849   0.74768   0.27821   0.00000  Uiso   1.00
O683   O     0.14581   0.92803   0.26767   0.00000  Uiso   1.00
O684   O     0.07452   0.79917   0.23607   0.00000  Uiso   1.00
O685   O     0.26785   0.85845   0.21806   0.00000  Uiso   1.00
O686   O     0.06990   0.85627   0.27820   0.00000  Uiso   1.00
O687   O     0.25440   0.81944   0.26768   0.00000  Uiso   1.00
O688   O     0.13800   0.73570   0.23607   0.00000  Uiso   1.00
O689   O     0.20437   0.92193   0.21805   0.00000  Uiso   1.00
Zn690  Zn    0.19244   0.80756   0.28278   0.00000  Uiso   1.00
Zn691  Zn    0.13459   0.79044   0.22258   0.00000  Uiso   1.00
Zn692  Zn    0.21166   0.86331   0.21188   0.00000  Uiso   1.00
Zn693  Zn    0.12798   0.87202   0.28277   0.00000  Uiso   1.00
C694   C     0.38572   0.82626   0.25905   0.00000  Uiso   1.00
C695   C     0.51637   0.78815   0.46371   0.00000  Uiso   1.00
C696   C     0.53522   0.76645   0.48363   0.00000  Uiso   1.00
C697   C     0.61438   0.84071   0.24145   0.00000  Uiso   1.00
C698   C     0.53372   0.77936   0.02278   0.00000  Uiso   1.00
C699   C     0.51108   0.81378   0.04312   0.00000  Uiso   1.00
C700   C     0.55343   0.75717   0.04224   0.00000  Uiso   1.00
C701   C     0.55052   0.76839   0.08187   0.00000  Uiso   1.00
C702   C     0.51031   0.82556   0.08280   0.00000  Uiso   1.00
C703   C     0.66053   0.84508   0.23885   0.00000  Uiso   1.00
C704   C     0.34048   0.82399   0.26172   0.00000  Uiso   1.00
C705   C     0.43991   0.89247   0.42105   0.00000  Uiso   1.00
C706   C     0.51322   0.98861   0.23805   0.00000  Uiso   1.00
C707   C     0.48433   0.67910   0.26246   0.00000  Uiso   1.00
C708   C     0.48931   0.72285   0.25876   0.00000  Uiso   1.00
C709   C     0.50996   0.94430   0.24137   0.00000  Uiso   1.00
C710   C     0.52158   0.81164   0.14412   0.00000  Uiso   1.00
C711   C     0.47941   0.85528   0.35618   0.00000  Uiso   1.00
C712   C     0.47066   0.86512   0.39941   0.00000  Uiso   1.00
C713   C     0.52912   0.80262   0.10194   0.00000  Uiso   1.00
C714   C     0.42971   0.89798   0.46194   0.00000  Uiso   1.00
C715   C     0.37173   0.89112   0.06654   0.00000  Uiso   1.00
C716   C     0.49351   0.84700   0.41950   0.00000  Uiso   1.00
C717   C     0.33932   0.87838   0.04205   0.00000  Uiso   1.00
C718   C     0.62919   0.85921   0.06653   0.00000  Uiso   1.00
C719   C     0.35728   0.91084   0.22483   0.00000  Uiso   1.00
C720   C     0.39613   0.93510   0.19838   0.00000  Uiso   1.00
C721   C     0.39719   0.98207   0.21083   0.00000  Uiso   1.00
C722   C     0.44398   0.95109   0.39109   0.00000  Uiso   1.00
C723   C     0.43044   0.98799   0.42214   0.00000  Uiso   1.00
C724   C     0.45392   0.69611   0.40785   0.00000  Uiso   1.00
C725   C     0.56670   0.86166   0.39803   0.00000  Uiso   1.00
C726   C     0.60858   0.84314   0.37529   0.00000  Uiso   1.00
C727   C     0.47946   0.84850   0.46106   0.00000  Uiso   1.00
C728   C     0.64813   0.87564   0.37292   0.00000  Uiso   1.00
C729   C     0.44913   0.87654   0.48223   0.00000  Uiso   1.00
C730   C     0.49598   0.82414   0.48210   0.00000  Uiso   1.00
C731   C     0.48980   0.83472   0.02316   0.00000  Uiso   1.00
C732   C     0.46111   0.86446   0.04310   0.00000  Uiso   1.00
C733   C     0.43886   0.88318   0.02340   0.00000  Uiso   1.00
F734   F     0.45075   0.99724   0.29169   0.00000  Uiso   1.00
H735   H     0.57027   0.73059   0.02699   0.00000  Uiso   1.00
H736   H     0.35752   0.91347   0.09207   0.00000  Uiso   1.00
H737   H     0.37675   0.86345   0.07901   0.00000  Uiso   1.00
H738   H     0.33419   0.90633   0.03026   0.00000  Uiso   1.00
H739   H     0.35247   0.85515   0.01691   0.00000  Uiso   1.00
H740   H     0.63335   0.83079   0.07816   0.00000  Uiso   1.00
H741   H     0.60671   0.85030   0.04778   0.00000  Uiso   1.00
H742   H     0.61469   0.88208   0.09143   0.00000  Uiso   1.00
H743   H     0.36024   0.91695   0.25553   0.00000  Uiso   1.00
H744   H     0.66037   0.92225   0.22387   0.00000  Uiso   1.00
H745   H     0.42653   0.92453   0.19990   0.00000  Uiso   1.00
H746   H     0.65146   0.80393   0.28217   0.00000  Uiso   1.00
H747   H     0.39444   0.92867   0.16744   0.00000  Uiso   1.00
H748   H     0.36794   0.99363   0.20790   0.00000  Uiso   1.00
H749   H     0.42638   0.99864   0.19174   0.00000  Uiso   1.00
H750   H     0.39849   0.98924   0.24179   0.00000  Uiso   1.00
H751   H     0.43802   0.95673   0.36335   0.00000  Uiso   1.00
H752   H     0.47961   0.94968   0.38428   0.00000  Uiso   1.00
H753   H     0.39491   0.98882   0.42894   0.00000  Uiso   1.00
H754   H     0.43824   0.98413   0.44953   0.00000  Uiso   1.00
H755   H     0.48951   0.69624   0.40157   0.00000  Uiso   1.00
H756   H     0.44345   0.72216   0.43096   0.00000  Uiso   1.00
H757   H     0.53979   0.66888   0.21533   0.00000  Uiso   1.00
H758   H     0.44615   0.70130   0.38081   0.00000  Uiso   1.00
H759   H     0.56850   0.87309   0.42853   0.00000  Uiso   1.00
H760   H     0.56366   0.88845   0.38327   0.00000  Uiso   1.00
H761   H     0.61217   0.81666   0.39000   0.00000  Uiso   1.00
H762   H     0.60679   0.83099   0.34507   0.00000  Uiso   1.00
H763   H     0.64586   0.90175   0.35714   0.00000  Uiso   1.00
H764   H     0.34459   0.86092   0.35665   0.00000  Uiso   1.00
H765   H     0.65065   0.88815   0.40288   0.00000  Uiso   1.00
H766   H     0.49506   0.85212   0.09988   0.00000  Uiso   1.00
H767   H     0.56458   0.75021   0.09699   0.00000  Uiso   1.00
H768   H     0.55080   0.73915   0.46831   0.00000  Uiso   1.00
H769   H     0.40604   0.91906   0.47775   0.00000  Uiso   1.00
H770   H     0.45345   0.87260   0.07444   0.00000  Uiso   1.00
H771   H     0.51629   0.77484   0.43427   0.00000  Uiso   1.00
O772   O     0.50000   0.83333   0.25000   0.00000  Uiso   1.00
O773   O     0.49027   0.79060   0.16625   0.00000  Uiso   1.00
O774   O     0.46020   0.87313   0.33749   0.00000  Uiso   1.00
O775   O     0.54421   0.84159   0.15877   0.00000  Uiso   1.00
O776   O     0.50532   0.82802   0.33749   0.00000  Uiso   1.00
O777   O     0.41063   0.91192   0.04417   0.00000  Uiso   1.00
O778   O     0.35710   0.86789   0.21100   0.00000  Uiso   1.00
O779   O     0.41847   0.91339   0.40281   0.00000  Uiso   1.00
O780   O     0.53140   0.83037   0.39836   0.00000  Uiso   1.00
O781   O     0.51182   0.74768   0.27821   0.00000  Uiso   1.00
O782   O     0.47914   0.92803   0.26767   0.00000  Uiso   1.00
O783   O     0.40785   0.79917   0.23607   0.00000  Uiso   1.00
O784   O     0.60119   0.85845   0.21806   0.00000  Uiso   1.00
O785   O     0.40323   0.85627   0.27820   0.00000  Uiso   1.00
O786   O     0.58773   0.81944   0.26768   0.00000  Uiso   1.00
O787   O     0.47133   0.73570   0.23607   0.00000  Uiso   1.00
O788   O     0.53771   0.92193   0.21805   0.00000  Uiso   1.00
Zn789  Zn    0.52577   0.80756   0.28278   0.00000  Uiso   1.00
Zn790  Zn    0.46792   0.79044   0.22258   0.00000  Uiso   1.00
Zn791  Zn    0.54500   0.86331   0.21188   0.00000  Uiso   1.00
Zn792  Zn    0.46131   0.87202   0.28277   0.00000  Uiso   1.00
C793   C     0.71905   0.82626   0.25905   0.00000  Uiso   1.00
C794   C     0.84970   0.78815   0.46371   0.00000  Uiso   1.00
C795   C     0.86855   0.76645   0.48363   0.00000  Uiso   1.00
C796   C     0.94771   0.84071   0.24145   0.00000  Uiso   1.00
C797   C     0.86705   0.77936   0.02278   0.00000  Uiso   1.00
C798   C     0.84441   0.81378   0.04312   0.00000  Uiso   1.00
C799   C     0.88677   0.75717   0.04224   0.00000  Uiso   1.00
C800   C     0.88386   0.76839   0.08187   0.00000  Uiso   1.00
C801   C     0.84364   0.82556   0.08280   0.00000  Uiso   1.00
C802   C     0.99387   0.84508   0.23885   0.00000  Uiso   1.00
C803   C     0.67381   0.82399   0.26172   0.00000  Uiso   1.00
C804   C     0.77324   0.89247   0.42105   0.00000  Uiso   1.00
C805   C     0.84655   0.98861   0.23805   0.00000  Uiso   1.00
C806   C     0.81766   0.67910   0.26246   0.00000  Uiso   1.00
C807   C     0.82265   0.72285   0.25876   0.00000  Uiso   1.00
C808   C     0.84329   0.94430   0.24137   0.00000  Uiso   1.00
C809   C     0.85491   0.81164   0.14412   0.00000  Uiso   1.00
C810   C     0.81274   0.85528   0.35618   0.00000  Uiso   1.00
C811   C     0.80399   0.86512   0.39941   0.00000  Uiso   1.00
C812   C     0.86246   0.80262   0.10194   0.00000  Uiso   1.00
C813   C     0.76304   0.89798   0.46194   0.00000  Uiso   1.00
C814   C     0.70507   0.89112   0.06654   0.00000  Uiso   1.00
C815   C     0.82685   0.84700   0.41950   0.00000  Uiso   1.00
C816   C     0.67265   0.87838   0.04205   0.00000  Uiso   1.00
C817   C     0.96252   0.85921   0.06653   0.00000  Uiso   1.00
C818   C     0.69062   0.91084   0.22483   0.00000  Uiso   1.00
C819   C     0.72947   0.93510   0.19838   0.00000  Uiso   1.00
C820   C     0.73053   0.98207   0.21083   0.00000  Uiso   1.00
C821   C     0.77731   0.95109   0.39109   0.00000  Uiso   1.00
C822   C     0.76377   0.98799   0.42214   0.00000  Uiso   1.00
C823   C     0.78725   0.69611   0.40785   0.00000  Uiso   1.00
C824   C     0.90003   0.86166   0.39803   0.00000  Uiso   1.00
C825   C     0.94191   0.84314   0.37529   0.00000  Uiso   1.00
C826   C     0.81280   0.84850   0.46106   0.00000  Uiso   1.00
C827   C     0.98146   0.87564   0.37292   0.00000  Uiso   1.00
C828   C     0.78246   0.87654   0.48223   0.00000  Uiso   1.00
C829   C     0.82931   0.82414   0.48210   0.00000  Uiso   1.00
C830   C     0.82313   0.83472   0.02316   0.00000  Uiso   1.00
C831   C     0.79445   0.86446   0.04310   0.00000  Uiso   1.00
C832   C     0.77220   0.88318   0.02340   0.00000  Uiso   1.00
F833   F     0.78409   0.99724   0.29169   0.00000  Uiso   1.00
H834   H     0.90360   0.73059   0.02699   0.00000  Uiso   1.00
H835   H     0.69086   0.91347   0.09207   0.00000  Uiso   1.00
H836   H     0.71008   0.86345   0.07901   0.00000  Uiso   1.00
H837   H     0.66753   0.90633   0.03026   0.00000  Uiso   1.00
H838   H     0.68581   0.85515   0.01691   0.00000  Uiso   1.00
H839   H     0.96668   0.83079   0.07816   0.00000  Uiso   1.00
H840   H     0.94005   0.85030   0.04778   0.00000  Uiso   1.00
H841   H     0.94802   0.88208   0.09143   0.00000  Uiso   1.00
H842   H     0.69357   0.91695   0.25553   0.00000  Uiso   1.00
H843   H     0.99370   0.92225   0.22387   0.00000  Uiso   1.00
H844   H     0.75986   0.92453   0.19990   0.00000  Uiso   1.00
H845   H     0.98479   0.80393   0.28217   0.00000  Uiso   1.00
H846   H     0.72778   0.92867   0.16744   0.00000  Uiso   1.00
H847   H     0.70128   0.99363   0.20790   0.00000  Uiso   1.00
H848   H     0.75972   0.99864   0.19174   0.00000  Uiso   1.00
H849   H     0.73183   0.98924   0.24179   0.00000  Uiso   1.00
H850   H     0.77136   0.95673   0.36335   0.00000  Uiso   1.00
H851   H     0.81294   0.94968   0.38428   0.00000  Uiso   1.00
H852   H     0.72824   0.98882   0.42894   0.00000  Uiso   1.00
H853   H     0.77157   0.98413   0.44953   0.00000  Uiso   1.00
H854   H     0.82285   0.69624   0.40157   0.00000  Uiso   1.00
H855   H     0.77679   0.72216   0.43096   0.00000  Uiso   1.00
H856   H     0.87313   0.66888   0.21533   0.00000  Uiso   1.00
H857   H     0.77949   0.70130   0.38081   0.00000  Uiso   1.00
H858   H     0.90183   0.87309   0.42853   0.00000  Uiso   1.00
H859   H     0.89699   0.88845   0.38327   0.00000  Uiso   1.00
H860   H     0.94551   0.81666   0.39000   0.00000  Uiso   1.00
H861   H     0.94012   0.83099   0.34507   0.00000  Uiso   1.00
H862   H     0.97920   0.90175   0.35714   0.00000  Uiso   1.00
H863   H     0.67792   0.86092   0.35665   0.00000  Uiso   1.00
H864   H     0.98399   0.88815   0.40288   0.00000  Uiso   1.00
H865   H     0.82839   0.85212   0.09988   0.00000  Uiso   1.00
H866   H     0.89791   0.75021   0.09699   0.00000  Uiso   1.00
H867   H     0.88413   0.73915   0.46831   0.00000  Uiso   1.00
H868   H     0.73938   0.91906   0.47775   0.00000  Uiso   1.00
H869   H     0.78679   0.87260   0.07444   0.00000  Uiso   1.00
H870   H     0.84962   0.77484   0.43427   0.00000  Uiso   1.00
O871   O     0.83333   0.83333   0.25000   0.00000  Uiso   1.00
O872   O     0.82360   0.79060   0.16625   0.00000  Uiso   1.00
O873   O     0.79354   0.87313   0.33749   0.00000  Uiso   1.00
O874   O     0.87755   0.84159   0.15877   0.00000  Uiso   1.00
O875   O     0.83865   0.82802   0.33749   0.00000  Uiso   1.00
O876   O     0.74397   0.91192   0.04417   0.00000  Uiso   1.00
O877   O     0.69044   0.86789   0.21100   0.00000  Uiso   1.00
O878   O     0.75181   0.91339   0.40281   0.00000  Uiso   1.00
O879   O     0.86474   0.83037   0.39836   0.00000  Uiso   1.00
O880   O     0.84515   0.74768   0.27821   0.00000  Uiso   1.00
O881   O     0.81247   0.92803   0.26767   0.00000  Uiso   1.00
O882   O     0.74119   0.79917   0.23607   0.00000  Uiso   1.00
O883   O     0.93452   0.85845   0.21806   0.00000  Uiso   1.00
O884   O     0.73656   0.85627   0.27820   0.00000  Uiso   1.00
O885   O     0.92106   0.81944   0.26768   0.00000  Uiso   1.00
O886   O     0.80467   0.73570   0.23607   0.00000  Uiso   1.00
O887   O     0.87104   0.92193   0.21805   0.00000  Uiso   1.00
Zn888  Zn    0.85910   0.80756   0.28278   0.00000  Uiso   1.00
Zn889  Zn    0.80125   0.79044   0.22258   0.00000  Uiso   1.00
Zn890  Zn    0.87833   0.86331   0.21188   0.00000  Uiso   1.00
Zn891  Zn    0.79465   0.87202   0.28277   0.00000  Uiso   1.00
C892   C     0.05238   0.15959   0.75905   0.00000  Uiso   1.00
C893   C     0.18304   0.12148   0.96371   0.00000  Uiso   1.00
C894   C     0.20189   0.09979   0.98363   0.00000  Uiso   1.00
C895   C     0.28104   0.17404   0.74145   0.00000  Uiso   1.00
C896   C     0.20039   0.11269   0.52278   0.00000  Uiso   1.00
C897   C     0.17774   0.14711   0.54312   0.00000  Uiso   1.00
C898   C     0.22010   0.09051   0.54224   0.00000  Uiso   1.00
C899   C     0.21719   0.10172   0.58187   0.00000  Uiso   1.00
C900   C     0.17698   0.15890   0.58280   0.00000  Uiso   1.00
C901   C     0.32720   0.17841   0.73885   0.00000  Uiso   1.00
C902   C     0.00714   0.15732   0.76172   0.00000  Uiso   1.00
C903   C     0.10657   0.22581   0.92105   0.00000  Uiso   1.00
C904   C     0.17988   0.32195   0.73805   0.00000  Uiso   1.00
C905   C     0.15099   0.01243   0.76246   0.00000  Uiso   1.00
C906   C     0.15598   0.05619   0.75876   0.00000  Uiso   1.00
C907   C     0.17662   0.27763   0.74137   0.00000  Uiso   1.00
C908   C     0.18824   0.14497   0.64412   0.00000  Uiso   1.00
C909   C     0.14607   0.18861   0.85618   0.00000  Uiso   1.00
C910   C     0.13732   0.19846   0.89941   0.00000  Uiso   1.00
C911   C     0.19579   0.13595   0.60194   0.00000  Uiso   1.00
C912   C     0.09638   0.23131   0.96194   0.00000  Uiso   1.00
C913   C     0.03840   0.22446   0.56654   0.00000  Uiso   1.00
C914   C     0.16018   0.18033   0.91950   0.00000  Uiso   1.00
C915   C     0.00599   0.21172   0.54205   0.00000  Uiso   1.00
C916   C     0.29585   0.19254   0.56653   0.00000  Uiso   1.00
C917   C     0.02395   0.24417   0.72483   0.00000  Uiso   1.00
C918   C     0.06280   0.26844   0.69838   0.00000  Uiso   1.00
C919   C     0.06386   0.31540   0.71083   0.00000  Uiso   1.00
C920   C     0.11065   0.28443   0.89109   0.00000  Uiso   1.00
C921   C     0.09710   0.32132   0.92214   0.00000  Uiso   1.00
C922   C     0.12059   0.02944   0.90785   0.00000  Uiso   1.00
C923   C     0.23336   0.19500   0.89803   0.00000  Uiso   1.00
C924   C     0.27524   0.17647   0.87529   0.00000  Uiso   1.00
C925   C     0.14613   0.18183   0.96106   0.00000  Uiso   1.00
C926   C     0.31480   0.20897   0.87292   0.00000  Uiso   1.00
C927   C     0.11579   0.20987   0.98223   0.00000  Uiso   1.00
C928   C     0.16265   0.15748   0.98210   0.00000  Uiso   1.00
C929   C     0.15647   0.16805   0.52316   0.00000  Uiso   1.00
C930   C     0.12778   0.19780   0.54310   0.00000  Uiso   1.00
C931   C     0.10553   0.21651   0.52340   0.00000  Uiso   1.00
F932   F     0.11742   0.33057   0.79169   0.00000  Uiso   1.00
H933   H     0.23694   0.06392   0.52699   0.00000  Uiso   1.00
H934   H     0.02419   0.24680   0.59207   0.00000  Uiso   1.00
H935   H     0.04341   0.19678   0.57901   0.00000  Uiso   1.00
H936   H     0.00086   0.23966   0.53026   0.00000  Uiso   1.00
H937   H     0.01914   0.18848   0.51691   0.00000  Uiso   1.00
H938   H     0.30002   0.16412   0.57816   0.00000  Uiso   1.00
H939   H     0.27338   0.18363   0.54778   0.00000  Uiso   1.00
H940   H     0.28136   0.21541   0.59143   0.00000  Uiso   1.00
H941   H     0.02691   0.25029   0.75553   0.00000  Uiso   1.00
H942   H     0.32703   0.25558   0.72387   0.00000  Uiso   1.00
H943   H     0.09320   0.25786   0.69990   0.00000  Uiso   1.00
H944   H     0.31812   0.13726   0.78217   0.00000  Uiso   1.00
H945   H     0.06111   0.26201   0.66744   0.00000  Uiso   1.00
H946   H     0.03461   0.32696   0.70790   0.00000  Uiso   1.00
H947   H     0.09305   0.33197   0.69174   0.00000  Uiso   1.00
H948   H     0.06516   0.32257   0.74179   0.00000  Uiso   1.00
H949   H     0.10469   0.29007   0.86335   0.00000  Uiso   1.00
H950   H     0.14628   0.28301   0.88428   0.00000  Uiso   1.00
H951   H     0.06157   0.32215   0.92894   0.00000  Uiso   1.00
H952   H     0.10491   0.31747   0.94953   0.00000  Uiso   1.00
H953   H     0.15618   0.02957   0.90157   0.00000  Uiso   1.00
H954   H     0.11012   0.05549   0.93096   0.00000  Uiso   1.00
H955   H     0.20646   0.00221   0.71533   0.00000  Uiso   1.00
H956   H     0.11282   0.03464   0.88081   0.00000  Uiso   1.00
H957   H     0.23516   0.20643   0.92853   0.00000  Uiso   1.00
H958   H     0.23032   0.22179   0.88327   0.00000  Uiso   1.00
H959   H     0.27884   0.14999   0.89000   0.00000  Uiso   1.00
H960   H     0.27346   0.16432   0.84507   0.00000  Uiso   1.00
H961   H     0.31253   0.23509   0.85714   0.00000  Uiso   1.00
H962   H     0.01125   0.19426   0.85665   0.00000  Uiso   1.00
H963   H     0.31732   0.22148   0.90288   0.00000  Uiso   1.00
H964   H     0.16172   0.18545   0.59988   0.00000  Uiso   1.00
H965   H     0.23124   0.08354   0.59699   0.00000  Uiso   1.00
H966   H     0.21746   0.07249   0.96831   0.00000  Uiso   1.00
H967   H     0.07271   0.25239   0.97775   0.00000  Uiso   1.00
H968   H     0.12012   0.20593   0.57444   0.00000  Uiso   1.00
H969   H     0.18296   0.10817   0.93427   0.00000  Uiso   1.00
O970   O     0.16667   0.16667   0.75000   0.00000  Uiso   1.00
O971   O     0.15693   0.12393   0.66625   0.00000  Uiso   1.00
O972   O     0.12687   0.20646   0.83749   0.00000  Uiso   1.00
O973   O     0.21088   0.17493   0.65877   0.00000  Uiso   1.00
O974   O     0.17198   0.16135   0.83749   0.00000  Uiso   1.00
O975   O     0.07730   0.24526   0.54417   0.00000  Uiso   1.00
O976   O     0.02377   0.20122   0.71100   0.00000  Uiso   1.00
O977   O     0.08514   0.24673   0.90281   0.00000  Uiso   1.00
O978   O     0.19807   0.16371   0.89836   0.00000  Uiso   1.00
O979   O     0.17849   0.08101   0.77821   0.00000  Uiso   1.00
O980   O     0.14581   0.26136   0.76767   0.00000  Uiso   1.00
O981   O     0.07452   0.13251   0.73607   0.00000  Uiso   1.00
O982   O     0.26785   0.19179   0.71806   0.00000  Uiso   1.00
O983   O     0.06990   0.18960   0.77820   0.00000  Uiso   1.00
O984   O     0.25440   0.15277   0.76768   0.00000  Uiso   1.00
O985   O     0.13800   0.06903   0.73607   0.00000  Uiso   1.00
O986   O     0.20437   0.25527   0.71805   0.00000  Uiso   1.00
Zn987  Zn    0.19244   0.14090   0.78278   0.00000  Uiso   1.00
Zn988  Zn    0.13459   0.12378   0.72258   0.00000  Uiso   1.00
Zn989  Zn    0.21166   0.19664   0.71188   0.00000  Uiso   1.00
Zn990  Zn    0.12798   0.20535   0.78277   0.00000  Uiso   1.00
C991   C     0.38572   0.15959   0.75905   0.00000  Uiso   1.00
C992   C     0.51637   0.12148   0.96371   0.00000  Uiso   1.00
C993   C     0.53522   0.09979   0.98363   0.00000  Uiso   1.00
C994   C     0.61438   0.17404   0.74145   0.00000  Uiso   1.00
C995   C     0.53372   0.11269   0.52278   0.00000  Uiso   1.00
C996   C     0.51108   0.14711   0.54312   0.00000  Uiso   1.00
C997   C     0.55343   0.09051   0.54224   0.00000  Uiso   1.00
C998   C     0.55052   0.10172   0.58187   0.00000  Uiso   1.00
C999   C     0.51031   0.15890   0.58280   0.00000  Uiso   1.00
C1000  C     0.66053   0.17841   0.73885   0.00000  Uiso   1.00
C1001  C     0.34048   0.15732   0.76172   0.00000  Uiso   1.00
C1002  C     0.43991   0.22581   0.92105   0.00000  Uiso   1.00
C1003  C     0.51322   0.32195   0.73805   0.00000  Uiso   1.00
C1004  C     0.48433   0.01243   0.76246   0.00000  Uiso   1.00
C1005  C     0.48931   0.05619   0.75876   0.00000  Uiso   1.00
C1006  C     0.50996   0.27763   0.74137   0.00000  Uiso   1.00
C1007  C     0.52158   0.14497   0.64412   0.00000  Uiso   1.00
C1008  C     0.47941   0.18861   0.85618   0.00000  Uiso   1.00
C1009  C     0.47066   0.19846   0.89941   0.00000  Uiso   1.00
C1010  C     0.52912   0.13595   0.60194   0.00000  Uiso   1.00
C1011  C     0.42971   0.23131   0.96194   0.00000  Uiso   1.00
C1012  C     0.37173   0.22446   0.56654   0.00000  Uiso   1.00
C1013  C     0.49351   0.18033   0.91950   0.00000  Uiso   1.00
C1014  C     0.33932   0.21172   0.54205   0.00000  Uiso   1.00
C1015  C     0.62919   0.19254   0.56653   0.00000  Uiso   1.00
C1016  C     0.35728   0.24417   0.72483   0.00000  Uiso   1.00
C1017  C     0.39613   0.26844   0.69838   0.00000  Uiso   1.00
C1018  C     0.39719   0.31540   0.71083   0.00000  Uiso   1.00
C1019  C     0.44398   0.28443   0.89109   0.00000  Uiso   1.00
C1020  C     0.43044   0.32132   0.92214   0.00000  Uiso   1.00
C1021  C     0.45392   0.02944   0.90785   0.00000  Uiso   1.00
C1022  C     0.56670   0.19500   0.89803   0.00000  Uiso   1.00
C1023  C     0.60858   0.17647   0.87529   0.00000  Uiso   1.00
C1024  C     0.47946   0.18183   0.96106   0.00000  Uiso   1.00
C1025  C     0.64813   0.20897   0.87292   0.00000  Uiso   1.00
C1026  C     0.44913   0.20987   0.98223   0.00000  Uiso   1.00
C1027  C     0.49598   0.15748   0.98210   0.00000  Uiso   1.00
C1028  C     0.48980   0.16805   0.52316   0.00000  Uiso   1.00
C1029  C     0.46111   0.19780   0.54310   0.00000  Uiso   1.00
C1030  C     0.43886   0.21651   0.52340   0.00000  Uiso   1.00
F1031  F     0.45075   0.33057   0.79169   0.00000  Uiso   1.00
H1032  H     0.57027   0.06392   0.52699   0.00000  Uiso   1.00
H1033  H     0.35752   0.24680   0.59207   0.00000  Uiso   1.00
H1034  H     0.37675   0.19678   0.57901   0.00000  Uiso   1.00
H1035  H     0.33419   0.23966   0.53026   0.00000  Uiso   1.00
H1036  H     0.35247   0.18848   0.51691   0.00000  Uiso   1.00
H1037  H     0.63335   0.16412   0.57816   0.00000  Uiso   1.00
H1038  H     0.60671   0.18363   0.54778   0.00000  Uiso   1.00
H1039  H     0.61469   0.21541   0.59143   0.00000  Uiso   1.00
H1040  H     0.36024   0.25029   0.75553   0.00000  Uiso   1.00
H1041  H     0.66037   0.25558   0.72387   0.00000  Uiso   1.00
H1042  H     0.42653   0.25786   0.69990   0.00000  Uiso   1.00
H1043  H     0.65146   0.13726   0.78217   0.00000  Uiso   1.00
H1044  H     0.39444   0.26201   0.66744   0.00000  Uiso   1.00
H1045  H     0.36794   0.32696   0.70790   0.00000  Uiso   1.00
H1046  H     0.42638   0.33197   0.69174   0.00000  Uiso   1.00
H1047  H     0.39849   0.32257   0.74179   0.00000  Uiso   1.00
H1048  H     0.43802   0.29007   0.86335   0.00000  Uiso   1.00
H1049  H     0.47961   0.28301   0.88428   0.00000  Uiso   1.00
H1050  H     0.39491   0.32215   0.92894   0.00000  Uiso   1.00
H1051  H     0.43824   0.31747   0.94953   0.00000  Uiso   1.00
H1052  H     0.48951   0.02957   0.90157   0.00000  Uiso   1.00
H1053  H     0.44345   0.05549   0.93096   0.00000  Uiso   1.00
H1054  H     0.53979   0.00221   0.71533   0.00000  Uiso   1.00
H1055  H     0.44615   0.03464   0.88081   0.00000  Uiso   1.00
H1056  H     0.56850   0.20643   0.92853   0.00000  Uiso   1.00
H1057  H     0.56366   0.22179   0.88327   0.00000  Uiso   1.00
H1058  H     0.61217   0.14999   0.89000   0.00000  Uiso   1.00
H1059  H     0.60679   0.16432   0.84507   0.00000  Uiso   1.00
H1060  H     0.64586   0.23509   0.85714   0.00000  Uiso   1.00
H1061  H     0.34459   0.19426   0.85665   0.00000  Uiso   1.00
H1062  H     0.65065   0.22148   0.90288   0.00000  Uiso   1.00
H1063  H     0.49506   0.18545   0.59988   0.00000  Uiso   1.00
H1064  H     0.56458   0.08354   0.59699   0.00000  Uiso   1.00
H1065  H     0.55080   0.07249   0.96831   0.00000  Uiso   1.00
H1066  H     0.40604   0.25239   0.97775   0.00000  Uiso   1.00
H1067  H     0.45345   0.20593   0.57444   0.00000  Uiso   1.00
H1068  H     0.51629   0.10817   0.93427   0.00000  Uiso   1.00
O1069  O     0.50000   0.16667   0.75000   0.00000  Uiso   1.00
O1070  O     0.49027   0.12393   0.66625   0.00000  Uiso   1.00
O1071  O     0.46020   0.20646   0.83749   0.00000  Uiso   1.00
O1072  O     0.54421   0.17493   0.65877   0.00000  Uiso   1.00
O1073  O     0.50532   0.16135   0.83749   0.00000  Uiso   1.00
O1074  O     0.41063   0.24526   0.54417   0.00000  Uiso   1.00
O1075  O     0.35710   0.20122   0.71100   0.00000  Uiso   1.00
O1076  O     0.41847   0.24673   0.90281   0.00000  Uiso   1.00
O1077  O     0.53140   0.16371   0.89836   0.00000  Uiso   1.00
O1078  O     0.51182   0.08101   0.77821   0.00000  Uiso   1.00
O1079  O     0.47914   0.26136   0.76767   0.00000  Uiso   1.00
O1080  O     0.40785   0.13251   0.73607   0.00000  Uiso   1.00
O1081  O     0.60119   0.19179   0.71806   0.00000  Uiso   1.00
O1082  O     0.40323   0.18960   0.77820   0.00000  Uiso   1.00
O1083  O     0.58773   0.15277   0.76768   0.00000  Uiso   1.00
O1084  O     0.47133   0.06903   0.73607   0.00000  Uiso   1.00
O1085  O     0.53771   0.25527   0.71805   0.00000  Uiso   1.00
Zn1086 Zn    0.52577   0.14090   0.78278   0.00000  Uiso   1.00
Zn1087 Zn    0.46792   0.12378   0.72258   0.00000  Uiso   1.00
Zn1088 Zn    0.54500   0.19664   0.71188   0.00000  Uiso   1.00
Zn1089 Zn    0.46131   0.20535   0.78277   0.00000  Uiso   1.00
C1090  C     0.71905   0.15959   0.75905   0.00000  Uiso   1.00
C1091  C     0.84970   0.12148   0.96371   0.00000  Uiso   1.00
C1092  C     0.86855   0.09979   0.98363   0.00000  Uiso   1.00
C1093  C     0.94771   0.17404   0.74145   0.00000  Uiso   1.00
C1094  C     0.86705   0.11269   0.52278   0.00000  Uiso   1.00
C1095  C     0.84441   0.14711   0.54312   0.00000  Uiso   1.00
C1096  C     0.88677   0.09051   0.54224   0.00000  Uiso   1.00
C1097  C     0.88386   0.10172   0.58187   0.00000  Uiso   1.00
C1098  C     0.84364   0.15890   0.58280   0.00000  Uiso   1.00
C1099  C     0.99387   0.17841   0.73885   0.00000  Uiso   1.00
C1100  C     0.67381   0.15732   0.76172   0.00000  Uiso   1.00
C1101  C     0.77324   0.22581   0.92105   0.00000  Uiso   1.00
C1102  C     0.84655   0.32195   0.73805   0.00000  Uiso   1.00
C1103  C     0.81766   0.01243   0.76246   0.00000  Uiso   1.00
C1104  C     0.82265   0.05619   0.75876   0.00000  Uiso   1.00
C1105  C     0.84329   0.27763   0.74137   0.00000  Uiso   1.00
C1106  C     0.85491   0.14497   0.64412   0.00000  Uiso   1.00
C1107  C     0.81274   0.18861   0.85618   0.00000  Uiso   1.00
C1108  C     0.80399   0.19846   0.89941   0.00000  Uiso   1.00
C1109  C     0.86246   0.13595   0.60194   0.00000  Uiso   1.00
C1110  C     0.76304   0.23131   0.96194   0.00000  Uiso   1.00
C1111  C     0.70507   0.22446   0.56654   0.00000  Uiso   1.00
C1112  C     0.82685   0.18033   0.91950   0.00000  Uiso   1.00
C1113  C     0.67265   0.21172   0.54205   0.00000  Uiso   1.00
C1114  C     0.96252   0.19254   0.56653   0.00000  Uiso   1.00
C1115  C     0.69062   0.24417   0.72483   0.00000  Uiso   1.00
C1116  C     0.72947   0.26844   0.69838   0.00000  Uiso   1.00
C1117  C     0.73053   0.31540   0.71083   0.00000  Uiso   1.00
C1118  C     0.77731   0.28443   0.89109   0.00000  Uiso   1.00
C1119  C     0.76377   0.32132   0.92214   0.00000  Uiso   1.00
C1120  C     0.78725   0.02944   0.90785   0.00000  Uiso   1.00
C1121  C     0.90003   0.19500   0.89803   0.00000  Uiso   1.00
C1122  C     0.94191   0.17647   0.87529   0.00000  Uiso   1.00
C1123  C     0.81280   0.18183   0.96106   0.00000  Uiso   1.00
C1124  C     0.98146   0.20897   0.87292   0.00000  Uiso   1.00
C1125  C     0.78246   0.20987   0.98223   0.00000  Uiso   1.00
C1126  C     0.82931   0.15748   0.98210   0.00000  Uiso   1.00
C1127  C     0.82313   0.16805   0.52316   0.00000  Uiso   1.00
C1128  C     0.79445   0.19780   0.54310   0.00000  Uiso   1.00
C1129  C     0.77220   0.21651   0.52340   0.00000  Uiso   1.00
F1130  F     0.78409   0.33057   0.79169   0.00000  Uiso   1.00
H1131  H     0.90360   0.06392   0.52699   0.00000  Uiso   1.00
H1132  H     0.69086   0.24680   0.59207   0.00000  Uiso   1.00
H1133  H     0.71008   0.19678   0.57901   0.00000  Uiso   1.00
H1134  H     0.66753   0.23966   0.53026   0.00000  Uiso   1.00
H1135  H     0.68581   0.18848   0.51691   0.00000  Uiso   1.00
H1136  H     0.96668   0.16412   0.57816   0.00000  Uiso   1.00
H1137  H     0.94005   0.18363   0.54778   0.00000  Uiso   1.00
H1138  H     0.94802   0.21541   0.59143   0.00000  Uiso   1.00
H1139  H     0.69357   0.25029   0.75553   0.00000  Uiso   1.00
H1140  H     0.99370   0.25558   0.72387   0.00000  Uiso   1.00
H1141  H     0.75986   0.25786   0.69990   0.00000  Uiso   1.00
H1142  H     0.98479   0.13726   0.78217   0.00000  Uiso   1.00
H1143  H     0.72778   0.26201   0.66744   0.00000  Uiso   1.00
H1144  H     0.70128   0.32696   0.70790   0.00000  Uiso   1.00
H1145  H     0.75972   0.33197   0.69174   0.00000  Uiso   1.00
H1146  H     0.73183   0.32257   0.74179   0.00000  Uiso   1.00
H1147  H     0.77136   0.29007   0.86335   0.00000  Uiso   1.00
H1148  H     0.81294   0.28301   0.88428   0.00000  Uiso   1.00
H1149  H     0.72824   0.32215   0.92894   0.00000  Uiso   1.00
H1150  H     0.77157   0.31747   0.94953   0.00000  Uiso   1.00
H1151  H     0.82285   0.02957   0.90157   0.00000  Uiso   1.00
H1152  H     0.77679   0.05549   0.93096   0.00000  Uiso   1.00
H1153  H     0.87313   0.00221   0.71533   0.00000  Uiso   1.00
H1154  H     0.77949   0.03464   0.88081   0.00000  Uiso   1.00
H1155  H     0.90183   0.20643   0.92853   0.00000  Uiso   1.00
H1156  H     0.89699   0.22179   0.88327   0.00000  Uiso   1.00
H1157  H     0.94551   0.14999   0.89000   0.00000  Uiso   1.00
H1158  H     0.94012   0.16432   0.84507   0.00000  Uiso   1.00
H1159  H     0.97920   0.23509   0.85714   0.00000  Uiso   1.00
H1160  H     0.67792   0.19426   0.85665   0.00000  Uiso   1.00
H1161  H     0.98399   0.22148   0.90288   0.00000  Uiso   1.00
H1162  H     0.82839   0.18545   0.59988   0.00000  Uiso   1.00
H1163  H     0.89791   0.08354   0.59699   0.00000  Uiso   1.00
H1164  H     0.88413   0.07249   0.96831   0.00000  Uiso   1.00
H1165  H     0.73938   0.25239   0.97775   0.00000  Uiso   1.00
H1166  H     0.78679   0.20593   0.57444   0.00000  Uiso   1.00
H1167  H     0.84962   0.10817   0.93427   0.00000  Uiso   1.00
O1168  O     0.83333   0.16667   0.75000   0.00000  Uiso   1.00
O1169  O     0.82360   0.12393   0.66625   0.00000  Uiso   1.00
O1170  O     0.79354   0.20646   0.83749   0.00000  Uiso   1.00
O1171  O     0.87755   0.17493   0.65877   0.00000  Uiso   1.00
O1172  O     0.83865   0.16135   0.83749   0.00000  Uiso   1.00
O1173  O     0.74397   0.24526   0.54417   0.00000  Uiso   1.00
O1174  O     0.69044   0.20122   0.71100   0.00000  Uiso   1.00
O1175  O     0.75181   0.24673   0.90281   0.00000  Uiso   1.00
O1176  O     0.86474   0.16371   0.89836   0.00000  Uiso   1.00
O1177  O     0.84515   0.08101   0.77821   0.00000  Uiso   1.00
O1178  O     0.81247   0.26136   0.76767   0.00000  Uiso   1.00
O1179  O     0.74119   0.13251   0.73607   0.00000  Uiso   1.00
O1180  O     0.93452   0.19179   0.71806   0.00000  Uiso   1.00
O1181  O     0.73656   0.18960   0.77820   0.00000  Uiso   1.00
O1182  O     0.92106   0.15277   0.76768   0.00000  Uiso   1.00
O1183  O     0.80467   0.06903   0.73607   0.00000  Uiso   1.00
O1184  O     0.87104   0.25527   0.71805   0.00000  Uiso   1.00
Zn1185 Zn    0.85910   0.14090   0.78278   0.00000  Uiso   1.00
Zn1186 Zn    0.80125   0.12378   0.72258   0.00000  Uiso   1.00
Zn1187 Zn    0.87833   0.19664   0.71188   0.00000  Uiso   1.00
Zn1188 Zn    0.79465   0.20535   0.78277   0.00000  Uiso   1.00
C1189  C     0.05238   0.49292   0.75905   0.00000  Uiso   1.00
C1190  C     0.18304   0.45482   0.96371   0.00000  Uiso   1.00
C1191  C     0.20189   0.43312   0.98363   0.00000  Uiso   1.00
C1192  C     0.28104   0.50737   0.74145   0.00000  Uiso   1.00
C1193  C     0.20039   0.44603   0.52278   0.00000  Uiso   1.00
C1194  C     0.17774   0.48044   0.54312   0.00000  Uiso   1.00
C1195  C     0.22010   0.42384   0.54224   0.00000  Uiso   1.00
C1196  C     0.21719   0.43505   0.58187   0.00000  Uiso   1.00
C1197  C     0.17698   0.49223   0.58280   0.00000  Uiso   1.00
C1198  C     0.32720   0.51174   0.73885   0.00000  Uiso   1.00
C1199  C     0.00714   0.49066   0.76172   0.00000  Uiso   1.00
C1200  C     0.10657   0.55914   0.92105   0.00000  Uiso   1.00
C1201  C     0.17988   0.65528   0.73805   0.00000  Uiso   1.00
C1202  C     0.15099   0.34577   0.76246   0.00000  Uiso   1.00
C1203  C     0.15598   0.38952   0.75876   0.00000  Uiso   1.00
C1204  C     0.17662   0.61096   0.74137   0.00000  Uiso   1.00
C1205  C     0.18824   0.47830   0.64412   0.00000  Uiso   1.00
C1206  C     0.14607   0.52194   0.85618   0.00000  Uiso   1.00
C1207  C     0.13732   0.53179   0.89941   0.00000  Uiso   1.00
C1208  C     0.19579   0.46929   0.60194   0.00000  Uiso   1.00
C1209  C     0.09638   0.56464   0.96194   0.00000  Uiso   1.00
C1210  C     0.03840   0.55779   0.56654   0.00000  Uiso   1.00
C1211  C     0.16018   0.51366   0.91950   0.00000  Uiso   1.00
C1212  C     0.00599   0.54505   0.54205   0.00000  Uiso   1.00
C1213  C     0.29585   0.52588   0.56653   0.00000  Uiso   1.00
C1214  C     0.02395   0.57750   0.72483   0.00000  Uiso   1.00
C1215  C     0.06280   0.60177   0.69838   0.00000  Uiso   1.00
C1216  C     0.06386   0.64874   0.71083   0.00000  Uiso   1.00
C1217  C     0.11065   0.61776   0.89109   0.00000  Uiso   1.00
C1218  C     0.09710   0.65465   0.92214   0.00000  Uiso   1.00
C1219  C     0.12059   0.36277   0.90785   0.00000  Uiso   1.00
C1220  C     0.23336   0.52833   0.89803   0.00000  Uiso   1.00
C1221  C     0.27524   0.50980   0.87529   0.00000  Uiso   1.00
C1222  C     0.14613   0.51516   0.96106   0.00000  Uiso   1.00
C1223  C     0.31480   0.54230   0.87292   0.00000  Uiso   1.00
C1224  C     0.11579   0.54320   0.98223   0.00000  Uiso   1.00
C1225  C     0.16265   0.49081   0.98210   0.00000  Uiso   1.00
C1226  C     0.15647   0.50138   0.52316   0.00000  Uiso   1.00
C1227  C     0.12778   0.53113   0.54310   0.00000  Uiso   1.00
C1228  C     0.10553   0.54984   0.52340   0.00000  Uiso   1.00
F1229  F     0.11742   0.66390   0.79169   0.00000  Uiso   1.00
H1230  H     0.23694   0.39725   0.52699   0.00000  Uiso   1.00
H1231  H     0.02419   0.58014   0.59207   0.00000  Uiso   1.00
H1232  H     0.04341   0.53012   0.57901   0.00000  Uiso   1.00
H1233  H     0.00086   0.57300   0.53026   0.00000  Uiso   1.00
H1234  H     0.01914   0.52182   0.51691   0.00000  Uiso   1.00
H1235  H     0.30002   0.49745   0.57816   0.00000  Uiso   1.00
H1236  H     0.27338   0.51697   0.54778   0.00000  Uiso   1.00
H1237  H     0.28136   0.54875   0.59143   0.00000  Uiso   1.00
H1238  H     0.02691   0.58362   0.75553   0.00000  Uiso   1.00
H1239  H     0.32703   0.58891   0.72387   0.00000  Uiso   1.00
H1240  H     0.09320   0.59120   0.69990   0.00000  Uiso   1.00
H1241  H     0.31812   0.47059   0.78217   0.00000  Uiso   1.00
H1242  H     0.06111   0.59534   0.66744   0.00000  Uiso   1.00
H1243  H     0.03461   0.66030   0.70790   0.00000  Uiso   1.00
H1244  H     0.09305   0.66530   0.69174   0.00000  Uiso   1.00
H1245  H     0.06516   0.65591   0.74179   0.00000  Uiso   1.00
H1246  H     0.10469   0.62340   0.86335   0.00000  Uiso   1.00
H1247  H     0.14628   0.61634   0.88428   0.00000  Uiso   1.00
H1248  H     0.06157   0.65548   0.92894   0.00000  Uiso   1.00
H1249  H     0.10491   0.65080   0.94953   0.00000  Uiso   1.00
H1250  H     0.15618   0.36290   0.90157   0.00000  Uiso   1.00
H1251  H     0.11012   0.38883   0.93096   0.00000  Uiso   1.00
H1252  H     0.20646   0.33554   0.71533   0.00000  Uiso   1.00
H1253  H     0.11282   0.36797   0.88081   0.00000  Uiso   1.00
H1254  H     0.23516   0.53976   0.92853   0.00000  Uiso   1.00
H1255  H     0.23032   0.55512   0.88327   0.00000  Uiso   1.00
H1256  H     0.27884   0.48333   0.89000   0.00000  Uiso   1.00
H1257  H     0.27346   0.49765   0.84507   0.00000  Uiso   1.00
H1258  H     0.31253   0.56842   0.85714   0.00000  Uiso   1.00
H1259  H     0.01125   0.52759   0.85665   0.00000  Uiso   1.00
H1260  H     0.31732   0.55482   0.90288   0.00000  Uiso   1.00
H1261  H     0.16172   0.51879   0.59988   0.00000  Uiso   1.00
H1262  H     0.23124   0.41687   0.59699   0.00000  Uiso   1.00
H1263  H     0.21746   0.40582   0.96831   0.00000  Uiso   1.00
H1264  H     0.07271   0.58572   0.97775   0.00000  Uiso   1.00
H1265  H     0.12012   0.53926   0.57444   0.00000  Uiso   1.00
H1266  H     0.18296   0.44150   0.93427   0.00000  Uiso   1.00
O1267  O     0.16667   0.50000   0.75000   0.00000  Uiso   1.00
O1268  O     0.15693   0.45726   0.66625   0.00000  Uiso   1.00
O1269  O     0.12687   0.53979   0.83749   0.00000  Uiso   1.00
O1270  O     0.21088   0.50826   0.65877   0.00000  Uiso   1.00
O1271  O     0.17198   0.49468   0.83749   0.00000  Uiso   1.00
O1272  O     0.07730   0.57859   0.54417   0.00000  Uiso   1.00
O1273  O     0.02377   0.53456   0.71100   0.00000  Uiso   1.00
O1274  O     0.08514   0.58006   0.90281   0.00000  Uiso   1.00
O1275  O     0.19807   0.49704   0.89836   0.00000  Uiso   1.00
O1276  O     0.17849   0.41434   0.77821   0.00000  Uiso   1.00
O1277  O     0.14581   0.59469   0.76767   0.00000  Uiso   1.00
O1278  O     0.07452   0.46584   0.73607   0.00000  Uiso   1.00
O1279  O     0.26785   0.52512   0.71806   0.00000  Uiso   1.00
O1280  O     0.06990   0.52293   0.77820   0.00000  Uiso   1.00
O1281  O     0.25440   0.48610   0.76768   0.00000  Uiso   1.00
O1282  O     0.13800   0.40236   0.73607   0.00000  Uiso   1.00
O1283  O     0.20437   0.58860   0.71805   0.00000  Uiso   1.00
Zn1284 Zn    0.19244   0.47423   0.78278   0.00000  Uiso   1.00
Zn1285 Zn    0.13459   0.45711   0.72258   0.00000  Uiso   1.00
Zn1286 Zn    0.21166   0.52997   0.71188   0.00000  Uiso   1.00
Zn1287 Zn    0.12798   0.53868   0.78277   0.00000  Uiso   1.00
C1288  C     0.38572   0.49292   0.75905   0.00000  Uiso   1.00
C1289  C     0.51637   0.45482   0.96371   0.00000  Uiso   1.00
C1290  C     0.53522   0.43312   0.98363   0.00000  Uiso   1.00
C1291  C     0.61438   0.50737   0.74145   0.00000  Uiso   1.00
C1292  C     0.53372   0.44603   0.52278   0.00000  Uiso   1.00
C1293  C     0.51108   0.48044   0.54312   0.00000  Uiso   1.00
C1294  C     0.55343   0.42384   0.54224   0.00000  Uiso   1.00
C1295  C     0.55052   0.43505   0.58187   0.00000  Uiso   1.00
C1296  C     0.51031   0.49223   0.58280   0.00000  Uiso   1.00
C1297  C     0.66053   0.51174   0.73885   0.00000  Uiso   1.00
C1298  C     0.34048   0.49066   0.76172   0.00000  Uiso   1.00
C1299  C     0.43991   0.55914   0.92105   0.00000  Uiso   1.00
C1300  C     0.51322   0.65528   0.73805   0.00000  Uiso   1.00
C1301  C     0.48433   0.34577   0.76246   0.00000  Uiso   1.00
C1302  C     0.48931   0.38952   0.75876   0.00000  Uiso   1.00
C1303  C     0.50996   0.61096   0.74137   0.00000  Uiso   1.00
C1304  C     0.52158   0.47830   0.64412   0.00000  Uiso   1.00
C1305  C     0.47941   0.52194   0.85618   0.00000  Uiso   1.00
C1306  C     0.47066   0.53179   0.89941   0.00000  Uiso   1.00
C1307  C     0.52912   0.46929   0.60194   0.00000  Uiso   1.00
C1308  C     0.42971   0.56464   0.96194   0.00000  Uiso   1.00
C1309  C     0.37173   0.55779   0.56654   0.00000  Uiso   1.00
C1310  C     0.49351   0.51366   0.91950   0.00000  Uiso   1.00
C1311  C     0.33932   0.54505   0.54205   0.00000  Uiso   1.00
C1312  C     0.62919   0.52588   0.56653   0.00000  Uiso   1.00
C1313  C     0.35728   0.57750   0.72483   0.00000  Uiso   1.00
C1314  C     0.39613   0.60177   0.69838   0.00000  Uiso   1.00
C1315  C     0.39719   0.64874   0.71083   0.00000  Uiso   1.00
C1316  C     0.44398   0.61776   0.89109   0.00000  Uiso   1.00
C1317  C     0.43044   0.65465   0.92214   0.00000  Uiso   1.00
C1318  C     0.45392   0.36277   0.90785   0.00000  Uiso   1.00
C1319  C     0.56670   0.52833   0.89803   0.00000  Uiso   1.00
C1320  C     0.60858   0.50980   0.87529   0.00000  Uiso   1.00
C1321  C     0.47946   0.51516   0.96106   0.00000  Uiso   1.00
C1322  C     0.64813   0.54230   0.87292   0.00000  Uiso   1.00
C1323  C     0.44913   0.54320   0.98223   0.00000  Uiso   1.00
C1324  C     0.49598   0.49081   0.98210   0.00000  Uiso   1.00
C1325  C     0.48980   0.50138   0.52316   0.00000  Uiso   1.00
C1326  C     0.46111   0.53113   0.54310   0.00000  Uiso   1.00
C1327  C     0.43886   0.54984   0.52340   0.00000  Uiso   1.00
F1328  F     0.45075   0.66390   0.79169   0.00000  Uiso   1.00
H1329  H     0.57027   0.39725   0.52699   0.00000  Uiso   1.00
H1330  H     0.35752   0.58014   0.59207   0.00000  Uiso   1.00
H1331  H     0.37675   0.53012   0.57901   0.00000  Uiso   1.00
H1332  H     0.33419   0.57300   0.53026   0.00000  Uiso   1.00
H1333  H     0.35247   0.52182   0.51691   0.00000  Uiso   1.00
H1334  H     0.63335   0.49745   0.57816   0.00000  Uiso   1.00
H1335  H     0.60671   0.51697   0.54778   0.00000  Uiso   1.00
H1336  H     0.61469   0.54875   0.59143   0.00000  Uiso   1.00
H1337  H     0.36024   0.58362   0.75553   0.00000  Uiso   1.00
H1338  H     0.66037   0.58891   0.72387   0.00000  Uiso   1.00
H1339  H     0.42653   0.59120   0.69990   0.00000  Uiso   1.00
H1340  H     0.65146   0.47059   0.78217   0.00000  Uiso   1.00
H1341  H     0.39444   0.59534   0.66744   0.00000  Uiso   1.00
H1342  H     0.36794   0.66030   0.70790   0.00000  Uiso   1.00
H1343  H     0.42638   0.66530   0.69174   0.00000  Uiso   1.00
H1344  H     0.39849   0.65591   0.74179   0.00000  Uiso   1.00
H1345  H     0.43802   0.62340   0.86335   0.00000  Uiso   1.00
H1346  H     0.47961   0.61634   0.88428   0.00000  Uiso   1.00
H1347  H     0.39491   0.65548   0.92894   0.00000  Uiso   1.00
H1348  H     0.43824   0.65080   0.94953   0.00000  Uiso   1.00
H1349  H     0.48951   0.36290   0.90157   0.00000  Uiso   1.00
H1350  H     0.44345   0.38883   0.93096   0.00000  Uiso   1.00
H1351  H     0.53979   0.33554   0.71533   0.00000  Uiso   1.00
H1352  H     0.44615   0.36797   0.88081   0.00000  Uiso   1.00
H1353  H     0.56850   0.53976   0.92853   0.00000  Uiso   1.00
H1354  H     0.56366   0.55512   0.88327   0.00000  Uiso   1.00
H1355  H     0.61217   0.48333   0.89000   0.00000  Uiso   1.00
H1356  H     0.60679   0.49765   0.84507   0.00000  Uiso   1.00
H1357  H     0.64586   0.56842   0.85714   0.00000  Uiso   1.00
H1358  H     0.34459   0.52759   0.85665   0.00000  Uiso   1.00
H1359  H     0.65065   0.55482   0.90288   0.00000  Uiso   1.00
H1360  H     0.49506   0.51879   0.59988   0.00000  Uiso   1.00
H1361  H     0.56458   0.41687   0.59699   0.00000  Uiso   1.00
H1362  H     0.55080   0.40582   0.96831   0.00000  Uiso   1.00
H1363  H     0.40604   0.58572   0.97775   0.00000  Uiso   1.00
H1364  H     0.45345   0.53926   0.57444   0.00000  Uiso   1.00
H1365  H     0.51629   0.44150   0.93427   0.00000  Uiso   1.00
O1366  O     0.50000   0.50000   0.75000   0.00000  Uiso   1.00
O1367  O     0.49027   0.45726   0.66625   0.00000  Uiso   1.00
O1368  O     0.46020   0.53979   0.83749   0.00000  Uiso   1.00
O1369  O     0.54421   0.50826   0.65877   0.00000  Uiso   1.00
O1370  O     0.50532   0.49468   0.83749   0.00000  Uiso   1.00
O1371  O     0.41063   0.57859   0.54417   0.00000  Uiso   1.00
O1372  O     0.35710   0.53456   0.71100   0.00000  Uiso   1.00
O1373  O     0.41847   0.58006   0.90281   0.00000  Uiso   1.00
O1374  O     0.53140   0.49704   0.89836   0.00000  Uiso   1.00
O1375  O     0.51182   0.41434   0.77821   0.00000  Uiso   1.00
O1376  O     0.47914   0.59469   0.76767   0.00000  Uiso   1.00
O1377  O     0.40785   0.46584   0.73607   0.00000  Uiso   1.00
O1378  O     0.60119   0.52512   0.71806   0.00000  Uiso   1.00
O1379  O     0.40323   0.52293   0.77820   0.00000  Uiso   1.00
O1380  O     0.58773   0.48610   0.76768   0.00000  Uiso   1.00
O1381  O     0.47133   0.40236   0.73607   0.00000  Uiso   1.00
O1382  O     0.53771   0.58860   0.71805   0.00000  Uiso   1.00
Zn1383 Zn    0.52577   0.47423   0.78278   0.00000  Uiso   1.00
Zn1384 Zn    0.46792   0.45711   0.72258   0.00000  Uiso   1.00
Zn1385 Zn    0.54500   0.52997   0.71188   0.00000  Uiso   1.00
Zn1386 Zn    0.46131   0.53868   0.78277   0.00000  Uiso   1.00
C1387  C     0.71905   0.49292   0.75905   0.00000  Uiso   1.00
C1388  C     0.84970   0.45482   0.96371   0.00000  Uiso   1.00
C1389  C     0.86855   0.43312   0.98363   0.00000  Uiso   1.00
C1390  C     0.94771   0.50737   0.74145   0.00000  Uiso   1.00
C1391  C     0.86705   0.44603   0.52278   0.00000  Uiso   1.00
C1392  C     0.84441   0.48044   0.54312   0.00000  Uiso   1.00
C1393  C     0.88677   0.42384   0.54224   0.00000  Uiso   1.00
C1394  C     0.88386   0.43505   0.58187   0.00000  Uiso   1.00
C1395  C     0.84364   0.49223   0.58280   0.00000  Uiso   1.00
C1396  C     0.99387   0.51174   0.73885   0.00000  Uiso   1.00
C1397  C     0.67381   0.49066   0.76172   0.00000  Uiso   1.00
C1398  C     0.77324   0.55914   0.92105   0.00000  Uiso   1.00
C1399  C     0.84655   0.65528   0.73805   0.00000  Uiso   1.00
C1400  C     0.81766   0.34577   0.76246   0.00000  Uiso   1.00
C1401  C     0.82265   0.38952   0.75876   0.00000  Uiso   1.00
C1402  C     0.84329   0.61096   0.74137   0.00000  Uiso   1.00
C1403  C     0.85491   0.47830   0.64412   0.00000  Uiso   1.00
C1404  C     0.81274   0.52194   0.85618   0.00000  Uiso   1.00
C1405  C     0.80399   0.53179   0.89941   0.00000  Uiso   1.00
C1406  C     0.86246   0.46929   0.60194   0.00000  Uiso   1.00
C1407  C     0.76304   0.56464   0.96194   0.00000  Uiso   1.00
C1408  C     0.70507   0.55779   0.56654   0.00000  Uiso   1.00
C1409  C     0.82685   0.51366   0.91950   0.00000  Uiso   1.00
C1410  C     0.67265   0.54505   0.54205   0.00000  Uiso   1.00
C1411  C     0.96252   0.52588   0.56653   0.00000  Uiso   1.00
C1412  C     0.69062   0.57750   0.72483   0.00000  Uiso   1.00
C1413  C     0.72947   0.60177   0.69838   0.00000  Uiso   1.00
C1414  C     0.73053   0.64874   0.71083   0.00000  Uiso   1.00
C1415  C     0.77731   0.61776   0.89109   0.00000  Uiso   1.00
C1416  C     0.76377   0.65465   0.92214   0.00000  Uiso   1.00
C1417  C     0.78725   0.36277   0.90785   0.00000  Uiso   1.00
C1418  C     0.90003   0.52833   0.89803   0.00000  Uiso   1.00
C1419  C     0.94191   0.50980   0.87529   0.00000  Uiso   1.00
C1420  C     0.81280   0.51516   0.96106   0.00000  Uiso   1.00
C1421  C     0.98146   0.54230   0.87292   0.00000  Uiso   1.00
C1422  C     0.78246   0.54320   0.98223   0.00000  Uiso   1.00
C1423  C     0.82931   0.49081   0.98210   0.00000  Uiso   1.00
C1424  C     0.82313   0.50138   0.52316   0.00000  Uiso   1.00
C1425  C     0.79445   0.53113   0.54310   0.00000  Uiso   1.00
C1426  C     0.77220   0.54984   0.52340   0.00000  Uiso   1.00
F1427  F     0.78409   0.66390   0.79169   0.00000  Uiso   1.00
H1428  H     0.90360   0.39725   0.52699   0.00000  Uiso   1.00
H1429  H     0.69086   0.58014   0.59207   0.00000  Uiso   1.00
H1430  H     0.71008   0.53012   0.57901   0.00000  Uiso   1.00
H1431  H     0.66753   0.57300   0.53026   0.00000  Uiso   1.00
H1432  H     0.68581   0.52182   0.51691   0.00000  Uiso   1.00
H1433  H     0.96668   0.49745   0.57816   0.00000  Uiso   1.00
H1434  H     0.94005   0.51697   0.54778   0.00000  Uiso   1.00
H1435  H     0.94802   0.54875   0.59143   0.00000  Uiso   1.00
H1436  H     0.69357   0.58362   0.75553   0.00000  Uiso   1.00
H1437  H     0.99370   0.58891   0.72387   0.00000  Uiso   1.00
H1438  H     0.75986   0.59120   0.69990   0.00000  Uiso   1.00
H1439  H     0.98479   0.47059   0.78217   0.00000  Uiso   1.00
H1440  H     0.72778   0.59534   0.66744   0.00000  Uiso   1.00
H1441  H     0.70128   0.66030   0.70790   0.00000  Uiso   1.00
H1442  H     0.75972   0.66530   0.69174   0.00000  Uiso   1.00
H1443  H     0.73183   0.65591   0.74179   0.00000  Uiso   1.00
H1444  H     0.77136   0.62340   0.86335   0.00000  Uiso   1.00
H1445  H     0.81294   0.61634   0.88428   0.00000  Uiso   1.00
H1446  H     0.72824   0.65548   0.92894   0.00000  Uiso   1.00
H1447  H     0.77157   0.65080   0.94953   0.00000  Uiso   1.00
H1448  H     0.82285   0.36290   0.90157   0.00000  Uiso   1.00
H1449  H     0.77679   0.38883   0.93096   0.00000  Uiso   1.00
H1450  H     0.87313   0.33554   0.71533   0.00000  Uiso   1.00
H1451  H     0.77949   0.36797   0.88081   0.00000  Uiso   1.00
H1452  H     0.90183   0.53976   0.92853   0.00000  Uiso   1.00
H1453  H     0.89699   0.55512   0.88327   0.00000  Uiso   1.00
H1454  H     0.94551   0.48333   0.89000   0.00000  Uiso   1.00
H1455  H     0.94012   0.49765   0.84507   0.00000  Uiso   1.00
H1456  H     0.97920   0.56842   0.85714   0.00000  Uiso   1.00
H1457  H     0.67792   0.52759   0.85665   0.00000  Uiso   1.00
H1458  H     0.98399   0.55482   0.90288   0.00000  Uiso   1.00
H1459  H     0.82839   0.51879   0.59988   0.00000  Uiso   1.00
H1460  H     0.89791   0.41687   0.59699   0.00000  Uiso   1.00
H1461  H     0.88413   0.40582   0.96831   0.00000  Uiso   1.00
H1462  H     0.73938   0.58572   0.97775   0.00000  Uiso   1.00
H1463  H     0.78679   0.53926   0.57444   0.00000  Uiso   1.00
H1464  H     0.84962   0.44150   0.93427   0.00000  Uiso   1.00
O1465  O     0.83333   0.50000   0.75000   0.00000  Uiso   1.00
O1466  O     0.82360   0.45726   0.66625   0.00000  Uiso   1.00
O1467  O     0.79354   0.53979   0.83749   0.00000  Uiso   1.00
O1468  O     0.87755   0.50826   0.65877   0.00000  Uiso   1.00
O1469  O     0.83865   0.49468   0.83749   0.00000  Uiso   1.00
O1470  O     0.74397   0.57859   0.54417   0.00000  Uiso   1.00
O1471  O     0.69044   0.53456   0.71100   0.00000  Uiso   1.00
O1472  O     0.75181   0.58006   0.90281   0.00000  Uiso   1.00
O1473  O     0.86474   0.49704   0.89836   0.00000  Uiso   1.00
O1474  O     0.84515   0.41434   0.77821   0.00000  Uiso   1.00
O1475  O     0.81247   0.59469   0.76767   0.00000  Uiso   1.00
O1476  O     0.74119   0.46584   0.73607   0.00000  Uiso   1.00
O1477  O     0.93452   0.52512   0.71806   0.00000  Uiso   1.00
O1478  O     0.73656   0.52293   0.77820   0.00000  Uiso   1.00
O1479  O     0.92106   0.48610   0.76768   0.00000  Uiso   1.00
O1480  O     0.80467   0.40236   0.73607   0.00000  Uiso   1.00
O1481  O     0.87104   0.58860   0.71805   0.00000  Uiso   1.00
Zn1482 Zn    0.85910   0.47423   0.78278   0.00000  Uiso   1.00
Zn1483 Zn    0.80125   0.45711   0.72258   0.00000  Uiso   1.00
Zn1484 Zn    0.87833   0.52997   0.71188   0.00000  Uiso   1.00
Zn1485 Zn    0.79465   0.53868   0.78277   0.00000  Uiso   1.00
C1486  C     0.05238   0.82626   0.75905   0.00000  Uiso   1.00
C1487  C     0.18304   0.78815   0.96371   0.00000  Uiso   1.00
C1488  C     0.20189   0.76645   0.98363   0.00000  Uiso   1.00
C1489  C     0.28104   0.84071   0.74145   0.00000  Uiso   1.00
C1490  C     0.20039   0.77936   0.52278   0.00000  Uiso   1.00
C1491  C     0.17774   0.81378   0.54312   0.00000  Uiso   1.00
C1492  C     0.22010   0.75717   0.54224   0.00000  Uiso   1.00
C1493  C     0.21719   0.76839   0.58187   0.00000  Uiso   1.00
C1494  C     0.17698   0.82556   0.58280   0.00000  Uiso   1.00
C1495  C     0.32720   0.84508   0.73885   0.00000  Uiso   1.00
C1496  C     0.00714   0.82399   0.76172   0.00000  Uiso   1.00
C1497  C     0.10657   0.89247   0.92105   0.00000  Uiso   1.00
C1498  C     0.17988   0.98861   0.73805   0.00000  Uiso   1.00
C1499  C     0.15099   0.67910   0.76246   0.00000  Uiso   1.00
C1500  C     0.15598   0.72285   0.75876   0.00000  Uiso   1.00
C1501  C     0.17662   0.94430   0.74137   0.00000  Uiso   1.00
C1502  C     0.18824   0.81164   0.64412   0.00000  Uiso   1.00
C1503  C     0.14607   0.85528   0.85618   0.00000  Uiso   1.00
C1504  C     0.13732   0.86512   0.89941   0.00000  Uiso   1.00
C1505  C     0.19579   0.80262   0.60194   0.00000  Uiso   1.00
C1506  C     0.09638   0.89798   0.96194   0.00000  Uiso   1.00
C1507  C     0.03840   0.89112   0.56654   0.00000  Uiso   1.00
C1508  C     0.16018   0.84700   0.91950   0.00000  Uiso   1.00
C1509  C     0.00599   0.87838   0.54205   0.00000  Uiso   1.00
C1510  C     0.29585   0.85921   0.56653   0.00000  Uiso   1.00
C1511  C     0.02395   0.91084   0.72483   0.00000  Uiso   1.00
C1512  C     0.06280   0.93510   0.69838   0.00000  Uiso   1.00
C1513  C     0.06386   0.98207   0.71083   0.00000  Uiso   1.00
C1514  C     0.11065   0.95109   0.89109   0.00000  Uiso   1.00
C1515  C     0.09710   0.98799   0.92214   0.00000  Uiso   1.00
C1516  C     0.12059   0.69611   0.90785   0.00000  Uiso   1.00
C1517  C     0.23336   0.86166   0.89803   0.00000  Uiso   1.00
C1518  C     0.27524   0.84314   0.87529   0.00000  Uiso   1.00
C1519  C     0.14613   0.84850   0.96106   0.00000  Uiso   1.00
C1520  C     0.31480   0.87564   0.87292   0.00000  Uiso   1.00
C1521  C     0.11579   0.87654   0.98223   0.00000  Uiso   1.00
C1522  C     0.16265   0.82414   0.98210   0.00000  Uiso   1.00
C1523  C     0.15647   0.83472   0.52316   0.00000  Uiso   1.00
C1524  C     0.12778   0.86446   0.54310   0.00000  Uiso   1.00
C1525  C     0.10553   0.88318   0.52340   0.00000  Uiso   1.00
F1526  F     0.11742   0.99724   0.79169   0.00000  Uiso   1.00
H1527  H     0.23694   0.73059   0.52699   0.00000  Uiso   1.00
H1528  H     0.02419   0.91347   0.59207   0.00000  Uiso   1.00
H1529  H     0.04341   0.86345   0.57901   0.00000  Uiso   1.00
H1530  H     0.00086   0.90633   0.53026   0.00000  Uiso   1.00
H1531  H     0.01914   0.85515   0.51691   0.00000  Uiso   1.00
H1532  H     0.30002   0.83079   0.57816   0.00000  Uiso   1.00
H1533  H     0.27338   0.85030   0.54778   0.00000  Uiso   1.00
H1534  H     0.28136   0.88208   0.59143   0.00000  Uiso   1.00
H1535  H     0.02691   0.91695   0.75553   0.00000  Uiso   1.00
H1536  H     0.32703   0.92225   0.72387   0.00000  Uiso   1.00
H1537  H     0.09320   0.92453   0.69990   0.00000  Uiso   1.00
H1538  H     0.31812   0.80393   0.78217   0.00000  Uiso   1.00
H1539  H     0.06111   0.92867   0.66744   0.00000  Uiso   1.00
H1540  H     0.03461   0.99363   0.70790   0.00000  Uiso   1.00
H1541  H     0.09305   0.99864   0.69174   0.00000  Uiso   1.00
H1542  H     0.06516   0.98924   0.74179   0.00000  Uiso   1.00
H1543  H     0.10469   0.95673   0.86335   0.00000  Uiso   1.00
H1544  H     0.14628   0.94968   0.88428   0.00000  Uiso   1.00
H1545  H     0.06157   0.98882   0.92894   0.00000  Uiso   1.00
H1546  H     0.10491   0.98413   0.94953   0.00000  Uiso   1.00
H1547  H     0.15618   0.69624   0.90157   0.00000  Uiso   1.00
H1548  H     0.11012   0.72216   0.93096   0.00000  Uiso   1.00
H1549  H     0.20646   0.66888   0.71533   0.00000  Uiso   1.00
H1550  H     0.11282   0.70130   0.88081   0.00000  Uiso   1.00
H1551  H     0.23516   0.87309   0.92853   0.00000  Uiso   1.00
H1552  H     0.23032   0.88845   0.88327   0.00000  Uiso   1.00
H1553  H     0.27884   0.81666   0.89000   0.00000  Uiso   1.00
H1554  H     0.27346   0.83099   0.84507   0.00000  Uiso   1.00
H1555  H     0.31253   0.90175   0.85714   0.00000  Uiso   1.00
H1556  H     0.01125   0.86092   0.85665   0.00000  Uiso   1.00
H1557  H     0.31732   0.88815   0.90288   0.00000  Uiso   1.00
H1558  H     0.16172   0.85212   0.59988   0.00000  Uiso   1.00
H1559  H     0.23124   0.75021   0.59699   0.00000  Uiso   1.00
H1560  H     0.21746   0.73915   0.96831   0.00000  Uiso   1.00
H1561  H     0.07271   0.91906   0.97775   0.00000  Uiso   1.00
H1562  H     0.12012   0.87260   0.57444   0.00000  Uiso   1.00
H1563  H     0.18296   0.77484   0.93427   0.00000  Uiso   1.00
O1564  O     0.16667   0.83333   0.75000   0.00000  Uiso   1.00
O1565  O     0.15693   0.79060   0.66625   0.00000  Uiso   1.00
O1566  O     0.12687   0.87313   0.83749   0.00000  Uiso   1.00
O1567  O     0.21088   0.84159   0.65877   0.00000  Uiso   1.00
O1568  O     0.17198   0.82802   0.83749   0.00000  Uiso   1.00
O1569  O     0.07730   0.91192   0.54417   0.00000  Uiso   1.00
O1570  O     0.02377   0.86789   0.71100   0.00000  Uiso   1.00
O1571  O     0.08514   0.91339   0.90281   0.00000  Uiso   1.00
O1572  O     0.19807   0.83037   0.89836   0.00000  Uiso   1.00
O1573  O     0.17849   0.74768   0.77821   0.00000  Uiso   1.00
O1574  O     0.14581   0.92803   0.76767   0.00000  Uiso   1.00
O1575  O     0.07452   0.79917   0.73607   0.00000  Uiso   1.00
O1576  O     0.26785   0.85845   0.71806   0.00000  Uiso   1.00
O1577  O     0.06990   0.85627   0.77820   0.00000  Uiso   1.00
O1578  O     0.25440   0.81944   0.76768   0.00000  Uiso   1.00
O1579  O     0.13800   0.73570   0.73607   0.00000  Uiso   1.00
O1580  O     0.20437   0.92193   0.71805   0.00000  Uiso   1.00
Zn1581 Zn    0.19244   0.80756   0.78278   0.00000  Uiso   1.00
Zn1582 Zn    0.13459   0.79044   0.72258   0.00000  Uiso   1.00
Zn1583 Zn    0.21166   0.86331   0.71188   0.00000  Uiso   1.00
Zn1584 Zn    0.12798   0.87202   0.78277   0.00000  Uiso   1.00
C1585  C     0.38572   0.82626   0.75905   0.00000  Uiso   1.00
C1586  C     0.51637   0.78815   0.96371   0.00000  Uiso   1.00
C1587  C     0.53522   0.76645   0.98363   0.00000  Uiso   1.00
C1588  C     0.61438   0.84071   0.74145   0.00000  Uiso   1.00
C1589  C     0.53372   0.77936   0.52278   0.00000  Uiso   1.00
C1590  C     0.51108   0.81378   0.54312   0.00000  Uiso   1.00
C1591  C     0.55343   0.75717   0.54224   0.00000  Uiso   1.00
C1592  C     0.55052   0.76839   0.58187   0.00000  Uiso   1.00
C1593  C     0.51031   0.82556   0.58280   0.00000  Uiso   1.00
C1594  C     0.66053   0.84508   0.73885   0.00000  Uiso   1.00
C1595  C     0.34048   0.82399   0.76172   0.00000  Uiso   1.00
C1596  C     0.43991   0.89247   0.92105   0.00000  Uiso   1.00
C1597  C     0.51322   0.98861   0.73805   0.00000  Uiso   1.00
C1598  C     0.48433   0.67910   0.76246   0.00000  Uiso   1.00
C1599  C     0.48931   0.72285   0.75876   0.00000  Uiso   1.00
C1600  C     0.50996   0.94430   0.74137   0.00000  Uiso   1.00
C1601  C     0.52158   0.81164   0.64412   0.00000  Uiso   1.00
C1602  C     0.47941   0.85528   0.85618   0.00000  Uiso   1.00
C1603  C     0.47066   0.86512   0.89941   0.00000  Uiso   1.00
C1604  C     0.52912   0.80262   0.60194   0.00000  Uiso   1.00
C1605  C     0.42971   0.89798   0.96194   0.00000  Uiso   1.00
C1606  C     0.37173   0.89112   0.56654   0.00000  Uiso   1.00
C1607  C     0.49351   0.84700   0.91950   0.00000  Uiso   1.00
C1608  C     0.33932   0.87838   0.54205   0.00000  Uiso   1.00
C1609  C     0.62919   0.85921   0.56653   0.00000  Uiso   1.00
C1610  C     0.35728   0.91084   0.72483   0.00000  Uiso   1.00
C1611  C     0.39613   0.93510   0.69838   0.00000  Uiso   1.00
C1612  C     0.39719   0.98207   0.71083   0.00000  Uiso   1.00
C1613  C     0.44398   0.95109   0.89109   0.00000  Uiso   1.00
C1614  C     0.43044   0.98799   0.92214   0.00000  Uiso   1.00
C1615  C     0.45392   0.69611   0.90785   0.00000  Uiso   1.00
C1616  C     0.56670   0.86166   0.89803   0.00000  Uiso   1.00
C1617  C     0.60858   0.84314   0.87529   0.00000  Uiso   1.00
C1618  C     0.47946   0.84850   0.96106   0.00000  Uiso   1.00
C1619  C     0.64813   0.87564   0.87292   0.00000  Uiso   1.00
C1620  C     0.44913   0.87654   0.98223   0.00000  Uiso   1.00
C1621  C     0.49598   0.82414   0.98210   0.00000  Uiso   1.00
C1622  C     0.48980   0.83472   0.52316   0.00000  Uiso   1.00
C1623  C     0.46111   0.86446   0.54310   0.00000  Uiso   1.00
C1624  C     0.43886   0.88318   0.52340   0.00000  Uiso   1.00
F1625  F     0.45075   0.99724   0.79169   0.00000  Uiso   1.00
H1626  H     0.57027   0.73059   0.52699   0.00000  Uiso   1.00
H1627  H     0.35752   0.91347   0.59207   0.00000  Uiso   1.00
H1628  H     0.37675   0.86345   0.57901   0.00000  Uiso   1.00
H1629  H     0.33419   0.90633   0.53026   0.00000  Uiso   1.00
H1630  H     0.35247   0.85515   0.51691   0.00000  Uiso   1.00
H1631  H     0.63335   0.83079   0.57816   0.00000  Uiso   1.00
H1632  H     0.60671   0.85030   0.54778   0.00000  Uiso   1.00
H1633  H     0.61469   0.88208   0.59143   0.00000  Uiso   1.00
H1634  H     0.36024   0.91695   0.75553   0.00000  Uiso   1.00
H1635  H     0.66037   0.92225   0.72387   0.00000  Uiso   1.00
H1636  H     0.42653   0.92453   0.69990   0.00000  Uiso   1.00
H1637  H     0.65146   0.80393   0.78217   0.00000  Uiso   1.00
H1638  H     0.39444   0.92867   0.66744   0.00000  Uiso   1.00
H1639  H     0.36794   0.99363   0.70790   0.00000  Uiso   1.00
H1640  H     0.42638   0.99864   0.69174   0.00000  Uiso   1.00
H1641  H     0.39849   0.98924   0.74179   0.00000  Uiso   1.00
H1642  H     0.43802   0.95673   0.86335   0.00000  Uiso   1.00
H1643  H     0.47961   0.94968   0.88428   0.00000  Uiso   1.00
H1644  H     0.39491   0.98882   0.92894   0.00000  Uiso   1.00
H1645  H     0.43824   0.98413   0.94953   0.00000  Uiso   1.00
H1646  H     0.48951   0.69624   0.90157   0.00000  Uiso   1.00
H1647  H     0.44345   0.72216   0.93096   0.00000  Uiso   1.00
H1648  H     0.53979   0.66888   0.71533   0.00000  Uiso   1.00
H1649  H     0.44615   0.70130   0.88081   0.00000  Uiso   1.00
H1650  H     0.56850   0.87309   0.92853   0.00000  Uiso   1.00
H1651  H     0.56366   0.88845   0.88327   0.00000  Uiso   1.00
H1652  H     0.61217   0.81666   0.89000   0.00000  Uiso   1.00
H1653  H     0.60679   0.83099   0.84507   0.00000  Uiso   1.00
H1654  H     0.64586   0.90175   0.85714   0.00000  Uiso   1.00
H1655  H     0.34459   0.86092   0.85665   0.00000  Uiso   1.00
H1656  H     0.65065   0.88815   0.90288   0.00000  Uiso   1.00
H1657  H     0.49506   0.85212   0.59988   0.00000  Uiso   1.00
H1658  H     0.56458   0.75021   0.59699   0.00000  Uiso   1.00
H1659  H     0.55080   0.73915   0.96831   0.00000  Uiso   1.00
H1660  H     0.40604   0.91906   0.97775   0.00000  Uiso   1.00
H1661  H     0.45345   0.87260   0.57444   0.00000  Uiso   1.00
H1662  H     0.51629   0.77484   0.93427   0.00000  Uiso   1.00
O1663  O     0.50000   0.83333   0.75000   0.00000  Uiso   1.00
O1664  O     0.49027   0.79060   0.66625   0.00000  Uiso   1.00
O1665  O     0.46020   0.87313   0.83749   0.00000  Uiso   1.00
O1666  O     0.54421   0.84159   0.65877   0.00000  Uiso   1.00
O1667  O     0.50532   0.82802   0.83749   0.00000  Uiso   1.00
O1668  O     0.41063   0.91192   0.54417   0.00000  Uiso   1.00
O1669  O     0.35710   0.86789   0.71100   0.00000  Uiso   1.00
O1670  O     0.41847   0.91339   0.90281   0.00000  Uiso   1.00
O1671  O     0.53140   0.83037   0.89836   0.00000  Uiso   1.00
O1672  O     0.51182   0.74768   0.77821   0.00000  Uiso   1.00
O1673  O     0.47914   0.92803   0.76767   0.00000  Uiso   1.00
O1674  O     0.40785   0.79917   0.73607   0.00000  Uiso   1.00
O1675  O     0.60119   0.85845   0.71806   0.00000  Uiso   1.00
O1676  O     0.40323   0.85627   0.77820   0.00000  Uiso   1.00
O1677  O     0.58773   0.81944   0.76768   0.00000  Uiso   1.00
O1678  O     0.47133   0.73570   0.73607   0.00000  Uiso   1.00
O1679  O     0.53771   0.92193   0.71805   0.00000  Uiso   1.00
Zn1680 Zn    0.52577   0.80756   0.78278   0.00000  Uiso   1.00
Zn1681 Zn    0.46792   0.79044   0.72258   0.00000  Uiso   1.00
Zn1682 Zn    0.54500   0.86331   0.71188   0.00000  Uiso   1.00
Zn1683 Zn    0.46131   0.87202   0.78277   0.00000  Uiso   1.00
C1684  C     0.71905   0.82626   0.75905   0.00000  Uiso   1.00
C1685  C     0.84970   0.78815   0.96371   0.00000  Uiso   1.00
C1686  C     0.86855   0.76645   0.98363   0.00000  Uiso   1.00
C1687  C     0.94771   0.84071   0.74145   0.00000  Uiso   1.00
C1688  C     0.86705   0.77936   0.52278   0.00000  Uiso   1.00
C1689  C     0.84441   0.81378   0.54312   0.00000  Uiso   1.00
C1690  C     0.88677   0.75717   0.54224   0.00000  Uiso   1.00
C1691  C     0.88386   0.76839   0.58187   0.00000  Uiso   1.00
C1692  C     0.84364   0.82556   0.58280   0.00000  Uiso   1.00
C1693  C     0.99387   0.84508   0.73885   0.00000  Uiso   1.00
C1694  C     0.67381   0.82399   0.76172   0.00000  Uiso   1.00
C1695  C     0.77324   0.89247   0.92105   0.00000  Uiso   1.00
C1696  C     0.84655   0.98861   0.73805   0.00000  Uiso   1.00
C1697  C     0.81766   0.67910   0.76246   0.00000  Uiso   1.00
C1698  C     0.82265   0.72285   0.75876   0.00000  Uiso   1.00
C1699  C     0.84329   0.94430   0.74137   0.00000  Uiso   1.00
C1700  C     0.85491   0.81164   0.64412   0.00000  Uiso   1.00
C1701  C     0.81274   0.85528   0.85618   0.00000  Uiso   1.00
C1702  C     0.80399   0.86512   0.89941   0.00000  Uiso   1.00
C1703  C     0.86246   0.80262   0.60194   0.00000  Uiso   1.00
C1704  C     0.76304   0.89798   0.96194   0.00000  Uiso   1.00
C1705  C     0.70507   0.89112   0.56654   0.00000  Uiso   1.00
C1706  C     0.82685   0.84700   0.91950   0.00000  Uiso   1.00
C1707  C     0.67265   0.87838   0.54205   0.00000  Uiso   1.00
C1708  C     0.96252   0.85921   0.56653   0.00000  Uiso   1.00
C1709  C     0.69062   0.91084   0.72483   0.00000  Uiso   1.00
C1710  C     0.72947   0.93510   0.69838   0.00000  Uiso   1.00
C1711  C     0.73053   0.98207   0.71083   0.00000  Uiso   1.00
C1712  C     0.77731   0.95109   0.89109   0.00000  Uiso   1.00
C1713  C     0.76377   0.98799   0.92214   0.00000  Uiso   1.00
C1714  C     0.78725   0.69611   0.90785   0.00000  Uiso   1.00
C1715  C     0.90003   0.86166   0.89803   0.00000  Uiso   1.00
C1716  C     0.94191   0.84314   0.87529   0.00000  Uiso   1.00
C1717  C     0.81280   0.84850   0.96106   0.00000  Uiso   1.00
C1718  C     0.98146   0.87564   0.87292   0.00000  Uiso   1.00
C1719  C     0.78246   0.87654   0.98223   0.00000  Uiso   1.00
C1720  C     0.82931   0.82414   0.98210   0.00000  Uiso   1.00
C1721  C     0.82313   0.83472   0.52316   0.00000  Uiso   1.00
C1722  C     0.79445   0.86446   0.54310   0.00000  Uiso   1.00
C1723  C     0.77220   0.88318   0.52340   0.00000  Uiso   1.00
F1724  F     0.78409   0.99724   0.79169   0.00000  Uiso   1.00
H1725  H     0.90360   0.73059   0.52699   0.00000  Uiso   1.00
H1726  H     0.69086   0.91347   0.59207   0.00000  Uiso   1.00
H1727  H     0.71008   0.86345   0.57901   0.00000  Uiso   1.00
H1728  H     0.66753   0.90633   0.53026   0.00000  Uiso   1.00
H1729  H     0.68581   0.85515   0.51691   0.00000  Uiso   1.00
H1730  H     0.96668   0.83079   0.57816   0.00000  Uiso   1.00
H1731  H     0.94005   0.85030   0.54778   0.00000  Uiso   1.00
H1732  H     0.94802   0.88208   0.59143   0.00000  Uiso   1.00
H1733  H     0.69357   0.91695   0.75553   0.00000  Uiso   1.00
H1734  H     0.99370   0.92225   0.72387   0.00000  Uiso   1.00
H1735  H     0.75986   0.92453   0.69990   0.00000  Uiso   1.00
H1736  H     0.98479   0.80393   0.78217   0.00000  Uiso   1.00
H1737  H     0.72778   0.92867   0.66744   0.00000  Uiso   1.00
H1738  H     0.70128   0.99363   0.70790   0.00000  Uiso   1.00
H1739  H     0.75972   0.99864   0.69174   0.00000  Uiso   1.00
H1740  H     0.73183   0.98924   0.74179   0.00000  Uiso   1.00
H1741  H     0.77136   0.95673   0.86335   0.00000  Uiso   1.00
H1742  H     0.81294   0.94968   0.88428   0.00000  Uiso   1.00
H1743  H     0.72824   0.98882   0.92894   0.00000  Uiso   1.00
H1744  H     0.77157   0.98413   0.94953   0.00000  Uiso   1.00
H1745  H     0.82285   0.69624   0.90157   0.00000  Uiso   1.00
H1746  H     0.77679   0.72216   0.93096   0.00000  Uiso   1.00
H1747  H     0.87313   0.66888   0.71533   0.00000  Uiso   1.00
H1748  H     0.77949   0.70130   0.88081   0.00000  Uiso   1.00
H1749  H     0.90183   0.87309   0.92853   0.00000  Uiso   1.00
H1750  H     0.89699   0.88845   0.88327   0.00000  Uiso   1.00
H1751  H     0.94551   0.81666   0.89000   0.00000  Uiso   1.00
H1752  H     0.94012   0.83099   0.84507   0.00000  Uiso   1.00
H1753  H     0.97920   0.90175   0.85714   0.00000  Uiso   1.00
H1754  H     0.67792   0.86092   0.85665   0.00000  Uiso   1.00
H1755  H     0.98399   0.88815   0.90288   0.00000  Uiso   1.00
H1756  H     0.82839   0.85212   0.59988   0.00000  Uiso   1.00
H1757  H     0.89791   0.75021   0.59699   0.00000  Uiso   1.00
H1758  H     0.88413   0.73915   0.96831   0.00000  Uiso   1.00
H1759  H     0.73938   0.91906   0.97775   0.00000  Uiso   1.00
H1760  H     0.78679   0.87260   0.57444   0.00000  Uiso   1.00
H1761  H     0.84962   0.77484   0.93427   0.00000  Uiso   1.00
O1762  O     0.83333   0.83333   0.75000   0.00000  Uiso   1.00
O1763  O     0.82360   0.79060   0.66625   0.00000  Uiso   1.00
O1764  O     0.79354   0.87313   0.83749   0.00000  Uiso   1.00
O1765  O     0.87755   0.84159   0.65877   0.00000  Uiso   1.00
O1766  O     0.83865   0.82802   0.83749   0.00000  Uiso   1.00
O1767  O     0.74397   0.91192   0.54417   0.00000  Uiso   1.00
O1768  O     0.69044   0.86789   0.71100   0.00000  Uiso   1.00
O1769  O     0.75181   0.91339   0.90281   0.00000  Uiso   1.00
O1770  O     0.86474   0.83037   0.89836   0.00000  Uiso   1.00
O1771  O     0.84515   0.74768   0.77821   0.00000  Uiso   1.00
O1772  O     0.81247   0.92803   0.76767   0.00000  Uiso   1.00
O1773  O     0.74119   0.79917   0.73607   0.00000  Uiso   1.00
O1774  O     0.93452   0.85845   0.71806   0.00000  Uiso   1.00
O1775  O     0.73656   0.85627   0.77820   0.00000  Uiso   1.00
O1776  O     0.92106   0.81944   0.76768   0.00000  Uiso   1.00
O1777  O     0.80467   0.73570   0.73607   0.00000  Uiso   1.00
O1778  O     0.87104   0.92193   0.71805   0.00000  Uiso   1.00
Zn1779 Zn    0.85910   0.80756   0.78278   0.00000  Uiso   1.00
Zn1780 Zn    0.80125   0.79044   0.72258   0.00000  Uiso   1.00
Zn1781 Zn    0.87833   0.86331   0.71188   0.00000  Uiso   1.00
Zn1782 Zn    0.79465   0.87202   0.78277   0.00000  Uiso   1.00
loop_
_geom_bond_atom_site_label_1
_geom_bond_atom_site_label_2
_geom_bond_distance
_geom_bond_site_symmetry_2
_ccdc_geom_bond_type
C1     O90     1.265   .     A
C1     C11     1.436   .     S
C1     O92     1.269   .     A
C2     H78     1.079   .     S
C2     C3      1.385   .     A
C2     C37     1.413   .     A
C3     H75     1.084   .     S
C3     C896    1.391   .     S
C4     O91     1.284   .     A
C4     C10     1.461   .     S
C4     O93     1.283   .     A
C5     C7      1.403   .     A
C5     C6      1.421   .     A
C5     C894    1.391   1_554 S
C6     C38     1.425   .     A
C6     C9      1.409   .     A
C7     C8      1.390   .     A
C7     H42     1.084   .     S
C8     C20     1.395   .     A
C8     H74     1.083   .     S
C9     H73     1.078   .     S
C9     C20     1.392   .     A
C10    C110    1.338   .     S
C10    O184    1.387   .     S
C11    C208    1.338   1_455 S
C11    H251    1.085   1_455 S
C12    C21     1.393   .     A
C12    O86     1.384   .     S
C12    C19     1.415   .     A
C13    C16     1.451   .     S
C13    C311    1.336   .     S
C13    H361    1.088   .     S
C14    C15     1.431   .     S
C14    C607    1.336   1_545 S
C14    F635    1.361   1_545 S
C15    O94     1.276   .     A
C15    O88     1.274   .     A
C16    O89     1.267   .     A
C16    O95     1.272   .     A
C17    C20     1.449   .     S
C17    O82     1.274   .     A
C17    O80     1.269   .     A
C18    O81     1.282   .     A
C18    C19     1.484   .     S
C18    O83     1.290   .     A
C19    C23     1.410   .     A
C21    C36     1.402   .     A
C21    H76     1.083   .     S
C22    H44     1.116   .     S
C22    O84     1.417   .     S
C22    H43     1.111   .     S
C22    C24     1.533   .     S
C23    O87     1.384   .     S
C23    C34     1.418   .     A
C24    H45     1.112   .     S
C24    H46     1.111   .     S
C24    C223    1.525   1_455 S
C25    H47     1.111   .     S
C25    H48     1.110   .     S
C25    H49     1.111   .     S
C25    C123    1.525   .     S
C26    C27     1.528   .     S
C26    H50     1.117   .     S
C26    O85     1.412   .     S
C26    H249    1.113   1_455 S
C27    H54     1.112   .     S
C27    H52     1.112   .     S
C27    C28     1.526   .     S
C28    H56     1.110   .     S
C28    H57     1.110   .     S
C28    H55     1.111   .     S
C29    H59     1.118   .     S
C29    C30     1.532   .     S
C29    O86     1.419   .     S
C29    H58     1.111   .     S
C30    H60     1.112   .     S
C30    H61     1.110   .     S
C30    C328    1.527   .     S
C31    H62     1.111   .     S
C31    H63     1.111   .     S
C31    H65     1.111   .     S
C31    C624    1.527   1_545 S
C32    O87     1.413   .     S
C32    H67     1.115   .     S
C32    H66     1.115   .     S
C32    C33     1.527   .     S
C33    H69     1.110   .     S
C33    C35     1.527   .     S
C33    H68     1.112   .     S
C34    C37     1.424   .     A
C34    C36     1.417   .     A
C35    H70     1.111   .     S
C35    H72     1.111   .     S
C35    H170    1.110   .     S
C36    C931    1.403   .     S
C37    C929    1.420   .     S
C38    C39     1.412   .     A
C38    C928    1.420   1_554 S
C39    H77     1.077   .     S
C39    C40     1.396   .     A
C40    O84     1.387   .     S
C40    C927    1.403   1_554 S
F41    C311    1.361   .     S
H51    C125    1.113   .     S
H53    C110    1.085   .     S
H64    C607    1.088   1_545 S
H71    C233    1.110   1_455 S
O79    Zn98    1.936   .     S
O79    Zn99    1.928   .     S
O79    Zn97    1.937   .     S
O79    Zn96    1.965   .     S
O80    Zn97    1.933   .     S
O81    Zn99    1.944   .     S
O82    Zn98    1.933   .     S
O83    Zn96    1.925   .     S
O85    C208    1.387   1_455 S
O88    Zn96    1.928   .     S
O89    Zn99    1.935   .     S
O90    Zn97    1.923   .     S
O91    Zn98    1.934   .     S
O92    Zn99    1.927   .     S
O93    Zn96    1.919   .     S
O94    Zn97    1.942   .     S
O95    Zn98    1.931   .     S
C100   O189    1.265   .     A
C100   C110    1.436   .     S
C100   O191    1.269   .     A
C101   H177    1.079   .     S
C101   C102    1.385   .     A
C101   C136    1.413   .     A
C102   H174    1.084   .     S
C102   C995    1.391   .     S
C103   O190    1.284   .     A
C103   C109    1.461   .     S
C103   O192    1.283   .     A
C104   C106    1.403   .     A
C104   C105    1.421   .     A
C104   C993    1.391   1_554 S
C105   C137    1.425   .     A
C105   C108    1.409   .     A
C106   C107    1.390   .     A
C106   H141    1.084   .     S
C107   C119    1.395   .     A
C107   H173    1.083   .     S
C108   H172    1.078   .     S
C108   C119    1.392   .     A
C109   C209    1.338   .     S
C109   O283    1.387   .     S
C111   C120    1.393   .     A
C111   O185    1.384   .     S
C111   C118    1.415   .     A
C112   C115    1.451   .     S
C112   C410    1.336   .     S
C112   H460    1.088   .     S
C113   C114    1.431   .     S
C113   C706    1.336   1_545 S
C113   F734    1.361   1_545 S
C114   O193    1.276   .     A
C114   O187    1.274   .     A
C115   O188    1.267   .     A
C115   O194    1.272   .     A
C116   C119    1.449   .     S
C116   O181    1.274   .     A
C116   O179    1.269   .     A
C117   O180    1.282   .     A
C117   C118    1.484   .     S
C117   O182    1.290   .     A
C118   C122    1.410   .     A
C120   C135    1.402   .     A
C120   H175    1.083   .     S
C121   H143    1.116   .     S
C121   O183    1.417   .     S
C121   H142    1.111   .     S
C121   C123    1.533   .     S
C122   O186    1.384   .     S
C122   C133    1.418   .     A
C123   H144    1.112   .     S
C123   H145    1.111   .     S
C124   H146    1.111   .     S
C124   H147    1.110   .     S
C124   H148    1.111   .     S
C124   C222    1.525   .     S
C125   C126    1.528   .     S
C125   H149    1.117   .     S
C125   O184    1.412   .     S
C126   H153    1.112   .     S
C126   H151    1.112   .     S
C126   C127    1.526   .     S
C127   H155    1.110   .     S
C127   H156    1.110   .     S
C127   H154    1.111   .     S
C128   H158    1.118   .     S
C128   C129    1.532   .     S
C128   O185    1.419   .     S
C128   H157    1.111   .     S
C129   H159    1.112   .     S
C129   H160    1.110   .     S
C129   C427    1.527   .     S
C130   H161    1.111   .     S
C130   H162    1.111   .     S
C130   H164    1.111   .     S
C130   C723    1.527   1_545 S
C131   O186    1.413   .     S
C131   H166    1.115   .     S
C131   H165    1.115   .     S
C131   C132    1.527   .     S
C132   H168    1.110   .     S
C132   C134    1.527   .     S
C132   H167    1.112   .     S
C133   C136    1.424   .     A
C133   C135    1.417   .     A
C134   H169    1.111   .     S
C134   H171    1.111   .     S
C134   H269    1.110   .     S
C135   C1030   1.403   .     S
C136   C1028   1.420   .     S
C137   C138    1.412   .     A
C137   C1027   1.420   1_554 S
C138   H176    1.077   .     S
C138   C139    1.396   .     A
C139   O183    1.387   .     S
C139   C1026   1.403   1_554 S
F140   C410    1.361   .     S
H150   C224    1.113   .     S
H152   C209    1.085   .     S
H163   C706    1.088   1_545 S
O178   Zn197   1.936   .     S
O178   Zn198   1.928   .     S
O178   Zn196   1.937   .     S
O178   Zn195   1.965   .     S
O179   Zn196   1.933   .     S
O180   Zn198   1.944   .     S
O181   Zn197   1.933   .     S
O182   Zn195   1.925   .     S
O187   Zn195   1.928   .     S
O188   Zn198   1.935   .     S
O189   Zn196   1.923   .     S
O190   Zn197   1.934   .     S
O191   Zn198   1.927   .     S
O192   Zn195   1.919   .     S
O193   Zn196   1.942   .     S
O194   Zn197   1.931   .     S
C199   O288    1.265   .     A
C199   C209    1.436   .     S
C199   O290    1.269   .     A
C200   H276    1.079   .     S
C200   C201    1.385   .     A
C200   C235    1.413   .     A
C201   H273    1.084   .     S
C201   C1094   1.391   .     S
C202   O289    1.284   .     A
C202   C208    1.461   .     S
C202   O291    1.283   .     A
C203   C205    1.403   .     A
C203   C204    1.421   .     A
C203   C1092   1.391   1_554 S
C204   C236    1.425   .     A
C204   C207    1.409   .     A
C205   C206    1.390   .     A
C205   H240    1.084   .     S
C206   C218    1.395   .     A
C206   H272    1.083   .     S
C207   H271    1.078   .     S
C207   C218    1.392   .     A
C208   C11     1.338   1_655 S
C208   O85     1.387   1_655 S
C210   C219    1.393   .     A
C210   O284    1.384   .     S
C210   C217    1.415   .     A
C211   C214    1.451   .     S
C211   C509    1.336   .     S
C211   H559    1.088   .     S
C212   C213    1.431   .     S
C212   C805    1.336   1_545 S
C212   F833    1.361   1_545 S
C213   O292    1.276   .     A
C213   O286    1.274   .     A
C214   O287    1.267   .     A
C214   O293    1.272   .     A
C215   C218    1.449   .     S
C215   O280    1.274   .     A
C215   O278    1.269   .     A
C216   O279    1.282   .     A
C216   C217    1.484   .     S
C216   O281    1.290   .     A
C217   C221    1.410   .     A
C219   C234    1.402   .     A
C219   H274    1.083   .     S
C220   H242    1.116   .     S
C220   O282    1.417   .     S
C220   H241    1.111   .     S
C220   C222    1.533   .     S
C221   O285    1.384   .     S
C221   C232    1.418   .     A
C222   H243    1.112   .     S
C222   H244    1.111   .     S
C223   H245    1.111   .     S
C223   H246    1.110   .     S
C223   H247    1.111   .     S
C223   C24     1.525   1_655 S
C224   C225    1.528   .     S
C224   H248    1.117   .     S
C224   O283    1.412   .     S
C225   H252    1.112   .     S
C225   H250    1.112   .     S
C225   C226    1.526   .     S
C226   H254    1.110   .     S
C226   H255    1.110   .     S
C226   H253    1.111   .     S
C227   H257    1.118   .     S
C227   C228    1.532   .     S
C227   O284    1.419   .     S
C227   H256    1.111   .     S
C228   H258    1.112   .     S
C228   H259    1.110   .     S
C228   C526    1.527   .     S
C229   H260    1.111   .     S
C229   H261    1.111   .     S
C229   H263    1.111   .     S
C229   C822    1.527   1_545 S
C230   O285    1.413   .     S
C230   H265    1.115   .     S
C230   H264    1.115   .     S
C230   C231    1.527   .     S
C231   H267    1.110   .     S
C231   C233    1.527   .     S
C231   H266    1.112   .     S
C232   C235    1.424   .     A
C232   C234    1.417   .     A
C233   H268    1.111   .     S
C233   H270    1.111   .     S
C233   H71     1.110   1_655 S
C234   C1129   1.403   .     S
C235   C1127   1.420   .     S
C236   C237    1.412   .     A
C236   C1126   1.420   1_554 S
C237   H275    1.077   .     S
C237   C238    1.396   .     A
C238   O282    1.387   .     S
C238   C1125   1.403   1_554 S
F239   C509    1.361   .     S
H249   C26     1.113   1_655 S
H251   C11     1.085   1_655 S
H262   C805    1.088   1_545 S
O277   Zn296   1.936   .     S
O277   Zn297   1.928   .     S
O277   Zn295   1.937   .     S
O277   Zn294   1.965   .     S
O278   Zn295   1.933   .     S
O279   Zn297   1.944   .     S
O280   Zn296   1.933   .     S
O281   Zn294   1.925   .     S
O286   Zn294   1.928   .     S
O287   Zn297   1.935   .     S
O288   Zn295   1.923   .     S
O289   Zn296   1.934   .     S
O290   Zn297   1.927   .     S
O291   Zn294   1.919   .     S
O292   Zn295   1.942   .     S
O293   Zn296   1.931   .     S
C298   O387    1.265   .     A
C298   C308    1.436   .     S
C298   O389    1.269   .     A
C299   H375    1.079   .     S
C299   C300    1.385   .     A
C299   C334    1.413   .     A
C300   H372    1.084   .     S
C300   C1193   1.391   .     S
C301   O388    1.284   .     A
C301   C307    1.461   .     S
C301   O390    1.283   .     A
C302   C304    1.403   .     A
C302   C303    1.421   .     A
C302   C1191   1.391   1_554 S
C303   C335    1.425   .     A
C303   C306    1.409   .     A
C304   C305    1.390   .     A
C304   H339    1.084   .     S
C305   C317    1.395   .     A
C305   H371    1.083   .     S
C306   H370    1.078   .     S
C306   C317    1.392   .     A
C307   C407    1.338   .     S
C307   O481    1.387   .     S
C308   C505    1.338   1_455 S
C308   H548    1.085   1_455 S
C309   C318    1.393   .     A
C309   O383    1.384   .     S
C309   C316    1.415   .     A
C310   C313    1.451   .     S
C310   C608    1.336   .     S
C310   H658    1.088   .     S
C311   C312    1.431   .     S
C312   O391    1.276   .     A
C312   O385    1.274   .     A
C313   O386    1.267   .     A
C313   O392    1.272   .     A
C314   C317    1.449   .     S
C314   O379    1.274   .     A
C314   O377    1.269   .     A
C315   O378    1.282   .     A
C315   C316    1.484   .     S
C315   O380    1.290   .     A
C316   C320    1.410   .     A
C318   C333    1.402   .     A
C318   H373    1.083   .     S
C319   H341    1.116   .     S
C319   O381    1.417   .     S
C319   H340    1.111   .     S
C319   C321    1.533   .     S
C320   O384    1.384   .     S
C320   C331    1.418   .     A
C321   H342    1.112   .     S
C321   H343    1.111   .     S
C321   C520    1.525   1_455 S
C322   H344    1.111   .     S
C322   H345    1.110   .     S
C322   H346    1.111   .     S
C322   C420    1.525   .     S
C323   C324    1.528   .     S
C323   H347    1.117   .     S
C323   O382    1.412   .     S
C323   H546    1.113   1_455 S
C324   H351    1.112   .     S
C324   H349    1.112   .     S
C324   C325    1.526   .     S
C325   H353    1.110   .     S
C325   H354    1.110   .     S
C325   H352    1.111   .     S
C326   H356    1.118   .     S
C326   C327    1.532   .     S
C326   O383    1.419   .     S
C326   H355    1.111   .     S
C327   H357    1.112   .     S
C327   H358    1.110   .     S
C327   C625    1.527   .     S
C328   H359    1.111   .     S
C328   H360    1.111   .     S
C328   H362    1.111   .     S
C329   O384    1.413   .     S
C329   H364    1.115   .     S
C329   H363    1.115   .     S
C329   C330    1.527   .     S
C330   H366    1.110   .     S
C330   C332    1.527   .     S
C330   H365    1.112   .     S
C331   C334    1.424   .     A
C331   C333    1.417   .     A
C332   H367    1.111   .     S
C332   H369    1.111   .     S
C332   H467    1.110   .     S
C333   C1228   1.403   .     S
C334   C1226   1.420   .     S
C335   C336    1.412   .     A
C335   C1225   1.420   1_554 S
C336   H374    1.077   .     S
C336   C337    1.396   .     A
C337   O381    1.387   .     S
C337   C1224   1.403   1_554 S
F338   C608    1.361   .     S
H348   C422    1.113   .     S
H350   C407    1.085   .     S
H368   C530    1.110   1_455 S
O376   Zn395   1.936   .     S
O376   Zn396   1.928   .     S
O376   Zn394   1.937   .     S
O376   Zn393   1.965   .     S
O377   Zn394   1.933   .     S
O378   Zn396   1.944   .     S
O379   Zn395   1.933   .     S
O380   Zn393   1.925   .     S
O382   C505    1.387   1_455 S
O385   Zn393   1.928   .     S
O386   Zn396   1.935   .     S
O387   Zn394   1.923   .     S
O388   Zn395   1.934   .     S
O389   Zn396   1.927   .     S
O390   Zn393   1.919   .     S
O391   Zn394   1.942   .     S
O392   Zn395   1.931   .     S
C397   O486    1.265   .     A
C397   C407    1.436   .     S
C397   O488    1.269   .     A
C398   H474    1.079   .     S
C398   C399    1.385   .     A
C398   C433    1.413   .     A
C399   H471    1.084   .     S
C399   C1292   1.391   .     S
C400   O487    1.284   .     A
C400   C406    1.461   .     S
C400   O489    1.283   .     A
C401   C403    1.403   .     A
C401   C402    1.421   .     A
C401   C1290   1.391   1_554 S
C402   C434    1.425   .     A
C402   C405    1.409   .     A
C403   C404    1.390   .     A
C403   H438    1.084   .     S
C404   C416    1.395   .     A
C404   H470    1.083   .     S
C405   H469    1.078   .     S
C405   C416    1.392   .     A
C406   C506    1.338   .     S
C406   O580    1.387   .     S
C408   C417    1.393   .     A
C408   O482    1.384   .     S
C408   C415    1.415   .     A
C409   C412    1.451   .     S
C409   C707    1.336   .     S
C409   H757    1.088   .     S
C410   C411    1.431   .     S
C411   O490    1.276   .     A
C411   O484    1.274   .     A
C412   O485    1.267   .     A
C412   O491    1.272   .     A
C413   C416    1.449   .     S
C413   O478    1.274   .     A
C413   O476    1.269   .     A
C414   O477    1.282   .     A
C414   C415    1.484   .     S
C414   O479    1.290   .     A
C415   C419    1.410   .     A
C417   C432    1.402   .     A
C417   H472    1.083   .     S
C418   H440    1.116   .     S
C418   O480    1.417   .     S
C418   H439    1.111   .     S
C418   C420    1.533   .     S
C419   O483    1.384   .     S
C419   C430    1.418   .     A
C420   H441    1.112   .     S
C420   H442    1.111   .     S
C421   H443    1.111   .     S
C421   H444    1.110   .     S
C421   H445    1.111   .     S
C421   C519    1.525   .     S
C422   C423    1.528   .     S
C422   H446    1.117   .     S
C422   O481    1.412   .     S
C423   H450    1.112   .     S
C423   H448    1.112   .     S
C423   C424    1.526   .     S
C424   H452    1.110   .     S
C424   H453    1.110   .     S
C424   H451    1.111   .     S
C425   H455    1.118   .     S
C425   C426    1.532   .     S
C425   O482    1.419   .     S
C425   H454    1.111   .     S
C426   H456    1.112   .     S
C426   H457    1.110   .     S
C426   C724    1.527   .     S
C427   H458    1.111   .     S
C427   H459    1.111   .     S
C427   H461    1.111   .     S
C428   O483    1.413   .     S
C428   H463    1.115   .     S
C428   H462    1.115   .     S
C428   C429    1.527   .     S
C429   H465    1.110   .     S
C429   C431    1.527   .     S
C429   H464    1.112   .     S
C430   C433    1.424   .     A
C430   C432    1.417   .     A
C431   H466    1.111   .     S
C431   H468    1.111   .     S
C431   H566    1.110   .     S
C432   C1327   1.403   .     S
C433   C1325   1.420   .     S
C434   C435    1.412   .     A
C434   C1324   1.420   1_554 S
C435   H473    1.077   .     S
C435   C436    1.396   .     A
C436   O480    1.387   .     S
C436   C1323   1.403   1_554 S
F437   C707    1.361   .     S
H447   C521    1.113   .     S
H449   C506    1.085   .     S
O475   Zn494   1.936   .     S
O475   Zn495   1.928   .     S
O475   Zn493   1.937   .     S
O475   Zn492   1.965   .     S
O476   Zn493   1.933   .     S
O477   Zn495   1.944   .     S
O478   Zn494   1.933   .     S
O479   Zn492   1.925   .     S
O484   Zn492   1.928   .     S
O485   Zn495   1.935   .     S
O486   Zn493   1.923   .     S
O487   Zn494   1.934   .     S
O488   Zn495   1.927   .     S
O489   Zn492   1.919   .     S
O490   Zn493   1.942   .     S
O491   Zn494   1.931   .     S
C496   O585    1.265   .     A
C496   C506    1.436   .     S
C496   O587    1.269   .     A
C497   H573    1.079   .     S
C497   C498    1.385   .     A
C497   C532    1.413   .     A
C498   H570    1.084   .     S
C498   C1391   1.391   .     S
C499   O586    1.284   .     A
C499   C505    1.461   .     S
C499   O588    1.283   .     A
C500   C502    1.403   .     A
C500   C501    1.421   .     A
C500   C1389   1.391   1_554 S
C501   C533    1.425   .     A
C501   C504    1.409   .     A
C502   C503    1.390   .     A
C502   H537    1.084   .     S
C503   C515    1.395   .     A
C503   H569    1.083   .     S
C504   H568    1.078   .     S
C504   C515    1.392   .     A
C505   C308    1.338   1_655 S
C505   O382    1.387   1_655 S
C507   C516    1.393   .     A
C507   O581    1.384   .     S
C507   C514    1.415   .     A
C508   C511    1.451   .     S
C508   C806    1.336   .     S
C508   H856    1.088   .     S
C509   C510    1.431   .     S
C510   O589    1.276   .     A
C510   O583    1.274   .     A
C511   O584    1.267   .     A
C511   O590    1.272   .     A
C512   C515    1.449   .     S
C512   O577    1.274   .     A
C512   O575    1.269   .     A
C513   O576    1.282   .     A
C513   C514    1.484   .     S
C513   O578    1.290   .     A
C514   C518    1.410   .     A
C516   C531    1.402   .     A
C516   H571    1.083   .     S
C517   H539    1.116   .     S
C517   O579    1.417   .     S
C517   H538    1.111   .     S
C517   C519    1.533   .     S
C518   O582    1.384   .     S
C518   C529    1.418   .     A
C519   H540    1.112   .     S
C519   H541    1.111   .     S
C520   H542    1.111   .     S
C520   H543    1.110   .     S
C520   H544    1.111   .     S
C520   C321    1.525   1_655 S
C521   C522    1.528   .     S
C521   H545    1.117   .     S
C521   O580    1.412   .     S
C522   H549    1.112   .     S
C522   H547    1.112   .     S
C522   C523    1.526   .     S
C523   H551    1.110   .     S
C523   H552    1.110   .     S
C523   H550    1.111   .     S
C524   H554    1.118   .     S
C524   C525    1.532   .     S
C524   O581    1.419   .     S
C524   H553    1.111   .     S
C525   H555    1.112   .     S
C525   H556    1.110   .     S
C525   C823    1.527   .     S
C526   H557    1.111   .     S
C526   H558    1.111   .     S
C526   H560    1.111   .     S
C527   O582    1.413   .     S
C527   H562    1.115   .     S
C527   H561    1.115   .     S
C527   C528    1.527   .     S
C528   H564    1.110   .     S
C528   C530    1.527   .     S
C528   H563    1.112   .     S
C529   C532    1.424   .     A
C529   C531    1.417   .     A
C530   H565    1.111   .     S
C530   H567    1.111   .     S
C530   H368    1.110   1_655 S
C531   C1426   1.403   .     S
C532   C1424   1.420   .     S
C533   C534    1.412   .     A
C533   C1423   1.420   1_554 S
C534   H572    1.077   .     S
C534   C535    1.396   .     A
C535   O579    1.387   .     S
C535   C1422   1.403   1_554 S
F536   C806    1.361   .     S
H546   C323    1.113   1_655 S
H548   C308    1.085   1_655 S
O574   Zn593   1.936   .     S
O574   Zn594   1.928   .     S
O574   Zn592   1.937   .     S
O574   Zn591   1.965   .     S
O575   Zn592   1.933   .     S
O576   Zn594   1.944   .     S
O577   Zn593   1.933   .     S
O578   Zn591   1.925   .     S
O583   Zn591   1.928   .     S
O584   Zn594   1.935   .     S
O585   Zn592   1.923   .     S
O586   Zn593   1.934   .     S
O587   Zn594   1.927   .     S
O588   Zn591   1.919   .     S
O589   Zn592   1.942   .     S
O590   Zn593   1.931   .     S
C595   O684    1.265   .     A
C595   C605    1.436   .     S
C595   O686    1.269   .     A
C596   H672    1.079   .     S
C596   C597    1.385   .     A
C596   C631    1.413   .     A
C597   H669    1.084   .     S
C597   C1490   1.391   .     S
C598   O685    1.284   .     A
C598   C604    1.461   .     S
C598   O687    1.283   .     A
C599   C601    1.403   .     A
C599   C600    1.421   .     A
C599   C1488   1.391   1_554 S
C600   C632    1.425   .     A
C600   C603    1.409   .     A
C601   C602    1.390   .     A
C601   H636    1.084   .     S
C602   C614    1.395   .     A
C602   H668    1.083   .     S
C603   H667    1.078   .     S
C603   C614    1.392   .     A
C604   C704    1.338   .     S
C604   O778    1.387   .     S
C605   C802    1.338   1_455 S
C605   H845    1.085   1_455 S
C606   C615    1.393   .     A
C606   O680    1.384   .     S
C606   C613    1.415   .     A
C607   C610    1.451   .     S
C607   C14     1.336   1_565 S
C607   H64     1.088   1_565 S
C608   C609    1.431   .     S
C609   O688    1.276   .     A
C609   O682    1.274   .     A
C610   O683    1.267   .     A
C610   O689    1.272   .     A
C611   C614    1.449   .     S
C611   O676    1.274   .     A
C611   O674    1.269   .     A
C612   O675    1.282   .     A
C612   C613    1.484   .     S
C612   O677    1.290   .     A
C613   C617    1.410   .     A
C615   C630    1.402   .     A
C615   H670    1.083   .     S
C616   H638    1.116   .     S
C616   O678    1.417   .     S
C616   H637    1.111   .     S
C616   C618    1.533   .     S
C617   O681    1.384   .     S
C617   C628    1.418   .     A
C618   H639    1.112   .     S
C618   H640    1.111   .     S
C618   C817    1.525   1_455 S
C619   H641    1.111   .     S
C619   H642    1.110   .     S
C619   H643    1.111   .     S
C619   C717    1.525   .     S
C620   C621    1.528   .     S
C620   H644    1.117   .     S
C620   O679    1.412   .     S
C620   H843    1.113   1_455 S
C621   H648    1.112   .     S
C621   H646    1.112   .     S
C621   C622    1.526   .     S
C622   H650    1.110   .     S
C622   H651    1.110   .     S
C622   H649    1.111   .     S
C623   H653    1.118   .     S
C623   C624    1.532   .     S
C623   O680    1.419   .     S
C623   H652    1.111   .     S
C624   H654    1.112   .     S
C624   H655    1.110   .     S
C624   C31     1.527   1_565 S
C625   H656    1.111   .     S
C625   H657    1.111   .     S
C625   H659    1.111   .     S
C626   O681    1.413   .     S
C626   H661    1.115   .     S
C626   H660    1.115   .     S
C626   C627    1.527   .     S
C627   H663    1.110   .     S
C627   C629    1.527   .     S
C627   H662    1.112   .     S
C628   C631    1.424   .     A
C628   C630    1.417   .     A
C629   H664    1.111   .     S
C629   H666    1.111   .     S
C629   H764    1.110   .     S
C630   C1525   1.403   .     S
C631   C1523   1.420   .     S
C632   C633    1.412   .     A
C632   C1522   1.420   1_554 S
C633   H671    1.077   .     S
C633   C634    1.396   .     A
C634   O678    1.387   .     S
C634   C1521   1.403   1_554 S
F635   C14     1.361   1_565 S
H645   C719    1.113   .     S
H647   C704    1.085   .     S
H665   C827    1.110   1_455 S
O673   Zn692   1.936   .     S
O673   Zn693   1.928   .     S
O673   Zn691   1.937   .     S
O673   Zn690   1.965   .     S
O674   Zn691   1.933   .     S
O675   Zn693   1.944   .     S
O676   Zn692   1.933   .     S
O677   Zn690   1.925   .     S
O679   C802    1.387   1_455 S
O682   Zn690   1.928   .     S
O683   Zn693   1.935   .     S
O684   Zn691   1.923   .     S
O685   Zn692   1.934   .     S
O686   Zn693   1.927   .     S
O687   Zn690   1.919   .     S
O688   Zn691   1.942   .     S
O689   Zn692   1.931   .     S
C694   O783    1.265   .     A
C694   C704    1.436   .     S
C694   O785    1.269   .     A
C695   H771    1.079   .     S
C695   C696    1.385   .     A
C695   C730    1.413   .     A
C696   H768    1.084   .     S
C696   C1589   1.391   .     S
C697   O784    1.284   .     A
C697   C703    1.461   .     S
C697   O786    1.283   .     A
C698   C700    1.403   .     A
C698   C699    1.421   .     A
C698   C1587   1.391   1_554 S
C699   C731    1.425   .     A
C699   C702    1.409   .     A
C700   C701    1.390   .     A
C700   H735    1.084   .     S
C701   C713    1.395   .     A
C701   H767    1.083   .     S
C702   H766    1.078   .     S
C702   C713    1.392   .     A
C703   C803    1.338   .     S
C703   O877    1.387   .     S
C705   C714    1.393   .     A
C705   O779    1.384   .     S
C705   C712    1.415   .     A
C706   C709    1.451   .     S
C706   C113    1.336   1_565 S
C706   H163    1.088   1_565 S
C707   C708    1.431   .     S
C708   O787    1.276   .     A
C708   O781    1.274   .     A
C709   O782    1.267   .     A
C709   O788    1.272   .     A
C710   C713    1.449   .     S
C710   O775    1.274   .     A
C710   O773    1.269   .     A
C711   O774    1.282   .     A
C711   C712    1.484   .     S
C711   O776    1.290   .     A
C712   C716    1.410   .     A
C714   C729    1.402   .     A
C714   H769    1.083   .     S
C715   H737    1.116   .     S
C715   O777    1.417   .     S
C715   H736    1.111   .     S
C715   C717    1.533   .     S
C716   O780    1.384   .     S
C716   C727    1.418   .     A
C717   H738    1.112   .     S
C717   H739    1.111   .     S
C718   H740    1.111   .     S
C718   H741    1.110   .     S
C718   H742    1.111   .     S
C718   C816    1.525   .     S
C719   C720    1.528   .     S
C719   H743    1.117   .     S
C719   O778    1.412   .     S
C720   H747    1.112   .     S
C720   H745    1.112   .     S
C720   C721    1.526   .     S
C721   H749    1.110   .     S
C721   H750    1.110   .     S
C721   H748    1.111   .     S
C722   H752    1.118   .     S
C722   C723    1.532   .     S
C722   O779    1.419   .     S
C722   H751    1.111   .     S
C723   H753    1.112   .     S
C723   H754    1.110   .     S
C723   C130    1.527   1_565 S
C724   H755    1.111   .     S
C724   H756    1.111   .     S
C724   H758    1.111   .     S
C725   O780    1.413   .     S
C725   H760    1.115   .     S
C725   H759    1.115   .     S
C725   C726    1.527   .     S
C726   H762    1.110   .     S
C726   C728    1.527   .     S
C726   H761    1.112   .     S
C727   C730    1.424   .     A
C727   C729    1.417   .     A
C728   H763    1.111   .     S
C728   H765    1.111   .     S
C728   H863    1.110   .     S
C729   C1624   1.403   .     S
C730   C1622   1.420   .     S
C731   C732    1.412   .     A
C731   C1621   1.420   1_554 S
C732   H770    1.077   .     S
C732   C733    1.396   .     A
C733   O777    1.387   .     S
C733   C1620   1.403   1_554 S
F734   C113    1.361   1_565 S
H744   C818    1.113   .     S
H746   C803    1.085   .     S
O772   Zn791   1.936   .     S
O772   Zn792   1.928   .     S
O772   Zn790   1.937   .     S
O772   Zn789   1.965   .     S
O773   Zn790   1.933   .     S
O774   Zn792   1.944   .     S
O775   Zn791   1.933   .     S
O776   Zn789   1.925   .     S
O781   Zn789   1.928   .     S
O782   Zn792   1.935   .     S
O783   Zn790   1.923   .     S
O784   Zn791   1.934   .     S
O785   Zn792   1.927   .     S
O786   Zn789   1.919   .     S
O787   Zn790   1.942   .     S
O788   Zn791   1.931   .     S
C793   O882    1.265   .     A
C793   C803    1.436   .     S
C793   O884    1.269   .     A
C794   H870    1.079   .     S
C794   C795    1.385   .     A
C794   C829    1.413   .     A
C795   H867    1.084   .     S
C795   C1688   1.391   .     S
C796   O883    1.284   .     A
C796   C802    1.461   .     S
C796   O885    1.283   .     A
C797   C799    1.403   .     A
C797   C798    1.421   .     A
C797   C1686   1.391   1_554 S
C798   C830    1.425   .     A
C798   C801    1.409   .     A
C799   C800    1.390   .     A
C799   H834    1.084   .     S
C800   C812    1.395   .     A
C800   H866    1.083   .     S
C801   H865    1.078   .     S
C801   C812    1.392   .     A
C802   C605    1.338   1_655 S
C802   O679    1.387   1_655 S
C804   C813    1.393   .     A
C804   O878    1.384   .     S
C804   C811    1.415   .     A
C805   C808    1.451   .     S
C805   C212    1.336   1_565 S
C805   H262    1.088   1_565 S
C806   C807    1.431   .     S
C807   O886    1.276   .     A
C807   O880    1.274   .     A
C808   O881    1.267   .     A
C808   O887    1.272   .     A
C809   C812    1.449   .     S
C809   O874    1.274   .     A
C809   O872    1.269   .     A
C810   O873    1.282   .     A
C810   C811    1.484   .     S
C810   O875    1.290   .     A
C811   C815    1.410   .     A
C813   C828    1.402   .     A
C813   H868    1.083   .     S
C814   H836    1.116   .     S
C814   O876    1.417   .     S
C814   H835    1.111   .     S
C814   C816    1.533   .     S
C815   O879    1.384   .     S
C815   C826    1.418   .     A
C816   H837    1.112   .     S
C816   H838    1.111   .     S
C817   H839    1.111   .     S
C817   H840    1.110   .     S
C817   H841    1.111   .     S
C817   C618    1.525   1_655 S
C818   C819    1.528   .     S
C818   H842    1.117   .     S
C818   O877    1.412   .     S
C819   H846    1.112   .     S
C819   H844    1.112   .     S
C819   C820    1.526   .     S
C820   H848    1.110   .     S
C820   H849    1.110   .     S
C820   H847    1.111   .     S
C821   H851    1.118   .     S
C821   C822    1.532   .     S
C821   O878    1.419   .     S
C821   H850    1.111   .     S
C822   H852    1.112   .     S
C822   H853    1.110   .     S
C822   C229    1.527   1_565 S
C823   H854    1.111   .     S
C823   H855    1.111   .     S
C823   H857    1.111   .     S
C824   O879    1.413   .     S
C824   H859    1.115   .     S
C824   H858    1.115   .     S
C824   C825    1.527   .     S
C825   H861    1.110   .     S
C825   C827    1.527   .     S
C825   H860    1.112   .     S
C826   C829    1.424   .     A
C826   C828    1.417   .     A
C827   H862    1.111   .     S
C827   H864    1.111   .     S
C827   H665    1.110   1_655 S
C828   C1723   1.403   .     S
C829   C1721   1.420   .     S
C830   C831    1.412   .     A
C830   C1720   1.420   1_554 S
C831   H869    1.077   .     S
C831   C832    1.396   .     A
C832   O876    1.387   .     S
C832   C1719   1.403   1_554 S
F833   C212    1.361   1_565 S
H843   C620    1.113   1_655 S
H845   C605    1.085   1_655 S
O871   Zn890   1.936   .     S
O871   Zn891   1.928   .     S
O871   Zn889   1.937   .     S
O871   Zn888   1.965   .     S
O872   Zn889   1.933   .     S
O873   Zn891   1.944   .     S
O874   Zn890   1.933   .     S
O875   Zn888   1.925   .     S
O880   Zn888   1.928   .     S
O881   Zn891   1.935   .     S
O882   Zn889   1.923   .     S
O883   Zn890   1.934   .     S
O884   Zn891   1.927   .     S
O885   Zn888   1.919   .     S
O886   Zn889   1.942   .     S
O887   Zn890   1.931   .     S
C892   O981    1.265   .     A
C892   C902    1.436   .     S
C892   O983    1.269   .     A
C893   H969    1.079   .     S
C893   C894    1.385   .     A
C893   C928    1.413   .     A
C894   H966    1.084   .     S
C894   C5      1.391   1_556 S
C895   O982    1.284   .     A
C895   C901    1.461   .     S
C895   O984    1.283   .     A
C896   C898    1.403   .     A
C896   C897    1.421   .     A
C897   C929    1.425   .     A
C897   C900    1.409   .     A
C898   C899    1.390   .     A
C898   H933    1.084   .     S
C899   C911    1.395   .     A
C899   H965    1.083   .     S
C900   H964    1.078   .     S
C900   C911    1.392   .     A
C901   C1001   1.338   .     S
C901   O1075   1.387   .     S
C902   C1099   1.338   1_455 S
C902   H1142   1.085   1_455 S
C903   C912    1.393   .     A
C903   O977    1.384   .     S
C903   C910    1.415   .     A
C904   C907    1.451   .     S
C904   C1202   1.336   .     S
C904   H1252   1.088   .     S
C905   C906    1.431   .     S
C905   C1498   1.336   1_545 S
C905   F1526   1.361   1_545 S
C906   O985    1.276   .     A
C906   O979    1.274   .     A
C907   O980    1.267   .     A
C907   O986    1.272   .     A
C908   C911    1.449   .     S
C908   O973    1.274   .     A
C908   O971    1.269   .     A
C909   O972    1.282   .     A
C909   C910    1.484   .     S
C909   O974    1.290   .     A
C910   C914    1.410   .     A
C912   C927    1.402   .     A
C912   H967    1.083   .     S
C913   H935    1.116   .     S
C913   O975    1.417   .     S
C913   H934    1.111   .     S
C913   C915    1.533   .     S
C914   O978    1.384   .     S
C914   C925    1.418   .     A
C915   H936    1.112   .     S
C915   H937    1.111   .     S
C915   C1114   1.525   1_455 S
C916   H938    1.111   .     S
C916   H939    1.110   .     S
C916   H940    1.111   .     S
C916   C1014   1.525   .     S
C917   C918    1.528   .     S
C917   H941    1.117   .     S
C917   O976    1.412   .     S
C917   H1140   1.113   1_455 S
C918   H945    1.112   .     S
C918   H943    1.112   .     S
C918   C919    1.526   .     S
C919   H947    1.110   .     S
C919   H948    1.110   .     S
C919   H946    1.111   .     S
C920   H950    1.118   .     S
C920   C921    1.532   .     S
C920   O977    1.419   .     S
C920   H949    1.111   .     S
C921   H951    1.112   .     S
C921   H952    1.110   .     S
C921   C1219   1.527   .     S
C922   H953    1.111   .     S
C922   H954    1.111   .     S
C922   H956    1.111   .     S
C922   C1515   1.527   1_545 S
C923   O978    1.413   .     S
C923   H958    1.115   .     S
C923   H957    1.115   .     S
C923   C924    1.527   .     S
C924   H960    1.110   .     S
C924   C926    1.527   .     S
C924   H959    1.112   .     S
C925   C928    1.424   .     A
C925   C927    1.417   .     A
C926   H961    1.111   .     S
C926   H963    1.111   .     S
C926   H1061   1.110   .     S
C927   C40     1.403   1_556 S
C928   C38     1.420   1_556 S
C929   C930    1.412   .     A
C930   H968    1.077   .     S
C930   C931    1.396   .     A
C931   O975    1.387   .     S
F932   C1202   1.361   .     S
H942   C1016   1.113   .     S
H944   C1001   1.085   .     S
H955   C1498   1.088   1_545 S
H962   C1124   1.110   1_455 S
O970   Zn989   1.936   .     S
O970   Zn990   1.928   .     S
O970   Zn988   1.937   .     S
O970   Zn987   1.965   .     S
O971   Zn988   1.933   .     S
O972   Zn990   1.944   .     S
O973   Zn989   1.933   .     S
O974   Zn987   1.925   .     S
O976   C1099   1.387   1_455 S
O979   Zn987   1.928   .     S
O980   Zn990   1.935   .     S
O981   Zn988   1.923   .     S
O982   Zn989   1.934   .     S
O983   Zn990   1.927   .     S
O984   Zn987   1.919   .     S
O985   Zn988   1.942   .     S
O986   Zn989   1.931   .     S
C991   O1080   1.265   .     A
C991   C1001   1.436   .     S
C991   O1082   1.269   .     A
C992   H1068   1.079   .     S
C992   C993    1.385   .     A
C992   C1027   1.413   .     A
C993   H1065   1.084   .     S
C993   C104    1.391   1_556 S
C994   O1081   1.284   .     A
C994   C1000   1.461   .     S
C994   O1083   1.283   .     A
C995   C997    1.403   .     A
C995   C996    1.421   .     A
C996   C1028   1.425   .     A
C996   C999    1.409   .     A
C997   C998    1.390   .     A
C997   H1032   1.084   .     S
C998   C1010   1.395   .     A
C998   H1064   1.083   .     S
C999   H1063   1.078   .     S
C999   C1010   1.392   .     A
C1000  C1100   1.338   .     S
C1000  O1174   1.387   .     S
C1002  C1011   1.393   .     A
C1002  O1076   1.384   .     S
C1002  C1009   1.415   .     A
C1003  C1006   1.451   .     S
C1003  C1301   1.336   .     S
C1003  H1351   1.088   .     S
C1004  C1005   1.431   .     S
C1004  C1597   1.336   1_545 S
C1004  F1625   1.361   1_545 S
C1005  O1084   1.276   .     A
C1005  O1078   1.274   .     A
C1006  O1079   1.267   .     A
C1006  O1085   1.272   .     A
C1007  C1010   1.449   .     S
C1007  O1072   1.274   .     A
C1007  O1070   1.269   .     A
C1008  O1071   1.282   .     A
C1008  C1009   1.484   .     S
C1008  O1073   1.290   .     A
C1009  C1013   1.410   .     A
C1011  C1026   1.402   .     A
C1011  H1066   1.083   .     S
C1012  H1034   1.116   .     S
C1012  O1074   1.417   .     S
C1012  H1033   1.111   .     S
C1012  C1014   1.533   .     S
C1013  O1077   1.384   .     S
C1013  C1024   1.418   .     A
C1014  H1035   1.112   .     S
C1014  H1036   1.111   .     S
C1015  H1037   1.111   .     S
C1015  H1038   1.110   .     S
C1015  H1039   1.111   .     S
C1015  C1113   1.525   .     S
C1016  C1017   1.528   .     S
C1016  H1040   1.117   .     S
C1016  O1075   1.412   .     S
C1017  H1044   1.112   .     S
C1017  H1042   1.112   .     S
C1017  C1018   1.526   .     S
C1018  H1046   1.110   .     S
C1018  H1047   1.110   .     S
C1018  H1045   1.111   .     S
C1019  H1049   1.118   .     S
C1019  C1020   1.532   .     S
C1019  O1076   1.419   .     S
C1019  H1048   1.111   .     S
C1020  H1050   1.112   .     S
C1020  H1051   1.110   .     S
C1020  C1318   1.527   .     S
C1021  H1052   1.111   .     S
C1021  H1053   1.111   .     S
C1021  H1055   1.111   .     S
C1021  C1614   1.527   1_545 S
C1022  O1077   1.413   .     S
C1022  H1057   1.115   .     S
C1022  H1056   1.115   .     S
C1022  C1023   1.527   .     S
C1023  H1059   1.110   .     S
C1023  C1025   1.527   .     S
C1023  H1058   1.112   .     S
C1024  C1027   1.424   .     A
C1024  C1026   1.417   .     A
C1025  H1060   1.111   .     S
C1025  H1062   1.111   .     S
C1025  H1160   1.110   .     S
C1026  C139    1.403   1_556 S
C1027  C137    1.420   1_556 S
C1028  C1029   1.412   .     A
C1029  H1067   1.077   .     S
C1029  C1030   1.396   .     A
C1030  O1074   1.387   .     S
F1031  C1301   1.361   .     S
H1041  C1115   1.113   .     S
H1043  C1100   1.085   .     S
H1054  C1597   1.088   1_545 S
O1069  Zn1088  1.936   .     S
O1069  Zn1089  1.928   .     S
O1069  Zn1087  1.937   .     S
O1069  Zn1086  1.965   .     S
O1070  Zn1087  1.933   .     S
O1071  Zn1089  1.944   .     S
O1072  Zn1088  1.933   .     S
O1073  Zn1086  1.925   .     S
O1078  Zn1086  1.928   .     S
O1079  Zn1089  1.935   .     S
O1080  Zn1087  1.923   .     S
O1081  Zn1088  1.934   .     S
O1082  Zn1089  1.927   .     S
O1083  Zn1086  1.919   .     S
O1084  Zn1087  1.942   .     S
O1085  Zn1088  1.931   .     S
C1090  O1179   1.265   .     A
C1090  C1100   1.436   .     S
C1090  O1181   1.269   .     A
C1091  H1167   1.079   .     S
C1091  C1092   1.385   .     A
C1091  C1126   1.413   .     A
C1092  H1164   1.084   .     S
C1092  C203    1.391   1_556 S
C1093  O1180   1.284   .     A
C1093  C1099   1.461   .     S
C1093  O1182   1.283   .     A
C1094  C1096   1.403   .     A
C1094  C1095   1.421   .     A
C1095  C1127   1.425   .     A
C1095  C1098   1.409   .     A
C1096  C1097   1.390   .     A
C1096  H1131   1.084   .     S
C1097  C1109   1.395   .     A
C1097  H1163   1.083   .     S
C1098  H1162   1.078   .     S
C1098  C1109   1.392   .     A
C1099  C902    1.338   1_655 S
C1099  O976    1.387   1_655 S
C1101  C1110   1.393   .     A
C1101  O1175   1.384   .     S
C1101  C1108   1.415   .     A
C1102  C1105   1.451   .     S
C1102  C1400   1.336   .     S
C1102  H1450   1.088   .     S
C1103  C1104   1.431   .     S
C1103  C1696   1.336   1_545 S
C1103  F1724   1.361   1_545 S
C1104  O1183   1.276   .     A
C1104  O1177   1.274   .     A
C1105  O1178   1.267   .     A
C1105  O1184   1.272   .     A
C1106  C1109   1.449   .     S
C1106  O1171   1.274   .     A
C1106  O1169   1.269   .     A
C1107  O1170   1.282   .     A
C1107  C1108   1.484   .     S
C1107  O1172   1.290   .     A
C1108  C1112   1.410   .     A
C1110  C1125   1.402   .     A
C1110  H1165   1.083   .     S
C1111  H1133   1.116   .     S
C1111  O1173   1.417   .     S
C1111  H1132   1.111   .     S
C1111  C1113   1.533   .     S
C1112  O1176   1.384   .     S
C1112  C1123   1.418   .     A
C1113  H1134   1.112   .     S
C1113  H1135   1.111   .     S
C1114  H1136   1.111   .     S
C1114  H1137   1.110   .     S
C1114  H1138   1.111   .     S
C1114  C915    1.525   1_655 S
C1115  C1116   1.528   .     S
C1115  H1139   1.117   .     S
C1115  O1174   1.412   .     S
C1116  H1143   1.112   .     S
C1116  H1141   1.112   .     S
C1116  C1117   1.526   .     S
C1117  H1145   1.110   .     S
C1117  H1146   1.110   .     S
C1117  H1144   1.111   .     S
C1118  H1148   1.118   .     S
C1118  C1119   1.532   .     S
C1118  O1175   1.419   .     S
C1118  H1147   1.111   .     S
C1119  H1149   1.112   .     S
C1119  H1150   1.110   .     S
C1119  C1417   1.527   .     S
C1120  H1151   1.111   .     S
C1120  H1152   1.111   .     S
C1120  H1154   1.111   .     S
C1120  C1713   1.527   1_545 S
C1121  O1176   1.413   .     S
C1121  H1156   1.115   .     S
C1121  H1155   1.115   .     S
C1121  C1122   1.527   .     S
C1122  H1158   1.110   .     S
C1122  C1124   1.527   .     S
C1122  H1157   1.112   .     S
C1123  C1126   1.424   .     A
C1123  C1125   1.417   .     A
C1124  H1159   1.111   .     S
C1124  H1161   1.111   .     S
C1124  H962    1.110   1_655 S
C1125  C238    1.403   1_556 S
C1126  C236    1.420   1_556 S
C1127  C1128   1.412   .     A
C1128  H1166   1.077   .     S
C1128  C1129   1.396   .     A
C1129  O1173   1.387   .     S
F1130  C1400   1.361   .     S
H1140  C917    1.113   1_655 S
H1142  C902    1.085   1_655 S
H1153  C1696   1.088   1_545 S
O1168  Zn1187  1.936   .     S
O1168  Zn1188  1.928   .     S
O1168  Zn1186  1.937   .     S
O1168  Zn1185  1.965   .     S
O1169  Zn1186  1.933   .     S
O1170  Zn1188  1.944   .     S
O1171  Zn1187  1.933   .     S
O1172  Zn1185  1.925   .     S
O1177  Zn1185  1.928   .     S
O1178  Zn1188  1.935   .     S
O1179  Zn1186  1.923   .     S
O1180  Zn1187  1.934   .     S
O1181  Zn1188  1.927   .     S
O1182  Zn1185  1.919   .     S
O1183  Zn1186  1.942   .     S
O1184  Zn1187  1.931   .     S
C1189  O1278   1.265   .     A
C1189  C1199   1.436   .     S
C1189  O1280   1.269   .     A
C1190  H1266   1.079   .     S
C1190  C1191   1.385   .     A
C1190  C1225   1.413   .     A
C1191  H1263   1.084   .     S
C1191  C302    1.391   1_556 S
C1192  O1279   1.284   .     A
C1192  C1198   1.461   .     S
C1192  O1281   1.283   .     A
C1193  C1195   1.403   .     A
C1193  C1194   1.421   .     A
C1194  C1226   1.425   .     A
C1194  C1197   1.409   .     A
C1195  C1196   1.390   .     A
C1195  H1230   1.084   .     S
C1196  C1208   1.395   .     A
C1196  H1262   1.083   .     S
C1197  H1261   1.078   .     S
C1197  C1208   1.392   .     A
C1198  C1298   1.338   .     S
C1198  O1372   1.387   .     S
C1199  C1396   1.338   1_455 S
C1199  H1439   1.085   1_455 S
C1200  C1209   1.393   .     A
C1200  O1274   1.384   .     S
C1200  C1207   1.415   .     A
C1201  C1204   1.451   .     S
C1201  C1499   1.336   .     S
C1201  H1549   1.088   .     S
C1202  C1203   1.431   .     S
C1203  O1282   1.276   .     A
C1203  O1276   1.274   .     A
C1204  O1277   1.267   .     A
C1204  O1283   1.272   .     A
C1205  C1208   1.449   .     S
C1205  O1270   1.274   .     A
C1205  O1268   1.269   .     A
C1206  O1269   1.282   .     A
C1206  C1207   1.484   .     S
C1206  O1271   1.290   .     A
C1207  C1211   1.410   .     A
C1209  C1224   1.402   .     A
C1209  H1264   1.083   .     S
C1210  H1232   1.116   .     S
C1210  O1272   1.417   .     S
C1210  H1231   1.111   .     S
C1210  C1212   1.533   .     S
C1211  O1275   1.384   .     S
C1211  C1222   1.418   .     A
C1212  H1233   1.112   .     S
C1212  H1234   1.111   .     S
C1212  C1411   1.525   1_455 S
C1213  H1235   1.111   .     S
C1213  H1236   1.110   .     S
C1213  H1237   1.111   .     S
C1213  C1311   1.525   .     S
C1214  C1215   1.528   .     S
C1214  H1238   1.117   .     S
C1214  O1273   1.412   .     S
C1214  H1437   1.113   1_455 S
C1215  H1242   1.112   .     S
C1215  H1240   1.112   .     S
C1215  C1216   1.526   .     S
C1216  H1244   1.110   .     S
C1216  H1245   1.110   .     S
C1216  H1243   1.111   .     S
C1217  H1247   1.118   .     S
C1217  C1218   1.532   .     S
C1217  O1274   1.419   .     S
C1217  H1246   1.111   .     S
C1218  H1248   1.112   .     S
C1218  H1249   1.110   .     S
C1218  C1516   1.527   .     S
C1219  H1250   1.111   .     S
C1219  H1251   1.111   .     S
C1219  H1253   1.111   .     S
C1220  O1275   1.413   .     S
C1220  H1255   1.115   .     S
C1220  H1254   1.115   .     S
C1220  C1221   1.527   .     S
C1221  H1257   1.110   .     S
C1221  C1223   1.527   .     S
C1221  H1256   1.112   .     S
C1222  C1225   1.424   .     A
C1222  C1224   1.417   .     A
C1223  H1258   1.111   .     S
C1223  H1260   1.111   .     S
C1223  H1358   1.110   .     S
C1224  C337    1.403   1_556 S
C1225  C335    1.420   1_556 S
C1226  C1227   1.412   .     A
C1227  H1265   1.077   .     S
C1227  C1228   1.396   .     A
C1228  O1272   1.387   .     S
F1229  C1499   1.361   .     S
H1239  C1313   1.113   .     S
H1241  C1298   1.085   .     S
H1259  C1421   1.110   1_455 S
O1267  Zn1286  1.936   .     S
O1267  Zn1287  1.928   .     S
O1267  Zn1285  1.937   .     S
O1267  Zn1284  1.965   .     S
O1268  Zn1285  1.933   .     S
O1269  Zn1287  1.944   .     S
O1270  Zn1286  1.933   .     S
O1271  Zn1284  1.925   .     S
O1273  C1396   1.387   1_455 S
O1276  Zn1284  1.928   .     S
O1277  Zn1287  1.935   .     S
O1278  Zn1285  1.923   .     S
O1279  Zn1286  1.934   .     S
O1280  Zn1287  1.927   .     S
O1281  Zn1284  1.919   .     S
O1282  Zn1285  1.942   .     S
O1283  Zn1286  1.931   .     S
C1288  O1377   1.265   .     A
C1288  C1298   1.436   .     S
C1288  O1379   1.269   .     A
C1289  H1365   1.079   .     S
C1289  C1290   1.385   .     A
C1289  C1324   1.413   .     A
C1290  H1362   1.084   .     S
C1290  C401    1.391   1_556 S
C1291  O1378   1.284   .     A
C1291  C1297   1.461   .     S
C1291  O1380   1.283   .     A
C1292  C1294   1.403   .     A
C1292  C1293   1.421   .     A
C1293  C1325   1.425   .     A
C1293  C1296   1.409   .     A
C1294  C1295   1.390   .     A
C1294  H1329   1.084   .     S
C1295  C1307   1.395   .     A
C1295  H1361   1.083   .     S
C1296  H1360   1.078   .     S
C1296  C1307   1.392   .     A
C1297  C1397   1.338   .     S
C1297  O1471   1.387   .     S
C1299  C1308   1.393   .     A
C1299  O1373   1.384   .     S
C1299  C1306   1.415   .     A
C1300  C1303   1.451   .     S
C1300  C1598   1.336   .     S
C1300  H1648   1.088   .     S
C1301  C1302   1.431   .     S
C1302  O1381   1.276   .     A
C1302  O1375   1.274   .     A
C1303  O1376   1.267   .     A
C1303  O1382   1.272   .     A
C1304  C1307   1.449   .     S
C1304  O1369   1.274   .     A
C1304  O1367   1.269   .     A
C1305  O1368   1.282   .     A
C1305  C1306   1.484   .     S
C1305  O1370   1.290   .     A
C1306  C1310   1.410   .     A
C1308  C1323   1.402   .     A
C1308  H1363   1.083   .     S
C1309  H1331   1.116   .     S
C1309  O1371   1.417   .     S
C1309  H1330   1.111   .     S
C1309  C1311   1.533   .     S
C1310  O1374   1.384   .     S
C1310  C1321   1.418   .     A
C1311  H1332   1.112   .     S
C1311  H1333   1.111   .     S
C1312  H1334   1.111   .     S
C1312  H1335   1.110   .     S
C1312  H1336   1.111   .     S
C1312  C1410   1.525   .     S
C1313  C1314   1.528   .     S
C1313  H1337   1.117   .     S
C1313  O1372   1.412   .     S
C1314  H1341   1.112   .     S
C1314  H1339   1.112   .     S
C1314  C1315   1.526   .     S
C1315  H1343   1.110   .     S
C1315  H1344   1.110   .     S
C1315  H1342   1.111   .     S
C1316  H1346   1.118   .     S
C1316  C1317   1.532   .     S
C1316  O1373   1.419   .     S
C1316  H1345   1.111   .     S
C1317  H1347   1.112   .     S
C1317  H1348   1.110   .     S
C1317  C1615   1.527   .     S
C1318  H1349   1.111   .     S
C1318  H1350   1.111   .     S
C1318  H1352   1.111   .     S
C1319  O1374   1.413   .     S
C1319  H1354   1.115   .     S
C1319  H1353   1.115   .     S
C1319  C1320   1.527   .     S
C1320  H1356   1.110   .     S
C1320  C1322   1.527   .     S
C1320  H1355   1.112   .     S
C1321  C1324   1.424   .     A
C1321  C1323   1.417   .     A
C1322  H1357   1.111   .     S
C1322  H1359   1.111   .     S
C1322  H1457   1.110   .     S
C1323  C436    1.403   1_556 S
C1324  C434    1.420   1_556 S
C1325  C1326   1.412   .     A
C1326  H1364   1.077   .     S
C1326  C1327   1.396   .     A
C1327  O1371   1.387   .     S
F1328  C1598   1.361   .     S
H1338  C1412   1.113   .     S
H1340  C1397   1.085   .     S
O1366  Zn1385  1.936   .     S
O1366  Zn1386  1.928   .     S
O1366  Zn1384  1.937   .     S
O1366  Zn1383  1.965   .     S
O1367  Zn1384  1.933   .     S
O1368  Zn1386  1.944   .     S
O1369  Zn1385  1.933   .     S
O1370  Zn1383  1.925   .     S
O1375  Zn1383  1.928   .     S
O1376  Zn1386  1.935   .     S
O1377  Zn1384  1.923   .     S
O1378  Zn1385  1.934   .     S
O1379  Zn1386  1.927   .     S
O1380  Zn1383  1.919   .     S
O1381  Zn1384  1.942   .     S
O1382  Zn1385  1.931   .     S
C1387  O1476   1.265   .     A
C1387  C1397   1.436   .     S
C1387  O1478   1.269   .     A
C1388  H1464   1.079   .     S
C1388  C1389   1.385   .     A
C1388  C1423   1.413   .     A
C1389  H1461   1.084   .     S
C1389  C500    1.391   1_556 S
C1390  O1477   1.284   .     A
C1390  C1396   1.461   .     S
C1390  O1479   1.283   .     A
C1391  C1393   1.403   .     A
C1391  C1392   1.421   .     A
C1392  C1424   1.425   .     A
C1392  C1395   1.409   .     A
C1393  C1394   1.390   .     A
C1393  H1428   1.084   .     S
C1394  C1406   1.395   .     A
C1394  H1460   1.083   .     S
C1395  H1459   1.078   .     S
C1395  C1406   1.392   .     A
C1396  C1199   1.338   1_655 S
C1396  O1273   1.387   1_655 S
C1398  C1407   1.393   .     A
C1398  O1472   1.384   .     S
C1398  C1405   1.415   .     A
C1399  C1402   1.451   .     S
C1399  C1697   1.336   .     S
C1399  H1747   1.088   .     S
C1400  C1401   1.431   .     S
C1401  O1480   1.276   .     A
C1401  O1474   1.274   .     A
C1402  O1475   1.267   .     A
C1402  O1481   1.272   .     A
C1403  C1406   1.449   .     S
C1403  O1468   1.274   .     A
C1403  O1466   1.269   .     A
C1404  O1467   1.282   .     A
C1404  C1405   1.484   .     S
C1404  O1469   1.290   .     A
C1405  C1409   1.410   .     A
C1407  C1422   1.402   .     A
C1407  H1462   1.083   .     S
C1408  H1430   1.116   .     S
C1408  O1470   1.417   .     S
C1408  H1429   1.111   .     S
C1408  C1410   1.533   .     S
C1409  O1473   1.384   .     S
C1409  C1420   1.418   .     A
C1410  H1431   1.112   .     S
C1410  H1432   1.111   .     S
C1411  H1433   1.111   .     S
C1411  H1434   1.110   .     S
C1411  H1435   1.111   .     S
C1411  C1212   1.525   1_655 S
C1412  C1413   1.528   .     S
C1412  H1436   1.117   .     S
C1412  O1471   1.412   .     S
C1413  H1440   1.112   .     S
C1413  H1438   1.112   .     S
C1413  C1414   1.526   .     S
C1414  H1442   1.110   .     S
C1414  H1443   1.110   .     S
C1414  H1441   1.111   .     S
C1415  H1445   1.118   .     S
C1415  C1416   1.532   .     S
C1415  O1472   1.419   .     S
C1415  H1444   1.111   .     S
C1416  H1446   1.112   .     S
C1416  H1447   1.110   .     S
C1416  C1714   1.527   .     S
C1417  H1448   1.111   .     S
C1417  H1449   1.111   .     S
C1417  H1451   1.111   .     S
C1418  O1473   1.413   .     S
C1418  H1453   1.115   .     S
C1418  H1452   1.115   .     S
C1418  C1419   1.527   .     S
C1419  H1455   1.110   .     S
C1419  C1421   1.527   .     S
C1419  H1454   1.112   .     S
C1420  C1423   1.424   .     A
C1420  C1422   1.417   .     A
C1421  H1456   1.111   .     S
C1421  H1458   1.111   .     S
C1421  H1259   1.110   1_655 S
C1422  C535    1.403   1_556 S
C1423  C533    1.420   1_556 S
C1424  C1425   1.412   .     A
C1425  H1463   1.077   .     S
C1425  C1426   1.396   .     A
C1426  O1470   1.387   .     S
F1427  C1697   1.361   .     S
H1437  C1214   1.113   1_655 S
H1439  C1199   1.085   1_655 S
O1465  Zn1484  1.936   .     S
O1465  Zn1485  1.928   .     S
O1465  Zn1483  1.937   .     S
O1465  Zn1482  1.965   .     S
O1466  Zn1483  1.933   .     S
O1467  Zn1485  1.944   .     S
O1468  Zn1484  1.933   .     S
O1469  Zn1482  1.925   .     S
O1474  Zn1482  1.928   .     S
O1475  Zn1485  1.935   .     S
O1476  Zn1483  1.923   .     S
O1477  Zn1484  1.934   .     S
O1478  Zn1485  1.927   .     S
O1479  Zn1482  1.919   .     S
O1480  Zn1483  1.942   .     S
O1481  Zn1484  1.931   .     S
C1486  O1575   1.265   .     A
C1486  C1496   1.436   .     S
C1486  O1577   1.269   .     A
C1487  H1563   1.079   .     S
C1487  C1488   1.385   .     A
C1487  C1522   1.413   .     A
C1488  H1560   1.084   .     S
C1488  C599    1.391   1_556 S
C1489  O1576   1.284   .     A
C1489  C1495   1.461   .     S
C1489  O1578   1.283   .     A
C1490  C1492   1.403   .     A
C1490  C1491   1.421   .     A
C1491  C1523   1.425   .     A
C1491  C1494   1.409   .     A
C1492  C1493   1.390   .     A
C1492  H1527   1.084   .     S
C1493  C1505   1.395   .     A
C1493  H1559   1.083   .     S
C1494  H1558   1.078   .     S
C1494  C1505   1.392   .     A
C1495  C1595   1.338   .     S
C1495  O1669   1.387   .     S
C1496  C1693   1.338   1_455 S
C1496  H1736   1.085   1_455 S
C1497  C1506   1.393   .     A
C1497  O1571   1.384   .     S
C1497  C1504   1.415   .     A
C1498  C1501   1.451   .     S
C1498  C905    1.336   1_565 S
C1498  H955    1.088   1_565 S
C1499  C1500   1.431   .     S
C1500  O1579   1.276   .     A
C1500  O1573   1.274   .     A
C1501  O1574   1.267   .     A
C1501  O1580   1.272   .     A
C1502  C1505   1.449   .     S
C1502  O1567   1.274   .     A
C1502  O1565   1.269   .     A
C1503  O1566   1.282   .     A
C1503  C1504   1.484   .     S
C1503  O1568   1.290   .     A
C1504  C1508   1.410   .     A
C1506  C1521   1.402   .     A
C1506  H1561   1.083   .     S
C1507  H1529   1.116   .     S
C1507  O1569   1.417   .     S
C1507  H1528   1.111   .     S
C1507  C1509   1.533   .     S
C1508  O1572   1.384   .     S
C1508  C1519   1.418   .     A
C1509  H1530   1.112   .     S
C1509  H1531   1.111   .     S
C1509  C1708   1.525   1_455 S
C1510  H1532   1.111   .     S
C1510  H1533   1.110   .     S
C1510  H1534   1.111   .     S
C1510  C1608   1.525   .     S
C1511  C1512   1.528   .     S
C1511  H1535   1.117   .     S
C1511  O1570   1.412   .     S
C1511  H1734   1.113   1_455 S
C1512  H1539   1.112   .     S
C1512  H1537   1.112   .     S
C1512  C1513   1.526   .     S
C1513  H1541   1.110   .     S
C1513  H1542   1.110   .     S
C1513  H1540   1.111   .     S
C1514  H1544   1.118   .     S
C1514  C1515   1.532   .     S
C1514  O1571   1.419   .     S
C1514  H1543   1.111   .     S
C1515  H1545   1.112   .     S
C1515  H1546   1.110   .     S
C1515  C922    1.527   1_565 S
C1516  H1547   1.111   .     S
C1516  H1548   1.111   .     S
C1516  H1550   1.111   .     S
C1517  O1572   1.413   .     S
C1517  H1552   1.115   .     S
C1517  H1551   1.115   .     S
C1517  C1518   1.527   .     S
C1518  H1554   1.110   .     S
C1518  C1520   1.527   .     S
C1518  H1553   1.112   .     S
C1519  C1522   1.424   .     A
C1519  C1521   1.417   .     A
C1520  H1555   1.111   .     S
C1520  H1557   1.111   .     S
C1520  H1655   1.110   .     S
C1521  C634    1.403   1_556 S
C1522  C632    1.420   1_556 S
C1523  C1524   1.412   .     A
C1524  H1562   1.077   .     S
C1524  C1525   1.396   .     A
C1525  O1569   1.387   .     S
F1526  C905    1.361   1_565 S
H1536  C1610   1.113   .     S
H1538  C1595   1.085   .     S
H1556  C1718   1.110   1_455 S
O1564  Zn1583  1.936   .     S
O1564  Zn1584  1.928   .     S
O1564  Zn1582  1.937   .     S
O1564  Zn1581  1.965   .     S
O1565  Zn1582  1.933   .     S
O1566  Zn1584  1.944   .     S
O1567  Zn1583  1.933   .     S
O1568  Zn1581  1.925   .     S
O1570  C1693   1.387   1_455 S
O1573  Zn1581  1.928   .     S
O1574  Zn1584  1.935   .     S
O1575  Zn1582  1.923   .     S
O1576  Zn1583  1.934   .     S
O1577  Zn1584  1.927   .     S
O1578  Zn1581  1.919   .     S
O1579  Zn1582  1.942   .     S
O1580  Zn1583  1.931   .     S
C1585  O1674   1.265   .     A
C1585  C1595   1.436   .     S
C1585  O1676   1.269   .     A
C1586  H1662   1.079   .     S
C1586  C1587   1.385   .     A
C1586  C1621   1.413   .     A
C1587  H1659   1.084   .     S
C1587  C698    1.391   1_556 S
C1588  O1675   1.284   .     A
C1588  C1594   1.461   .     S
C1588  O1677   1.283   .     A
C1589  C1591   1.403   .     A
C1589  C1590   1.421   .     A
C1590  C1622   1.425   .     A
C1590  C1593   1.409   .     A
C1591  C1592   1.390   .     A
C1591  H1626   1.084   .     S
C1592  C1604   1.395   .     A
C1592  H1658   1.083   .     S
C1593  H1657   1.078   .     S
C1593  C1604   1.392   .     A
C1594  C1694   1.338   .     S
C1594  O1768   1.387   .     S
C1596  C1605   1.393   .     A
C1596  O1670   1.384   .     S
C1596  C1603   1.415   .     A
C1597  C1600   1.451   .     S
C1597  C1004   1.336   1_565 S
C1597  H1054   1.088   1_565 S
C1598  C1599   1.431   .     S
C1599  O1678   1.276   .     A
C1599  O1672   1.274   .     A
C1600  O1673   1.267   .     A
C1600  O1679   1.272   .     A
C1601  C1604   1.449   .     S
C1601  O1666   1.274   .     A
C1601  O1664   1.269   .     A
C1602  O1665   1.282   .     A
C1602  C1603   1.484   .     S
C1602  O1667   1.290   .     A
C1603  C1607   1.410   .     A
C1605  C1620   1.402   .     A
C1605  H1660   1.083   .     S
C1606  H1628   1.116   .     S
C1606  O1668   1.417   .     S
C1606  H1627   1.111   .     S
C1606  C1608   1.533   .     S
C1607  O1671   1.384   .     S
C1607  C1618   1.418   .     A
C1608  H1629   1.112   .     S
C1608  H1630   1.111   .     S
C1609  H1631   1.111   .     S
C1609  H1632   1.110   .     S
C1609  H1633   1.111   .     S
C1609  C1707   1.525   .     S
C1610  C1611   1.528   .     S
C1610  H1634   1.117   .     S
C1610  O1669   1.412   .     S
C1611  H1638   1.112   .     S
C1611  H1636   1.112   .     S
C1611  C1612   1.526   .     S
C1612  H1640   1.110   .     S
C1612  H1641   1.110   .     S
C1612  H1639   1.111   .     S
C1613  H1643   1.118   .     S
C1613  C1614   1.532   .     S
C1613  O1670   1.419   .     S
C1613  H1642   1.111   .     S
C1614  H1644   1.112   .     S
C1614  H1645   1.110   .     S
C1614  C1021   1.527   1_565 S
C1615  H1646   1.111   .     S
C1615  H1647   1.111   .     S
C1615  H1649   1.111   .     S
C1616  O1671   1.413   .     S
C1616  H1651   1.115   .     S
C1616  H1650   1.115   .     S
C1616  C1617   1.527   .     S
C1617  H1653   1.110   .     S
C1617  C1619   1.527   .     S
C1617  H1652   1.112   .     S
C1618  C1621   1.424   .     A
C1618  C1620   1.417   .     A
C1619  H1654   1.111   .     S
C1619  H1656   1.111   .     S
C1619  H1754   1.110   .     S
C1620  C733    1.403   1_556 S
C1621  C731    1.420   1_556 S
C1622  C1623   1.412   .     A
C1623  H1661   1.077   .     S
C1623  C1624   1.396   .     A
C1624  O1668   1.387   .     S
F1625  C1004   1.361   1_565 S
H1635  C1709   1.113   .     S
H1637  C1694   1.085   .     S
O1663  Zn1682  1.936   .     S
O1663  Zn1683  1.928   .     S
O1663  Zn1681  1.937   .     S
O1663  Zn1680  1.965   .     S
O1664  Zn1681  1.933   .     S
O1665  Zn1683  1.944   .     S
O1666  Zn1682  1.933   .     S
O1667  Zn1680  1.925   .     S
O1672  Zn1680  1.928   .     S
O1673  Zn1683  1.935   .     S
O1674  Zn1681  1.923   .     S
O1675  Zn1682  1.934   .     S
O1676  Zn1683  1.927   .     S
O1677  Zn1680  1.919   .     S
O1678  Zn1681  1.942   .     S
O1679  Zn1682  1.931   .     S
C1684  O1773   1.265   .     A
C1684  C1694   1.436   .     S
C1684  O1775   1.269   .     A
C1685  H1761   1.079   .     S
C1685  C1686   1.385   .     A
C1685  C1720   1.413   .     A
C1686  H1758   1.084   .     S
C1686  C797    1.391   1_556 S
C1687  O1774   1.284   .     A
C1687  C1693   1.461   .     S
C1687  O1776   1.283   .     A
C1688  C1690   1.403   .     A
C1688  C1689   1.421   .     A
C1689  C1721   1.425   .     A
C1689  C1692   1.409   .     A
C1690  C1691   1.390   .     A
C1690  H1725   1.084   .     S
C1691  C1703   1.395   .     A
C1691  H1757   1.083   .     S
C1692  H1756   1.078   .     S
C1692  C1703   1.392   .     A
C1693  C1496   1.338   1_655 S
C1693  O1570   1.387   1_655 S
C1695  C1704   1.393   .     A
C1695  O1769   1.384   .     S
C1695  C1702   1.415   .     A
C1696  C1699   1.451   .     S
C1696  C1103   1.336   1_565 S
C1696  H1153   1.088   1_565 S
C1697  C1698   1.431   .     S
C1698  O1777   1.276   .     A
C1698  O1771   1.274   .     A
C1699  O1772   1.267   .     A
C1699  O1778   1.272   .     A
C1700  C1703   1.449   .     S
C1700  O1765   1.274   .     A
C1700  O1763   1.269   .     A
C1701  O1764   1.282   .     A
C1701  C1702   1.484   .     S
C1701  O1766   1.290   .     A
C1702  C1706   1.410   .     A
C1704  C1719   1.402   .     A
C1704  H1759   1.083   .     S
C1705  H1727   1.116   .     S
C1705  O1767   1.417   .     S
C1705  H1726   1.111   .     S
C1705  C1707   1.533   .     S
C1706  O1770   1.384   .     S
C1706  C1717   1.418   .     A
C1707  H1728   1.112   .     S
C1707  H1729   1.111   .     S
C1708  H1730   1.111   .     S
C1708  H1731   1.110   .     S
C1708  H1732   1.111   .     S
C1708  C1509   1.525   1_655 S
C1709  C1710   1.528   .     S
C1709  H1733   1.117   .     S
C1709  O1768   1.412   .     S
C1710  H1737   1.112   .     S
C1710  H1735   1.112   .     S
C1710  C1711   1.526   .     S
C1711  H1739   1.110   .     S
C1711  H1740   1.110   .     S
C1711  H1738   1.111   .     S
C1712  H1742   1.118   .     S
C1712  C1713   1.532   .     S
C1712  O1769   1.419   .     S
C1712  H1741   1.111   .     S
C1713  H1743   1.112   .     S
C1713  H1744   1.110   .     S
C1713  C1120   1.527   1_565 S
C1714  H1745   1.111   .     S
C1714  H1746   1.111   .     S
C1714  H1748   1.111   .     S
C1715  O1770   1.413   .     S
C1715  H1750   1.115   .     S
C1715  H1749   1.115   .     S
C1715  C1716   1.527   .     S
C1716  H1752   1.110   .     S
C1716  C1718   1.527   .     S
C1716  H1751   1.112   .     S
C1717  C1720   1.424   .     A
C1717  C1719   1.417   .     A
C1718  H1753   1.111   .     S
C1718  H1755   1.111   .     S
C1718  H1556   1.110   1_655 S
C1719  C832    1.403   1_556 S
C1720  C830    1.420   1_556 S
C1721  C1722   1.412   .     A
C1722  H1760   1.077   .     S
C1722  C1723   1.396   .     A
C1723  O1767   1.387   .     S
F1724  C1103   1.361   1_565 S
H1734  C1511   1.113   1_655 S
H1736  C1496   1.085   1_655 S
O1762  Zn1781  1.936   .     S
O1762  Zn1782  1.928   .     S
O1762  Zn1780  1.937   .     S
O1762  Zn1779  1.965   .     S
O1763  Zn1780  1.933   .     S
O1764  Zn1782  1.944   .     S
O1765  Zn1781  1.933   .     S
O1766  Zn1779  1.925   .     S
O1771  Zn1779  1.928   .     S
O1772  Zn1782  1.935   .     S
O1773  Zn1780  1.923   .     S
O1774  Zn1781  1.934   .     S
O1775  Zn1782  1.927   .     S
O1776  Zn1779  1.919   .     S
O1777  Zn1780  1.942   .     S
O1778  Zn1781  1.931   .     S
