data_str_m1_o10_o16_pcu_sym.136
_audit_creation_date              2020-01-03
_audit_creation_method            'Materials Studio'
_symmetry_space_group_name_H-M    'P1'
_symmetry_Int_Tables_number       1
_symmetry_cell_setting            triclinic
loop_
_symmetry_equiv_pos_as_xyz
  x,y,z
_cell_length_a                    32.5257
_cell_length_b                    32.5806
_cell_length_c                    30.9665
_cell_angle_alpha                 96.3196
_cell_angle_beta                  74.9278
_cell_angle_gamma                 98.7330
loop_
_atom_site_label
_atom_site_type_symbol
_atom_site_fract_x
_atom_site_fract_y
_atom_site_fract_z
_atom_site_U_iso_or_equiv
_atom_site_adp_type
_atom_site_occupancy
C1     C     0.05277   0.15955   0.25994   0.00000  Uiso   1.00
C2     C     0.17969   0.16506   0.05690   0.00000  Uiso   1.00
C3     C     0.21095   0.10254   0.05991   0.00000  Uiso   1.00
C4     C     0.28082   0.17381   0.23999   0.00000  Uiso   1.00
C5     C     0.14442   0.19496   0.42035   0.00000  Uiso   1.00
C6     C     0.32668   0.17666   0.23600   0.00000  Uiso   1.00
C7     C     0.00749   0.15685   0.26369   0.00000  Uiso   1.00
C8     C     0.18229   0.32286   0.23550   0.00000  Uiso   1.00
C9     C     0.15300   0.01178   0.26282   0.00000  Uiso   1.00
C10    C     0.15537   0.05596   0.26096   0.00000  Uiso   1.00
C11    C     0.17690   0.27801   0.23993   0.00000  Uiso   1.00
C12    C     0.14434   0.25008   0.48112   0.00000  Uiso   1.00
C13    C     0.18525   0.14805   0.12936   0.00000  Uiso   1.00
C14    C     0.14824   0.18436   0.37133   0.00000  Uiso   1.00
C15    C     0.20903   0.09025   0.01497   0.00000  Uiso   1.00
C16    C     0.19329   0.13871   0.08105   0.00000  Uiso   1.00
C17    C     0.13296   0.23428   0.44079   0.00000  Uiso   1.00
C18    C     0.23149   0.07888   0.08528   0.00000  Uiso   1.00
C19    C     0.22007   0.00782   0.20080   0.00000  Uiso   1.00
C20    C     0.22330   0.05026   0.49241   0.00000  Uiso   1.00
C21    C     0.10892   0.25856   0.42018   0.00000  Uiso   1.00
C22    C     0.19787   0.25047   0.02619   0.00000  Uiso   1.00
C23    C     0.16843   0.22722   0.49946   0.00000  Uiso   1.00
C24    C     0.13124   0.29043   0.00399   0.00000  Uiso   1.00
C25    C     0.16979   0.18414   0.48581   0.00000  Uiso   1.00
C26    C     0.15841   0.16835   0.44543   0.00000  Uiso   1.00
C27    C     0.18202   0.15613   0.01115   0.00000  Uiso   1.00
C28    C     0.19181   0.11611   0.49183   0.00000  Uiso   1.00
C29    C     0.18021   0.10140   0.45184   0.00000  Uiso   1.00
C30    C     0.16120   0.12605   0.43098   0.00000  Uiso   1.00
H31    H     0.31913   0.13841   0.28948   0.00000  Uiso   1.00
H32    H     0.18953   0.27806   0.04762   0.00000  Uiso   1.00
H33    H     0.13106   0.31635   0.48500   0.00000  Uiso   1.00
H34    H     0.01572   0.19493   0.21044   0.00000  Uiso   1.00
H35    H     0.14828   0.11110   0.40355   0.00000  Uiso   1.00
H36    H     0.21970   0.07796   0.12132   0.00000  Uiso   1.00
H37    H     0.24097   0.32081   0.17826   0.00000  Uiso   1.00
H38    H     0.12591   0.33047   0.28721   0.00000  Uiso   1.00
H39    H     0.18274   0.06968   0.43791   0.00000  Uiso   1.00
H40    H     0.23946   0.04837   0.45701   0.00000  Uiso   1.00
H41    H     0.16475   0.19149   0.07507   0.00000  Uiso   1.00
H42    H     0.07920   0.24401   0.41226   0.00000  Uiso   1.00
O43    O     0.16667   0.16667   0.25000   0.00000  Uiso   1.00
O44    O     0.15451   0.12637   0.15459   0.00000  Uiso   1.00
O45    O     0.12940   0.20391   0.34968   0.00000  Uiso   1.00
O46    O     0.20824   0.17759   0.14606   0.00000  Uiso   1.00
O47    O     0.17451   0.15880   0.34968   0.00000  Uiso   1.00
O48    O     0.26316   0.06200   0.06659   0.00000  Uiso   1.00
O49    O     0.22874   0.04523   0.19691   0.00000  Uiso   1.00
O50    O     0.21591   0.01883   0.01268   0.00000  Uiso   1.00
O51    O     0.12305   0.29403   0.40999   0.00000  Uiso   1.00
O52    O     0.23301   0.23979   0.02297   0.00000  Uiso   1.00
O53    O     0.11918   0.29466   0.04481   0.00000  Uiso   1.00
O54    O     0.17930   0.08019   0.28214   0.00000  Uiso   1.00
O55    O     0.14632   0.26085   0.27014   0.00000  Uiso   1.00
O56    O     0.07412   0.13291   0.23413   0.00000  Uiso   1.00
O57    O     0.26693   0.19272   0.21361   0.00000  Uiso   1.00
O58    O     0.07071   0.18878   0.28213   0.00000  Uiso   1.00
O59    O     0.25491   0.15226   0.27014   0.00000  Uiso   1.00
O60    O     0.13760   0.06944   0.23413   0.00000  Uiso   1.00
O61    O     0.20345   0.25620   0.21361   0.00000  Uiso   1.00
Zn62   Zn    0.19338   0.13994   0.28734   0.00000  Uiso   1.00
Zn63   Zn    0.13379   0.12458   0.21876   0.00000  Uiso   1.00
Zn64   Zn    0.21056   0.19775   0.20657   0.00000  Uiso   1.00
Zn65   Zn    0.12893   0.20439   0.28734   0.00000  Uiso   1.00
C66    C     0.38610   0.15955   0.25994   0.00000  Uiso   1.00
C67    C     0.51302   0.16506   0.05690   0.00000  Uiso   1.00
C68    C     0.54428   0.10254   0.05991   0.00000  Uiso   1.00
C69    C     0.61415   0.17381   0.23999   0.00000  Uiso   1.00
C70    C     0.47775   0.19496   0.42035   0.00000  Uiso   1.00
C71    C     0.66002   0.17666   0.23600   0.00000  Uiso   1.00
C72    C     0.34082   0.15685   0.26369   0.00000  Uiso   1.00
C73    C     0.51563   0.32286   0.23550   0.00000  Uiso   1.00
C74    C     0.48633   0.01178   0.26282   0.00000  Uiso   1.00
C75    C     0.48870   0.05596   0.26096   0.00000  Uiso   1.00
C76    C     0.51023   0.27801   0.23993   0.00000  Uiso   1.00
C77    C     0.47767   0.25008   0.48112   0.00000  Uiso   1.00
C78    C     0.51858   0.14805   0.12936   0.00000  Uiso   1.00
C79    C     0.48157   0.18436   0.37133   0.00000  Uiso   1.00
C80    C     0.54236   0.09025   0.01497   0.00000  Uiso   1.00
C81    C     0.52662   0.13871   0.08105   0.00000  Uiso   1.00
C82    C     0.46630   0.23428   0.44079   0.00000  Uiso   1.00
C83    C     0.56482   0.07888   0.08528   0.00000  Uiso   1.00
C84    C     0.55340   0.00782   0.20080   0.00000  Uiso   1.00
C85    C     0.55663   0.05026   0.49241   0.00000  Uiso   1.00
C86    C     0.44225   0.25856   0.42018   0.00000  Uiso   1.00
C87    C     0.53120   0.25047   0.02619   0.00000  Uiso   1.00
C88    C     0.50177   0.22722   0.49946   0.00000  Uiso   1.00
C89    C     0.46458   0.29043   0.00399   0.00000  Uiso   1.00
C90    C     0.50312   0.18414   0.48581   0.00000  Uiso   1.00
C91    C     0.49174   0.16835   0.44543   0.00000  Uiso   1.00
C92    C     0.51536   0.15613   0.01115   0.00000  Uiso   1.00
C93    C     0.52515   0.11611   0.49183   0.00000  Uiso   1.00
C94    C     0.51354   0.10140   0.45184   0.00000  Uiso   1.00
C95    C     0.49453   0.12605   0.43098   0.00000  Uiso   1.00
H96    H     0.65247   0.13841   0.28948   0.00000  Uiso   1.00
H97    H     0.52286   0.27806   0.04762   0.00000  Uiso   1.00
H98    H     0.46439   0.31635   0.48500   0.00000  Uiso   1.00
H99    H     0.34905   0.19493   0.21044   0.00000  Uiso   1.00
H100   H     0.48161   0.11110   0.40355   0.00000  Uiso   1.00
H101   H     0.55304   0.07796   0.12132   0.00000  Uiso   1.00
H102   H     0.57430   0.32081   0.17826   0.00000  Uiso   1.00
H103   H     0.45924   0.33047   0.28721   0.00000  Uiso   1.00
H104   H     0.51607   0.06968   0.43791   0.00000  Uiso   1.00
H105   H     0.57279   0.04837   0.45701   0.00000  Uiso   1.00
H106   H     0.49808   0.19149   0.07507   0.00000  Uiso   1.00
H107   H     0.41253   0.24401   0.41226   0.00000  Uiso   1.00
O108   O     0.50000   0.16667   0.25000   0.00000  Uiso   1.00
O109   O     0.48784   0.12637   0.15459   0.00000  Uiso   1.00
O110   O     0.46274   0.20391   0.34968   0.00000  Uiso   1.00
O111   O     0.54157   0.17759   0.14606   0.00000  Uiso   1.00
O112   O     0.50785   0.15880   0.34968   0.00000  Uiso   1.00
O113   O     0.59650   0.06200   0.06659   0.00000  Uiso   1.00
O114   O     0.56207   0.04523   0.19691   0.00000  Uiso   1.00
O115   O     0.54924   0.01883   0.01268   0.00000  Uiso   1.00
O116   O     0.45638   0.29403   0.40999   0.00000  Uiso   1.00
O117   O     0.56634   0.23979   0.02297   0.00000  Uiso   1.00
O118   O     0.45252   0.29466   0.04481   0.00000  Uiso   1.00
O119   O     0.51264   0.08019   0.28214   0.00000  Uiso   1.00
O120   O     0.47965   0.26085   0.27014   0.00000  Uiso   1.00
O121   O     0.40745   0.13291   0.23413   0.00000  Uiso   1.00
O122   O     0.60026   0.19272   0.21361   0.00000  Uiso   1.00
O123   O     0.40405   0.18878   0.28213   0.00000  Uiso   1.00
O124   O     0.58824   0.15226   0.27014   0.00000  Uiso   1.00
O125   O     0.47093   0.06944   0.23413   0.00000  Uiso   1.00
O126   O     0.53678   0.25620   0.21361   0.00000  Uiso   1.00
Zn127  Zn    0.52672   0.13994   0.28734   0.00000  Uiso   1.00
Zn128  Zn    0.46713   0.12458   0.21876   0.00000  Uiso   1.00
Zn129  Zn    0.54389   0.19775   0.20657   0.00000  Uiso   1.00
Zn130  Zn    0.46226   0.20439   0.28734   0.00000  Uiso   1.00
C131   C     0.71943   0.15955   0.25994   0.00000  Uiso   1.00
C132   C     0.84635   0.16506   0.05690   0.00000  Uiso   1.00
C133   C     0.87762   0.10254   0.05991   0.00000  Uiso   1.00
C134   C     0.94748   0.17381   0.23999   0.00000  Uiso   1.00
C135   C     0.81108   0.19496   0.42035   0.00000  Uiso   1.00
C136   C     0.99335   0.17666   0.23600   0.00000  Uiso   1.00
C137   C     0.67415   0.15685   0.26369   0.00000  Uiso   1.00
C138   C     0.84896   0.32286   0.23550   0.00000  Uiso   1.00
C139   C     0.81966   0.01178   0.26282   0.00000  Uiso   1.00
C140   C     0.82203   0.05596   0.26096   0.00000  Uiso   1.00
C141   C     0.84356   0.27801   0.23993   0.00000  Uiso   1.00
C142   C     0.81100   0.25008   0.48112   0.00000  Uiso   1.00
C143   C     0.85192   0.14805   0.12936   0.00000  Uiso   1.00
C144   C     0.81490   0.18436   0.37133   0.00000  Uiso   1.00
C145   C     0.87569   0.09025   0.01497   0.00000  Uiso   1.00
C146   C     0.85995   0.13871   0.08105   0.00000  Uiso   1.00
C147   C     0.79963   0.23428   0.44079   0.00000  Uiso   1.00
C148   C     0.89816   0.07888   0.08528   0.00000  Uiso   1.00
C149   C     0.88673   0.00782   0.20080   0.00000  Uiso   1.00
C150   C     0.88997   0.05026   0.49241   0.00000  Uiso   1.00
C151   C     0.77558   0.25856   0.42018   0.00000  Uiso   1.00
C152   C     0.86454   0.25047   0.02619   0.00000  Uiso   1.00
C153   C     0.83510   0.22722   0.49946   0.00000  Uiso   1.00
C154   C     0.79791   0.29043   0.00399   0.00000  Uiso   1.00
C155   C     0.83646   0.18414   0.48581   0.00000  Uiso   1.00
C156   C     0.82508   0.16835   0.44543   0.00000  Uiso   1.00
C157   C     0.84869   0.15613   0.01115   0.00000  Uiso   1.00
C158   C     0.85848   0.11611   0.49183   0.00000  Uiso   1.00
C159   C     0.84688   0.10140   0.45184   0.00000  Uiso   1.00
C160   C     0.82786   0.12605   0.43098   0.00000  Uiso   1.00
H161   H     0.98580   0.13841   0.28948   0.00000  Uiso   1.00
H162   H     0.85619   0.27806   0.04762   0.00000  Uiso   1.00
H163   H     0.79773   0.31635   0.48500   0.00000  Uiso   1.00
H164   H     0.68239   0.19493   0.21044   0.00000  Uiso   1.00
H165   H     0.81494   0.11110   0.40355   0.00000  Uiso   1.00
H166   H     0.88637   0.07796   0.12132   0.00000  Uiso   1.00
H167   H     0.90764   0.32081   0.17826   0.00000  Uiso   1.00
H168   H     0.79257   0.33047   0.28721   0.00000  Uiso   1.00
H169   H     0.84940   0.06968   0.43791   0.00000  Uiso   1.00
H170   H     0.90613   0.04837   0.45701   0.00000  Uiso   1.00
H171   H     0.83141   0.19149   0.07507   0.00000  Uiso   1.00
H172   H     0.74586   0.24401   0.41226   0.00000  Uiso   1.00
O173   O     0.83333   0.16667   0.25000   0.00000  Uiso   1.00
O174   O     0.82118   0.12637   0.15459   0.00000  Uiso   1.00
O175   O     0.79607   0.20391   0.34968   0.00000  Uiso   1.00
O176   O     0.87491   0.17759   0.14606   0.00000  Uiso   1.00
O177   O     0.84118   0.15880   0.34968   0.00000  Uiso   1.00
O178   O     0.92983   0.06200   0.06659   0.00000  Uiso   1.00
O179   O     0.89540   0.04523   0.19691   0.00000  Uiso   1.00
O180   O     0.88257   0.01883   0.01268   0.00000  Uiso   1.00
O181   O     0.78971   0.29403   0.40999   0.00000  Uiso   1.00
O182   O     0.89968   0.23979   0.02297   0.00000  Uiso   1.00
O183   O     0.78585   0.29466   0.04481   0.00000  Uiso   1.00
O184   O     0.84597   0.08019   0.28214   0.00000  Uiso   1.00
O185   O     0.81298   0.26085   0.27014   0.00000  Uiso   1.00
O186   O     0.74078   0.13291   0.23413   0.00000  Uiso   1.00
O187   O     0.93360   0.19272   0.21361   0.00000  Uiso   1.00
O188   O     0.73738   0.18878   0.28213   0.00000  Uiso   1.00
O189   O     0.92158   0.15226   0.27014   0.00000  Uiso   1.00
O190   O     0.80426   0.06944   0.23413   0.00000  Uiso   1.00
O191   O     0.87012   0.25620   0.21361   0.00000  Uiso   1.00
Zn192  Zn    0.86005   0.13994   0.28734   0.00000  Uiso   1.00
Zn193  Zn    0.80046   0.12458   0.21876   0.00000  Uiso   1.00
Zn194  Zn    0.87723   0.19775   0.20657   0.00000  Uiso   1.00
Zn195  Zn    0.79560   0.20439   0.28734   0.00000  Uiso   1.00
C196   C     0.05277   0.49288   0.25994   0.00000  Uiso   1.00
C197   C     0.17969   0.49840   0.05690   0.00000  Uiso   1.00
C198   C     0.21095   0.43587   0.05991   0.00000  Uiso   1.00
C199   C     0.28082   0.50715   0.23999   0.00000  Uiso   1.00
C200   C     0.14442   0.52829   0.42035   0.00000  Uiso   1.00
C201   C     0.32668   0.50999   0.23600   0.00000  Uiso   1.00
C202   C     0.00749   0.49019   0.26369   0.00000  Uiso   1.00
C203   C     0.18229   0.65619   0.23550   0.00000  Uiso   1.00
C204   C     0.15300   0.34511   0.26282   0.00000  Uiso   1.00
C205   C     0.15537   0.38929   0.26096   0.00000  Uiso   1.00
C206   C     0.17690   0.61134   0.23993   0.00000  Uiso   1.00
C207   C     0.14434   0.58341   0.48112   0.00000  Uiso   1.00
C208   C     0.18525   0.48139   0.12936   0.00000  Uiso   1.00
C209   C     0.14824   0.51769   0.37133   0.00000  Uiso   1.00
C210   C     0.20903   0.42359   0.01497   0.00000  Uiso   1.00
C211   C     0.19329   0.47204   0.08105   0.00000  Uiso   1.00
C212   C     0.13296   0.56761   0.44079   0.00000  Uiso   1.00
C213   C     0.23149   0.41221   0.08528   0.00000  Uiso   1.00
C214   C     0.22007   0.34115   0.20080   0.00000  Uiso   1.00
C215   C     0.22330   0.38359   0.49241   0.00000  Uiso   1.00
C216   C     0.10892   0.59189   0.42018   0.00000  Uiso   1.00
C217   C     0.19787   0.58381   0.02619   0.00000  Uiso   1.00
C218   C     0.16843   0.56056   0.49946   0.00000  Uiso   1.00
C219   C     0.13124   0.62377   0.00399   0.00000  Uiso   1.00
C220   C     0.16979   0.51747   0.48581   0.00000  Uiso   1.00
C221   C     0.15841   0.50168   0.44543   0.00000  Uiso   1.00
C222   C     0.18202   0.48946   0.01115   0.00000  Uiso   1.00
C223   C     0.19181   0.44944   0.49183   0.00000  Uiso   1.00
C224   C     0.18021   0.43474   0.45184   0.00000  Uiso   1.00
C225   C     0.16120   0.45938   0.43098   0.00000  Uiso   1.00
H226   H     0.31913   0.47174   0.28948   0.00000  Uiso   1.00
H227   H     0.18953   0.61139   0.04762   0.00000  Uiso   1.00
H228   H     0.13106   0.64968   0.48500   0.00000  Uiso   1.00
H229   H     0.01572   0.52826   0.21044   0.00000  Uiso   1.00
H230   H     0.14828   0.44443   0.40355   0.00000  Uiso   1.00
H231   H     0.21970   0.41129   0.12132   0.00000  Uiso   1.00
H232   H     0.24097   0.65414   0.17826   0.00000  Uiso   1.00
H233   H     0.12591   0.66380   0.28721   0.00000  Uiso   1.00
H234   H     0.18274   0.40301   0.43791   0.00000  Uiso   1.00
H235   H     0.23946   0.38170   0.45701   0.00000  Uiso   1.00
H236   H     0.16475   0.52482   0.07507   0.00000  Uiso   1.00
H237   H     0.07920   0.57735   0.41226   0.00000  Uiso   1.00
O238   O     0.16667   0.50000   0.25000   0.00000  Uiso   1.00
O239   O     0.15451   0.45970   0.15459   0.00000  Uiso   1.00
O240   O     0.12940   0.53724   0.34968   0.00000  Uiso   1.00
O241   O     0.20824   0.51092   0.14606   0.00000  Uiso   1.00
O242   O     0.17451   0.49213   0.34968   0.00000  Uiso   1.00
O243   O     0.26316   0.39533   0.06659   0.00000  Uiso   1.00
O244   O     0.22874   0.37856   0.19691   0.00000  Uiso   1.00
O245   O     0.21591   0.35217   0.01268   0.00000  Uiso   1.00
O246   O     0.12305   0.62737   0.40999   0.00000  Uiso   1.00
O247   O     0.23301   0.57312   0.02297   0.00000  Uiso   1.00
O248   O     0.11918   0.62800   0.04481   0.00000  Uiso   1.00
O249   O     0.17930   0.41352   0.28214   0.00000  Uiso   1.00
O250   O     0.14632   0.59418   0.27014   0.00000  Uiso   1.00
O251   O     0.07412   0.46625   0.23413   0.00000  Uiso   1.00
O252   O     0.26693   0.52605   0.21361   0.00000  Uiso   1.00
O253   O     0.07071   0.52211   0.28213   0.00000  Uiso   1.00
O254   O     0.25491   0.48559   0.27014   0.00000  Uiso   1.00
O255   O     0.13760   0.40277   0.23413   0.00000  Uiso   1.00
O256   O     0.20345   0.58953   0.21361   0.00000  Uiso   1.00
Zn257  Zn    0.19338   0.47327   0.28734   0.00000  Uiso   1.00
Zn258  Zn    0.13379   0.45791   0.21876   0.00000  Uiso   1.00
Zn259  Zn    0.21056   0.53109   0.20657   0.00000  Uiso   1.00
Zn260  Zn    0.12893   0.53773   0.28734   0.00000  Uiso   1.00
C261   C     0.38610   0.49288   0.25994   0.00000  Uiso   1.00
C262   C     0.51302   0.49840   0.05690   0.00000  Uiso   1.00
C263   C     0.54428   0.43587   0.05991   0.00000  Uiso   1.00
C264   C     0.61415   0.50715   0.23999   0.00000  Uiso   1.00
C265   C     0.47775   0.52829   0.42035   0.00000  Uiso   1.00
C266   C     0.66002   0.50999   0.23600   0.00000  Uiso   1.00
C267   C     0.34082   0.49019   0.26369   0.00000  Uiso   1.00
C268   C     0.51563   0.65619   0.23550   0.00000  Uiso   1.00
C269   C     0.48633   0.34511   0.26282   0.00000  Uiso   1.00
C270   C     0.48870   0.38929   0.26096   0.00000  Uiso   1.00
C271   C     0.51023   0.61134   0.23993   0.00000  Uiso   1.00
C272   C     0.47767   0.58341   0.48112   0.00000  Uiso   1.00
C273   C     0.51858   0.48139   0.12936   0.00000  Uiso   1.00
C274   C     0.48157   0.51769   0.37133   0.00000  Uiso   1.00
C275   C     0.54236   0.42359   0.01497   0.00000  Uiso   1.00
C276   C     0.52662   0.47204   0.08105   0.00000  Uiso   1.00
C277   C     0.46630   0.56761   0.44079   0.00000  Uiso   1.00
C278   C     0.56482   0.41221   0.08528   0.00000  Uiso   1.00
C279   C     0.55340   0.34115   0.20080   0.00000  Uiso   1.00
C280   C     0.55663   0.38359   0.49241   0.00000  Uiso   1.00
C281   C     0.44225   0.59189   0.42018   0.00000  Uiso   1.00
C282   C     0.53120   0.58381   0.02619   0.00000  Uiso   1.00
C283   C     0.50177   0.56056   0.49946   0.00000  Uiso   1.00
C284   C     0.46458   0.62377   0.00399   0.00000  Uiso   1.00
C285   C     0.50312   0.51747   0.48581   0.00000  Uiso   1.00
C286   C     0.49174   0.50168   0.44543   0.00000  Uiso   1.00
C287   C     0.51536   0.48946   0.01115   0.00000  Uiso   1.00
C288   C     0.52515   0.44944   0.49183   0.00000  Uiso   1.00
C289   C     0.51354   0.43474   0.45184   0.00000  Uiso   1.00
C290   C     0.49453   0.45938   0.43098   0.00000  Uiso   1.00
H291   H     0.65247   0.47174   0.28948   0.00000  Uiso   1.00
H292   H     0.52286   0.61139   0.04762   0.00000  Uiso   1.00
H293   H     0.46439   0.64968   0.48500   0.00000  Uiso   1.00
H294   H     0.34905   0.52826   0.21044   0.00000  Uiso   1.00
H295   H     0.48161   0.44443   0.40355   0.00000  Uiso   1.00
H296   H     0.55304   0.41129   0.12132   0.00000  Uiso   1.00
H297   H     0.57430   0.65414   0.17826   0.00000  Uiso   1.00
H298   H     0.45924   0.66380   0.28721   0.00000  Uiso   1.00
H299   H     0.51607   0.40301   0.43791   0.00000  Uiso   1.00
H300   H     0.57279   0.38170   0.45701   0.00000  Uiso   1.00
H301   H     0.49808   0.52482   0.07507   0.00000  Uiso   1.00
H302   H     0.41253   0.57735   0.41226   0.00000  Uiso   1.00
O303   O     0.50000   0.50000   0.25000   0.00000  Uiso   1.00
O304   O     0.48784   0.45970   0.15459   0.00000  Uiso   1.00
O305   O     0.46274   0.53724   0.34968   0.00000  Uiso   1.00
O306   O     0.54157   0.51092   0.14606   0.00000  Uiso   1.00
O307   O     0.50785   0.49213   0.34968   0.00000  Uiso   1.00
O308   O     0.59650   0.39533   0.06659   0.00000  Uiso   1.00
O309   O     0.56207   0.37856   0.19691   0.00000  Uiso   1.00
O310   O     0.54924   0.35217   0.01268   0.00000  Uiso   1.00
O311   O     0.45638   0.62737   0.40999   0.00000  Uiso   1.00
O312   O     0.56634   0.57312   0.02297   0.00000  Uiso   1.00
O313   O     0.45252   0.62800   0.04481   0.00000  Uiso   1.00
O314   O     0.51264   0.41352   0.28214   0.00000  Uiso   1.00
O315   O     0.47965   0.59418   0.27014   0.00000  Uiso   1.00
O316   O     0.40745   0.46625   0.23413   0.00000  Uiso   1.00
O317   O     0.60026   0.52605   0.21361   0.00000  Uiso   1.00
O318   O     0.40405   0.52211   0.28213   0.00000  Uiso   1.00
O319   O     0.58824   0.48559   0.27014   0.00000  Uiso   1.00
O320   O     0.47093   0.40277   0.23413   0.00000  Uiso   1.00
O321   O     0.53678   0.58953   0.21361   0.00000  Uiso   1.00
Zn322  Zn    0.52672   0.47327   0.28734   0.00000  Uiso   1.00
Zn323  Zn    0.46713   0.45791   0.21876   0.00000  Uiso   1.00
Zn324  Zn    0.54389   0.53109   0.20657   0.00000  Uiso   1.00
Zn325  Zn    0.46226   0.53773   0.28734   0.00000  Uiso   1.00
C326   C     0.71943   0.49288   0.25994   0.00000  Uiso   1.00
C327   C     0.84635   0.49840   0.05690   0.00000  Uiso   1.00
C328   C     0.87762   0.43587   0.05991   0.00000  Uiso   1.00
C329   C     0.94748   0.50715   0.23999   0.00000  Uiso   1.00
C330   C     0.81108   0.52829   0.42035   0.00000  Uiso   1.00
C331   C     0.99335   0.50999   0.23600   0.00000  Uiso   1.00
C332   C     0.67415   0.49019   0.26369   0.00000  Uiso   1.00
C333   C     0.84896   0.65619   0.23550   0.00000  Uiso   1.00
C334   C     0.81966   0.34511   0.26282   0.00000  Uiso   1.00
C335   C     0.82203   0.38929   0.26096   0.00000  Uiso   1.00
C336   C     0.84356   0.61134   0.23993   0.00000  Uiso   1.00
C337   C     0.81100   0.58341   0.48112   0.00000  Uiso   1.00
C338   C     0.85192   0.48139   0.12936   0.00000  Uiso   1.00
C339   C     0.81490   0.51769   0.37133   0.00000  Uiso   1.00
C340   C     0.87569   0.42359   0.01497   0.00000  Uiso   1.00
C341   C     0.85995   0.47204   0.08105   0.00000  Uiso   1.00
C342   C     0.79963   0.56761   0.44079   0.00000  Uiso   1.00
C343   C     0.89816   0.41221   0.08528   0.00000  Uiso   1.00
C344   C     0.88673   0.34115   0.20080   0.00000  Uiso   1.00
C345   C     0.88997   0.38359   0.49241   0.00000  Uiso   1.00
C346   C     0.77558   0.59189   0.42018   0.00000  Uiso   1.00
C347   C     0.86454   0.58381   0.02619   0.00000  Uiso   1.00
C348   C     0.83510   0.56056   0.49946   0.00000  Uiso   1.00
C349   C     0.79791   0.62377   0.00399   0.00000  Uiso   1.00
C350   C     0.83646   0.51747   0.48581   0.00000  Uiso   1.00
C351   C     0.82508   0.50168   0.44543   0.00000  Uiso   1.00
C352   C     0.84869   0.48946   0.01115   0.00000  Uiso   1.00
C353   C     0.85848   0.44944   0.49183   0.00000  Uiso   1.00
C354   C     0.84688   0.43474   0.45184   0.00000  Uiso   1.00
C355   C     0.82786   0.45938   0.43098   0.00000  Uiso   1.00
H356   H     0.98580   0.47174   0.28948   0.00000  Uiso   1.00
H357   H     0.85619   0.61139   0.04762   0.00000  Uiso   1.00
H358   H     0.79773   0.64968   0.48500   0.00000  Uiso   1.00
H359   H     0.68239   0.52826   0.21044   0.00000  Uiso   1.00
H360   H     0.81494   0.44443   0.40355   0.00000  Uiso   1.00
H361   H     0.88637   0.41129   0.12132   0.00000  Uiso   1.00
H362   H     0.90764   0.65414   0.17826   0.00000  Uiso   1.00
H363   H     0.79257   0.66380   0.28721   0.00000  Uiso   1.00
H364   H     0.84940   0.40301   0.43791   0.00000  Uiso   1.00
H365   H     0.90613   0.38170   0.45701   0.00000  Uiso   1.00
H366   H     0.83141   0.52482   0.07507   0.00000  Uiso   1.00
H367   H     0.74586   0.57735   0.41226   0.00000  Uiso   1.00
O368   O     0.83333   0.50000   0.25000   0.00000  Uiso   1.00
O369   O     0.82118   0.45970   0.15459   0.00000  Uiso   1.00
O370   O     0.79607   0.53724   0.34968   0.00000  Uiso   1.00
O371   O     0.87491   0.51092   0.14606   0.00000  Uiso   1.00
O372   O     0.84118   0.49213   0.34968   0.00000  Uiso   1.00
O373   O     0.92983   0.39533   0.06659   0.00000  Uiso   1.00
O374   O     0.89540   0.37856   0.19691   0.00000  Uiso   1.00
O375   O     0.88257   0.35217   0.01268   0.00000  Uiso   1.00
O376   O     0.78971   0.62737   0.40999   0.00000  Uiso   1.00
O377   O     0.89968   0.57312   0.02297   0.00000  Uiso   1.00
O378   O     0.78585   0.62800   0.04481   0.00000  Uiso   1.00
O379   O     0.84597   0.41352   0.28214   0.00000  Uiso   1.00
O380   O     0.81298   0.59418   0.27014   0.00000  Uiso   1.00
O381   O     0.74078   0.46625   0.23413   0.00000  Uiso   1.00
O382   O     0.93360   0.52605   0.21361   0.00000  Uiso   1.00
O383   O     0.73738   0.52211   0.28213   0.00000  Uiso   1.00
O384   O     0.92158   0.48559   0.27014   0.00000  Uiso   1.00
O385   O     0.80426   0.40277   0.23413   0.00000  Uiso   1.00
O386   O     0.87012   0.58953   0.21361   0.00000  Uiso   1.00
Zn387  Zn    0.86005   0.47327   0.28734   0.00000  Uiso   1.00
Zn388  Zn    0.80046   0.45791   0.21876   0.00000  Uiso   1.00
Zn389  Zn    0.87723   0.53109   0.20657   0.00000  Uiso   1.00
Zn390  Zn    0.79560   0.53773   0.28734   0.00000  Uiso   1.00
C391   C     0.05277   0.82622   0.25994   0.00000  Uiso   1.00
C392   C     0.17969   0.83173   0.05690   0.00000  Uiso   1.00
C393   C     0.21095   0.76921   0.05991   0.00000  Uiso   1.00
C394   C     0.28082   0.84048   0.23999   0.00000  Uiso   1.00
C395   C     0.14442   0.86163   0.42035   0.00000  Uiso   1.00
C396   C     0.32668   0.84332   0.23600   0.00000  Uiso   1.00
C397   C     0.00749   0.82352   0.26369   0.00000  Uiso   1.00
C398   C     0.18229   0.98952   0.23550   0.00000  Uiso   1.00
C399   C     0.15300   0.67845   0.26282   0.00000  Uiso   1.00
C400   C     0.15537   0.72263   0.26096   0.00000  Uiso   1.00
C401   C     0.17690   0.94467   0.23993   0.00000  Uiso   1.00
C402   C     0.14434   0.91674   0.48112   0.00000  Uiso   1.00
C403   C     0.18525   0.81472   0.12936   0.00000  Uiso   1.00
C404   C     0.14824   0.85103   0.37133   0.00000  Uiso   1.00
C405   C     0.20903   0.75692   0.01497   0.00000  Uiso   1.00
C406   C     0.19329   0.80538   0.08105   0.00000  Uiso   1.00
C407   C     0.13296   0.90094   0.44079   0.00000  Uiso   1.00
C408   C     0.23149   0.74554   0.08528   0.00000  Uiso   1.00
C409   C     0.22007   0.67449   0.20080   0.00000  Uiso   1.00
C410   C     0.22330   0.71693   0.49241   0.00000  Uiso   1.00
C411   C     0.10892   0.92523   0.42018   0.00000  Uiso   1.00
C412   C     0.19787   0.91714   0.02619   0.00000  Uiso   1.00
C413   C     0.16843   0.89389   0.49946   0.00000  Uiso   1.00
C414   C     0.13124   0.95710   0.00399   0.00000  Uiso   1.00
C415   C     0.16979   0.85081   0.48581   0.00000  Uiso   1.00
C416   C     0.15841   0.83502   0.44543   0.00000  Uiso   1.00
C417   C     0.18202   0.82279   0.01115   0.00000  Uiso   1.00
C418   C     0.19181   0.78278   0.49183   0.00000  Uiso   1.00
C419   C     0.18021   0.76807   0.45184   0.00000  Uiso   1.00
C420   C     0.16120   0.79272   0.43098   0.00000  Uiso   1.00
H421   H     0.31913   0.80508   0.28948   0.00000  Uiso   1.00
H422   H     0.18953   0.94472   0.04762   0.00000  Uiso   1.00
H423   H     0.13106   0.98302   0.48500   0.00000  Uiso   1.00
H424   H     0.01572   0.86160   0.21044   0.00000  Uiso   1.00
H425   H     0.14828   0.77777   0.40355   0.00000  Uiso   1.00
H426   H     0.21970   0.74462   0.12132   0.00000  Uiso   1.00
H427   H     0.24097   0.98748   0.17826   0.00000  Uiso   1.00
H428   H     0.12591   0.99713   0.28721   0.00000  Uiso   1.00
H429   H     0.18274   0.73634   0.43791   0.00000  Uiso   1.00
H430   H     0.23946   0.71503   0.45701   0.00000  Uiso   1.00
H431   H     0.16475   0.85815   0.07507   0.00000  Uiso   1.00
H432   H     0.07920   0.91068   0.41226   0.00000  Uiso   1.00
O433   O     0.16667   0.83333   0.25000   0.00000  Uiso   1.00
O434   O     0.15451   0.79304   0.15459   0.00000  Uiso   1.00
O435   O     0.12940   0.87058   0.34968   0.00000  Uiso   1.00
O436   O     0.20824   0.84425   0.14606   0.00000  Uiso   1.00
O437   O     0.17451   0.82546   0.34968   0.00000  Uiso   1.00
O438   O     0.26316   0.72866   0.06659   0.00000  Uiso   1.00
O439   O     0.22874   0.71190   0.19691   0.00000  Uiso   1.00
O440   O     0.21591   0.68550   0.01268   0.00000  Uiso   1.00
O441   O     0.12305   0.96070   0.40999   0.00000  Uiso   1.00
O442   O     0.23301   0.90645   0.02297   0.00000  Uiso   1.00
O443   O     0.11918   0.96133   0.04481   0.00000  Uiso   1.00
O444   O     0.17930   0.74686   0.28214   0.00000  Uiso   1.00
O445   O     0.14632   0.92751   0.27014   0.00000  Uiso   1.00
O446   O     0.07412   0.79958   0.23413   0.00000  Uiso   1.00
O447   O     0.26693   0.85939   0.21361   0.00000  Uiso   1.00
O448   O     0.07071   0.85544   0.28213   0.00000  Uiso   1.00
O449   O     0.25491   0.81892   0.27014   0.00000  Uiso   1.00
O450   O     0.13760   0.73610   0.23413   0.00000  Uiso   1.00
O451   O     0.20345   0.92286   0.21361   0.00000  Uiso   1.00
Zn452  Zn    0.19338   0.80661   0.28734   0.00000  Uiso   1.00
Zn453  Zn    0.13379   0.79124   0.21876   0.00000  Uiso   1.00
Zn454  Zn    0.21056   0.86442   0.20657   0.00000  Uiso   1.00
Zn455  Zn    0.12893   0.87106   0.28734   0.00000  Uiso   1.00
C456   C     0.38610   0.82622   0.25994   0.00000  Uiso   1.00
C457   C     0.51302   0.83173   0.05690   0.00000  Uiso   1.00
C458   C     0.54428   0.76921   0.05991   0.00000  Uiso   1.00
C459   C     0.61415   0.84048   0.23999   0.00000  Uiso   1.00
C460   C     0.47775   0.86163   0.42035   0.00000  Uiso   1.00
C461   C     0.66002   0.84332   0.23600   0.00000  Uiso   1.00
C462   C     0.34082   0.82352   0.26369   0.00000  Uiso   1.00
C463   C     0.51563   0.98952   0.23550   0.00000  Uiso   1.00
C464   C     0.48633   0.67845   0.26282   0.00000  Uiso   1.00
C465   C     0.48870   0.72263   0.26096   0.00000  Uiso   1.00
C466   C     0.51023   0.94467   0.23993   0.00000  Uiso   1.00
C467   C     0.47767   0.91674   0.48112   0.00000  Uiso   1.00
C468   C     0.51858   0.81472   0.12936   0.00000  Uiso   1.00
C469   C     0.48157   0.85103   0.37133   0.00000  Uiso   1.00
C470   C     0.54236   0.75692   0.01497   0.00000  Uiso   1.00
C471   C     0.52662   0.80538   0.08105   0.00000  Uiso   1.00
C472   C     0.46630   0.90094   0.44079   0.00000  Uiso   1.00
C473   C     0.56482   0.74554   0.08528   0.00000  Uiso   1.00
C474   C     0.55340   0.67449   0.20080   0.00000  Uiso   1.00
C475   C     0.55663   0.71693   0.49241   0.00000  Uiso   1.00
C476   C     0.44225   0.92523   0.42018   0.00000  Uiso   1.00
C477   C     0.53120   0.91714   0.02619   0.00000  Uiso   1.00
C478   C     0.50177   0.89389   0.49946   0.00000  Uiso   1.00
C479   C     0.46458   0.95710   0.00399   0.00000  Uiso   1.00
C480   C     0.50312   0.85081   0.48581   0.00000  Uiso   1.00
C481   C     0.49174   0.83502   0.44543   0.00000  Uiso   1.00
C482   C     0.51536   0.82279   0.01115   0.00000  Uiso   1.00
C483   C     0.52515   0.78278   0.49183   0.00000  Uiso   1.00
C484   C     0.51354   0.76807   0.45184   0.00000  Uiso   1.00
C485   C     0.49453   0.79272   0.43098   0.00000  Uiso   1.00
H486   H     0.65247   0.80508   0.28948   0.00000  Uiso   1.00
H487   H     0.52286   0.94472   0.04762   0.00000  Uiso   1.00
H488   H     0.46439   0.98302   0.48500   0.00000  Uiso   1.00
H489   H     0.34905   0.86160   0.21044   0.00000  Uiso   1.00
H490   H     0.48161   0.77777   0.40355   0.00000  Uiso   1.00
H491   H     0.55304   0.74462   0.12132   0.00000  Uiso   1.00
H492   H     0.57430   0.98748   0.17826   0.00000  Uiso   1.00
H493   H     0.45924   0.99713   0.28721   0.00000  Uiso   1.00
H494   H     0.51607   0.73634   0.43791   0.00000  Uiso   1.00
H495   H     0.57279   0.71503   0.45701   0.00000  Uiso   1.00
H496   H     0.49808   0.85815   0.07507   0.00000  Uiso   1.00
H497   H     0.41253   0.91068   0.41226   0.00000  Uiso   1.00
O498   O     0.50000   0.83333   0.25000   0.00000  Uiso   1.00
O499   O     0.48784   0.79304   0.15459   0.00000  Uiso   1.00
O500   O     0.46274   0.87058   0.34968   0.00000  Uiso   1.00
O501   O     0.54157   0.84425   0.14606   0.00000  Uiso   1.00
O502   O     0.50785   0.82546   0.34968   0.00000  Uiso   1.00
O503   O     0.59650   0.72866   0.06659   0.00000  Uiso   1.00
O504   O     0.56207   0.71190   0.19691   0.00000  Uiso   1.00
O505   O     0.54924   0.68550   0.01268   0.00000  Uiso   1.00
O506   O     0.45638   0.96070   0.40999   0.00000  Uiso   1.00
O507   O     0.56634   0.90645   0.02297   0.00000  Uiso   1.00
O508   O     0.45252   0.96133   0.04481   0.00000  Uiso   1.00
O509   O     0.51264   0.74686   0.28214   0.00000  Uiso   1.00
O510   O     0.47965   0.92751   0.27014   0.00000  Uiso   1.00
O511   O     0.40745   0.79958   0.23413   0.00000  Uiso   1.00
O512   O     0.60026   0.85939   0.21361   0.00000  Uiso   1.00
O513   O     0.40405   0.85544   0.28213   0.00000  Uiso   1.00
O514   O     0.58824   0.81892   0.27014   0.00000  Uiso   1.00
O515   O     0.47093   0.73610   0.23413   0.00000  Uiso   1.00
O516   O     0.53678   0.92286   0.21361   0.00000  Uiso   1.00
Zn517  Zn    0.52672   0.80661   0.28734   0.00000  Uiso   1.00
Zn518  Zn    0.46713   0.79124   0.21876   0.00000  Uiso   1.00
Zn519  Zn    0.54389   0.86442   0.20657   0.00000  Uiso   1.00
Zn520  Zn    0.46226   0.87106   0.28734   0.00000  Uiso   1.00
C521   C     0.71943   0.82622   0.25994   0.00000  Uiso   1.00
C522   C     0.84635   0.83173   0.05690   0.00000  Uiso   1.00
C523   C     0.87762   0.76921   0.05991   0.00000  Uiso   1.00
C524   C     0.94748   0.84048   0.23999   0.00000  Uiso   1.00
C525   C     0.81108   0.86163   0.42035   0.00000  Uiso   1.00
C526   C     0.99335   0.84332   0.23600   0.00000  Uiso   1.00
C527   C     0.67415   0.82352   0.26369   0.00000  Uiso   1.00
C528   C     0.84896   0.98952   0.23550   0.00000  Uiso   1.00
C529   C     0.81966   0.67845   0.26282   0.00000  Uiso   1.00
C530   C     0.82203   0.72263   0.26096   0.00000  Uiso   1.00
C531   C     0.84356   0.94467   0.23993   0.00000  Uiso   1.00
C532   C     0.81100   0.91674   0.48112   0.00000  Uiso   1.00
C533   C     0.85192   0.81472   0.12936   0.00000  Uiso   1.00
C534   C     0.81490   0.85103   0.37133   0.00000  Uiso   1.00
C535   C     0.87569   0.75692   0.01497   0.00000  Uiso   1.00
C536   C     0.85995   0.80538   0.08105   0.00000  Uiso   1.00
C537   C     0.79963   0.90094   0.44079   0.00000  Uiso   1.00
C538   C     0.89816   0.74554   0.08528   0.00000  Uiso   1.00
C539   C     0.88673   0.67449   0.20080   0.00000  Uiso   1.00
C540   C     0.88997   0.71693   0.49241   0.00000  Uiso   1.00
C541   C     0.77558   0.92523   0.42018   0.00000  Uiso   1.00
C542   C     0.86454   0.91714   0.02619   0.00000  Uiso   1.00
C543   C     0.83510   0.89389   0.49946   0.00000  Uiso   1.00
C544   C     0.79791   0.95710   0.00399   0.00000  Uiso   1.00
C545   C     0.83646   0.85081   0.48581   0.00000  Uiso   1.00
C546   C     0.82508   0.83502   0.44543   0.00000  Uiso   1.00
C547   C     0.84869   0.82279   0.01115   0.00000  Uiso   1.00
C548   C     0.85848   0.78278   0.49183   0.00000  Uiso   1.00
C549   C     0.84688   0.76807   0.45184   0.00000  Uiso   1.00
C550   C     0.82786   0.79272   0.43098   0.00000  Uiso   1.00
H551   H     0.98580   0.80508   0.28948   0.00000  Uiso   1.00
H552   H     0.85619   0.94472   0.04762   0.00000  Uiso   1.00
H553   H     0.79773   0.98302   0.48500   0.00000  Uiso   1.00
H554   H     0.68239   0.86160   0.21044   0.00000  Uiso   1.00
H555   H     0.81494   0.77777   0.40355   0.00000  Uiso   1.00
H556   H     0.88637   0.74462   0.12132   0.00000  Uiso   1.00
H557   H     0.90764   0.98748   0.17826   0.00000  Uiso   1.00
H558   H     0.79257   0.99713   0.28721   0.00000  Uiso   1.00
H559   H     0.84940   0.73634   0.43791   0.00000  Uiso   1.00
H560   H     0.90613   0.71503   0.45701   0.00000  Uiso   1.00
H561   H     0.83141   0.85815   0.07507   0.00000  Uiso   1.00
H562   H     0.74586   0.91068   0.41226   0.00000  Uiso   1.00
O563   O     0.83333   0.83333   0.25000   0.00000  Uiso   1.00
O564   O     0.82118   0.79304   0.15459   0.00000  Uiso   1.00
O565   O     0.79607   0.87058   0.34968   0.00000  Uiso   1.00
O566   O     0.87491   0.84425   0.14606   0.00000  Uiso   1.00
O567   O     0.84118   0.82546   0.34968   0.00000  Uiso   1.00
O568   O     0.92983   0.72866   0.06659   0.00000  Uiso   1.00
O569   O     0.89540   0.71190   0.19691   0.00000  Uiso   1.00
O570   O     0.88257   0.68550   0.01268   0.00000  Uiso   1.00
O571   O     0.78971   0.96070   0.40999   0.00000  Uiso   1.00
O572   O     0.89968   0.90645   0.02297   0.00000  Uiso   1.00
O573   O     0.78585   0.96133   0.04481   0.00000  Uiso   1.00
O574   O     0.84597   0.74686   0.28214   0.00000  Uiso   1.00
O575   O     0.81298   0.92751   0.27014   0.00000  Uiso   1.00
O576   O     0.74078   0.79958   0.23413   0.00000  Uiso   1.00
O577   O     0.93360   0.85939   0.21361   0.00000  Uiso   1.00
O578   O     0.73738   0.85544   0.28213   0.00000  Uiso   1.00
O579   O     0.92158   0.81892   0.27014   0.00000  Uiso   1.00
O580   O     0.80426   0.73610   0.23413   0.00000  Uiso   1.00
O581   O     0.87012   0.92286   0.21361   0.00000  Uiso   1.00
Zn582  Zn    0.86005   0.80661   0.28734   0.00000  Uiso   1.00
Zn583  Zn    0.80046   0.79124   0.21876   0.00000  Uiso   1.00
Zn584  Zn    0.87723   0.86442   0.20657   0.00000  Uiso   1.00
Zn585  Zn    0.79560   0.87106   0.28734   0.00000  Uiso   1.00
C586   C     0.05277   0.15955   0.75994   0.00000  Uiso   1.00
C587   C     0.17969   0.16506   0.55690   0.00000  Uiso   1.00
C588   C     0.21095   0.10254   0.55991   0.00000  Uiso   1.00
C589   C     0.28082   0.17381   0.73999   0.00000  Uiso   1.00
C590   C     0.14442   0.19496   0.92035   0.00000  Uiso   1.00
C591   C     0.32668   0.17666   0.73600   0.00000  Uiso   1.00
C592   C     0.00749   0.15685   0.76369   0.00000  Uiso   1.00
C593   C     0.18229   0.32286   0.73550   0.00000  Uiso   1.00
C594   C     0.15300   0.01178   0.76282   0.00000  Uiso   1.00
C595   C     0.15537   0.05596   0.76096   0.00000  Uiso   1.00
C596   C     0.17690   0.27801   0.73993   0.00000  Uiso   1.00
C597   C     0.14434   0.25008   0.98112   0.00000  Uiso   1.00
C598   C     0.18525   0.14805   0.62936   0.00000  Uiso   1.00
C599   C     0.14824   0.18436   0.87133   0.00000  Uiso   1.00
C600   C     0.20903   0.09025   0.51497   0.00000  Uiso   1.00
C601   C     0.19329   0.13871   0.58105   0.00000  Uiso   1.00
C602   C     0.13296   0.23428   0.94079   0.00000  Uiso   1.00
C603   C     0.23149   0.07888   0.58528   0.00000  Uiso   1.00
C604   C     0.22007   0.00782   0.70080   0.00000  Uiso   1.00
C605   C     0.22330   0.05026   0.99241   0.00000  Uiso   1.00
C606   C     0.10892   0.25856   0.92018   0.00000  Uiso   1.00
C607   C     0.19787   0.25047   0.52619   0.00000  Uiso   1.00
C608   C     0.16843   0.22722   0.99946   0.00000  Uiso   1.00
C609   C     0.13124   0.29043   0.50399   0.00000  Uiso   1.00
C610   C     0.16979   0.18414   0.98581   0.00000  Uiso   1.00
C611   C     0.15841   0.16835   0.94543   0.00000  Uiso   1.00
C612   C     0.18202   0.15613   0.51115   0.00000  Uiso   1.00
C613   C     0.19181   0.11611   0.99183   0.00000  Uiso   1.00
C614   C     0.18021   0.10140   0.95184   0.00000  Uiso   1.00
C615   C     0.16120   0.12605   0.93098   0.00000  Uiso   1.00
H616   H     0.31913   0.13841   0.78948   0.00000  Uiso   1.00
H617   H     0.18953   0.27806   0.54762   0.00000  Uiso   1.00
H618   H     0.13106   0.31635   0.98500   0.00000  Uiso   1.00
H619   H     0.01572   0.19493   0.71044   0.00000  Uiso   1.00
H620   H     0.14828   0.11110   0.90355   0.00000  Uiso   1.00
H621   H     0.21970   0.07796   0.62132   0.00000  Uiso   1.00
H622   H     0.24097   0.32081   0.67826   0.00000  Uiso   1.00
H623   H     0.12591   0.33047   0.78721   0.00000  Uiso   1.00
H624   H     0.18274   0.06968   0.93791   0.00000  Uiso   1.00
H625   H     0.23946   0.04837   0.95701   0.00000  Uiso   1.00
H626   H     0.16475   0.19149   0.57507   0.00000  Uiso   1.00
H627   H     0.07920   0.24401   0.91226   0.00000  Uiso   1.00
O628   O     0.16667   0.16667   0.75000   0.00000  Uiso   1.00
O629   O     0.15451   0.12637   0.65459   0.00000  Uiso   1.00
O630   O     0.12940   0.20391   0.84968   0.00000  Uiso   1.00
O631   O     0.20824   0.17759   0.64606   0.00000  Uiso   1.00
O632   O     0.17451   0.15880   0.84968   0.00000  Uiso   1.00
O633   O     0.26316   0.06200   0.56659   0.00000  Uiso   1.00
O634   O     0.22874   0.04523   0.69691   0.00000  Uiso   1.00
O635   O     0.21591   0.01883   0.51268   0.00000  Uiso   1.00
O636   O     0.12305   0.29403   0.90999   0.00000  Uiso   1.00
O637   O     0.23301   0.23979   0.52297   0.00000  Uiso   1.00
O638   O     0.11918   0.29466   0.54481   0.00000  Uiso   1.00
O639   O     0.17930   0.08019   0.78214   0.00000  Uiso   1.00
O640   O     0.14632   0.26085   0.77014   0.00000  Uiso   1.00
O641   O     0.07412   0.13291   0.73413   0.00000  Uiso   1.00
O642   O     0.26693   0.19272   0.71361   0.00000  Uiso   1.00
O643   O     0.07071   0.18878   0.78213   0.00000  Uiso   1.00
O644   O     0.25491   0.15226   0.77014   0.00000  Uiso   1.00
O645   O     0.13760   0.06944   0.73413   0.00000  Uiso   1.00
O646   O     0.20345   0.25620   0.71361   0.00000  Uiso   1.00
Zn647  Zn    0.19338   0.13994   0.78734   0.00000  Uiso   1.00
Zn648  Zn    0.13379   0.12458   0.71876   0.00000  Uiso   1.00
Zn649  Zn    0.21056   0.19775   0.70657   0.00000  Uiso   1.00
Zn650  Zn    0.12893   0.20439   0.78734   0.00000  Uiso   1.00
C651   C     0.38610   0.15955   0.75994   0.00000  Uiso   1.00
C652   C     0.51302   0.16506   0.55690   0.00000  Uiso   1.00
C653   C     0.54428   0.10254   0.55991   0.00000  Uiso   1.00
C654   C     0.61415   0.17381   0.73999   0.00000  Uiso   1.00
C655   C     0.47775   0.19496   0.92035   0.00000  Uiso   1.00
C656   C     0.66002   0.17666   0.73600   0.00000  Uiso   1.00
C657   C     0.34082   0.15685   0.76369   0.00000  Uiso   1.00
C658   C     0.51563   0.32286   0.73550   0.00000  Uiso   1.00
C659   C     0.48633   0.01178   0.76282   0.00000  Uiso   1.00
C660   C     0.48870   0.05596   0.76096   0.00000  Uiso   1.00
C661   C     0.51023   0.27801   0.73993   0.00000  Uiso   1.00
C662   C     0.47767   0.25008   0.98112   0.00000  Uiso   1.00
C663   C     0.51858   0.14805   0.62936   0.00000  Uiso   1.00
C664   C     0.48157   0.18436   0.87133   0.00000  Uiso   1.00
C665   C     0.54236   0.09025   0.51497   0.00000  Uiso   1.00
C666   C     0.52662   0.13871   0.58105   0.00000  Uiso   1.00
C667   C     0.46630   0.23428   0.94079   0.00000  Uiso   1.00
C668   C     0.56482   0.07888   0.58528   0.00000  Uiso   1.00
C669   C     0.55340   0.00782   0.70080   0.00000  Uiso   1.00
C670   C     0.55663   0.05026   0.99241   0.00000  Uiso   1.00
C671   C     0.44225   0.25856   0.92018   0.00000  Uiso   1.00
C672   C     0.53120   0.25047   0.52619   0.00000  Uiso   1.00
C673   C     0.50177   0.22722   0.99946   0.00000  Uiso   1.00
C674   C     0.46458   0.29043   0.50399   0.00000  Uiso   1.00
C675   C     0.50312   0.18414   0.98581   0.00000  Uiso   1.00
C676   C     0.49174   0.16835   0.94543   0.00000  Uiso   1.00
C677   C     0.51536   0.15613   0.51115   0.00000  Uiso   1.00
C678   C     0.52515   0.11611   0.99183   0.00000  Uiso   1.00
C679   C     0.51354   0.10140   0.95184   0.00000  Uiso   1.00
C680   C     0.49453   0.12605   0.93098   0.00000  Uiso   1.00
H681   H     0.65247   0.13841   0.78948   0.00000  Uiso   1.00
H682   H     0.52286   0.27806   0.54762   0.00000  Uiso   1.00
H683   H     0.46439   0.31635   0.98500   0.00000  Uiso   1.00
H684   H     0.34905   0.19493   0.71044   0.00000  Uiso   1.00
H685   H     0.48161   0.11110   0.90355   0.00000  Uiso   1.00
H686   H     0.55304   0.07796   0.62132   0.00000  Uiso   1.00
H687   H     0.57430   0.32081   0.67826   0.00000  Uiso   1.00
H688   H     0.45924   0.33047   0.78721   0.00000  Uiso   1.00
H689   H     0.51607   0.06968   0.93791   0.00000  Uiso   1.00
H690   H     0.57279   0.04837   0.95701   0.00000  Uiso   1.00
H691   H     0.49808   0.19149   0.57507   0.00000  Uiso   1.00
H692   H     0.41253   0.24401   0.91226   0.00000  Uiso   1.00
O693   O     0.50000   0.16667   0.75000   0.00000  Uiso   1.00
O694   O     0.48784   0.12637   0.65459   0.00000  Uiso   1.00
O695   O     0.46274   0.20391   0.84968   0.00000  Uiso   1.00
O696   O     0.54157   0.17759   0.64606   0.00000  Uiso   1.00
O697   O     0.50785   0.15880   0.84968   0.00000  Uiso   1.00
O698   O     0.59650   0.06200   0.56659   0.00000  Uiso   1.00
O699   O     0.56207   0.04523   0.69691   0.00000  Uiso   1.00
O700   O     0.54924   0.01883   0.51268   0.00000  Uiso   1.00
O701   O     0.45638   0.29403   0.90999   0.00000  Uiso   1.00
O702   O     0.56634   0.23979   0.52297   0.00000  Uiso   1.00
O703   O     0.45252   0.29466   0.54481   0.00000  Uiso   1.00
O704   O     0.51264   0.08019   0.78214   0.00000  Uiso   1.00
O705   O     0.47965   0.26085   0.77014   0.00000  Uiso   1.00
O706   O     0.40745   0.13291   0.73413   0.00000  Uiso   1.00
O707   O     0.60026   0.19272   0.71361   0.00000  Uiso   1.00
O708   O     0.40405   0.18878   0.78213   0.00000  Uiso   1.00
O709   O     0.58824   0.15226   0.77014   0.00000  Uiso   1.00
O710   O     0.47093   0.06944   0.73413   0.00000  Uiso   1.00
O711   O     0.53678   0.25620   0.71361   0.00000  Uiso   1.00
Zn712  Zn    0.52672   0.13994   0.78734   0.00000  Uiso   1.00
Zn713  Zn    0.46713   0.12458   0.71876   0.00000  Uiso   1.00
Zn714  Zn    0.54389   0.19775   0.70657   0.00000  Uiso   1.00
Zn715  Zn    0.46226   0.20439   0.78734   0.00000  Uiso   1.00
C716   C     0.71943   0.15955   0.75994   0.00000  Uiso   1.00
C717   C     0.84635   0.16506   0.55690   0.00000  Uiso   1.00
C718   C     0.87762   0.10254   0.55991   0.00000  Uiso   1.00
C719   C     0.94748   0.17381   0.73999   0.00000  Uiso   1.00
C720   C     0.81108   0.19496   0.92035   0.00000  Uiso   1.00
C721   C     0.99335   0.17666   0.73600   0.00000  Uiso   1.00
C722   C     0.67415   0.15685   0.76369   0.00000  Uiso   1.00
C723   C     0.84896   0.32286   0.73550   0.00000  Uiso   1.00
C724   C     0.81966   0.01178   0.76282   0.00000  Uiso   1.00
C725   C     0.82203   0.05596   0.76096   0.00000  Uiso   1.00
C726   C     0.84356   0.27801   0.73993   0.00000  Uiso   1.00
C727   C     0.81100   0.25008   0.98112   0.00000  Uiso   1.00
C728   C     0.85192   0.14805   0.62936   0.00000  Uiso   1.00
C729   C     0.81490   0.18436   0.87133   0.00000  Uiso   1.00
C730   C     0.87569   0.09025   0.51497   0.00000  Uiso   1.00
C731   C     0.85995   0.13871   0.58105   0.00000  Uiso   1.00
C732   C     0.79963   0.23428   0.94079   0.00000  Uiso   1.00
C733   C     0.89816   0.07888   0.58528   0.00000  Uiso   1.00
C734   C     0.88673   0.00782   0.70080   0.00000  Uiso   1.00
C735   C     0.88997   0.05026   0.99241   0.00000  Uiso   1.00
C736   C     0.77558   0.25856   0.92018   0.00000  Uiso   1.00
C737   C     0.86454   0.25047   0.52619   0.00000  Uiso   1.00
C738   C     0.83510   0.22722   0.99946   0.00000  Uiso   1.00
C739   C     0.79791   0.29043   0.50399   0.00000  Uiso   1.00
C740   C     0.83646   0.18414   0.98581   0.00000  Uiso   1.00
C741   C     0.82508   0.16835   0.94543   0.00000  Uiso   1.00
C742   C     0.84869   0.15613   0.51115   0.00000  Uiso   1.00
C743   C     0.85848   0.11611   0.99183   0.00000  Uiso   1.00
C744   C     0.84688   0.10140   0.95184   0.00000  Uiso   1.00
C745   C     0.82786   0.12605   0.93098   0.00000  Uiso   1.00
H746   H     0.98580   0.13841   0.78948   0.00000  Uiso   1.00
H747   H     0.85619   0.27806   0.54762   0.00000  Uiso   1.00
H748   H     0.79773   0.31635   0.98500   0.00000  Uiso   1.00
H749   H     0.68239   0.19493   0.71044   0.00000  Uiso   1.00
H750   H     0.81494   0.11110   0.90355   0.00000  Uiso   1.00
H751   H     0.88637   0.07796   0.62132   0.00000  Uiso   1.00
H752   H     0.90764   0.32081   0.67826   0.00000  Uiso   1.00
H753   H     0.79257   0.33047   0.78721   0.00000  Uiso   1.00
H754   H     0.84940   0.06968   0.93791   0.00000  Uiso   1.00
H755   H     0.90613   0.04837   0.95701   0.00000  Uiso   1.00
H756   H     0.83141   0.19149   0.57507   0.00000  Uiso   1.00
H757   H     0.74586   0.24401   0.91226   0.00000  Uiso   1.00
O758   O     0.83333   0.16667   0.75000   0.00000  Uiso   1.00
O759   O     0.82118   0.12637   0.65459   0.00000  Uiso   1.00
O760   O     0.79607   0.20391   0.84968   0.00000  Uiso   1.00
O761   O     0.87491   0.17759   0.64606   0.00000  Uiso   1.00
O762   O     0.84118   0.15880   0.84968   0.00000  Uiso   1.00
O763   O     0.92983   0.06200   0.56659   0.00000  Uiso   1.00
O764   O     0.89540   0.04523   0.69691   0.00000  Uiso   1.00
O765   O     0.88257   0.01883   0.51268   0.00000  Uiso   1.00
O766   O     0.78971   0.29403   0.90999   0.00000  Uiso   1.00
O767   O     0.89968   0.23979   0.52297   0.00000  Uiso   1.00
O768   O     0.78585   0.29466   0.54481   0.00000  Uiso   1.00
O769   O     0.84597   0.08019   0.78214   0.00000  Uiso   1.00
O770   O     0.81298   0.26085   0.77014   0.00000  Uiso   1.00
O771   O     0.74078   0.13291   0.73413   0.00000  Uiso   1.00
O772   O     0.93360   0.19272   0.71361   0.00000  Uiso   1.00
O773   O     0.73738   0.18878   0.78213   0.00000  Uiso   1.00
O774   O     0.92158   0.15226   0.77014   0.00000  Uiso   1.00
O775   O     0.80426   0.06944   0.73413   0.00000  Uiso   1.00
O776   O     0.87012   0.25620   0.71361   0.00000  Uiso   1.00
Zn777  Zn    0.86005   0.13994   0.78734   0.00000  Uiso   1.00
Zn778  Zn    0.80046   0.12458   0.71876   0.00000  Uiso   1.00
Zn779  Zn    0.87723   0.19775   0.70657   0.00000  Uiso   1.00
Zn780  Zn    0.79560   0.20439   0.78734   0.00000  Uiso   1.00
C781   C     0.05277   0.49288   0.75994   0.00000  Uiso   1.00
C782   C     0.17969   0.49840   0.55690   0.00000  Uiso   1.00
C783   C     0.21095   0.43587   0.55991   0.00000  Uiso   1.00
C784   C     0.28082   0.50715   0.73999   0.00000  Uiso   1.00
C785   C     0.14442   0.52829   0.92035   0.00000  Uiso   1.00
C786   C     0.32668   0.50999   0.73600   0.00000  Uiso   1.00
C787   C     0.00749   0.49019   0.76369   0.00000  Uiso   1.00
C788   C     0.18229   0.65619   0.73550   0.00000  Uiso   1.00
C789   C     0.15300   0.34511   0.76282   0.00000  Uiso   1.00
C790   C     0.15537   0.38929   0.76096   0.00000  Uiso   1.00
C791   C     0.17690   0.61134   0.73993   0.00000  Uiso   1.00
C792   C     0.14434   0.58341   0.98112   0.00000  Uiso   1.00
C793   C     0.18525   0.48139   0.62936   0.00000  Uiso   1.00
C794   C     0.14824   0.51769   0.87133   0.00000  Uiso   1.00
C795   C     0.20903   0.42359   0.51497   0.00000  Uiso   1.00
C796   C     0.19329   0.47204   0.58105   0.00000  Uiso   1.00
C797   C     0.13296   0.56761   0.94079   0.00000  Uiso   1.00
C798   C     0.23149   0.41221   0.58528   0.00000  Uiso   1.00
C799   C     0.22007   0.34115   0.70080   0.00000  Uiso   1.00
C800   C     0.22330   0.38359   0.99241   0.00000  Uiso   1.00
C801   C     0.10892   0.59189   0.92018   0.00000  Uiso   1.00
C802   C     0.19787   0.58381   0.52619   0.00000  Uiso   1.00
C803   C     0.16843   0.56056   0.99946   0.00000  Uiso   1.00
C804   C     0.13124   0.62377   0.50399   0.00000  Uiso   1.00
C805   C     0.16979   0.51747   0.98581   0.00000  Uiso   1.00
C806   C     0.15841   0.50168   0.94543   0.00000  Uiso   1.00
C807   C     0.18202   0.48946   0.51115   0.00000  Uiso   1.00
C808   C     0.19181   0.44944   0.99183   0.00000  Uiso   1.00
C809   C     0.18021   0.43474   0.95184   0.00000  Uiso   1.00
C810   C     0.16120   0.45938   0.93098   0.00000  Uiso   1.00
H811   H     0.31913   0.47174   0.78948   0.00000  Uiso   1.00
H812   H     0.18953   0.61139   0.54762   0.00000  Uiso   1.00
H813   H     0.13106   0.64968   0.98500   0.00000  Uiso   1.00
H814   H     0.01572   0.52826   0.71044   0.00000  Uiso   1.00
H815   H     0.14828   0.44443   0.90355   0.00000  Uiso   1.00
H816   H     0.21970   0.41129   0.62132   0.00000  Uiso   1.00
H817   H     0.24097   0.65414   0.67826   0.00000  Uiso   1.00
H818   H     0.12591   0.66380   0.78721   0.00000  Uiso   1.00
H819   H     0.18274   0.40301   0.93791   0.00000  Uiso   1.00
H820   H     0.23946   0.38170   0.95701   0.00000  Uiso   1.00
H821   H     0.16475   0.52482   0.57507   0.00000  Uiso   1.00
H822   H     0.07920   0.57735   0.91226   0.00000  Uiso   1.00
O823   O     0.16667   0.50000   0.75000   0.00000  Uiso   1.00
O824   O     0.15451   0.45970   0.65459   0.00000  Uiso   1.00
O825   O     0.12940   0.53724   0.84968   0.00000  Uiso   1.00
O826   O     0.20824   0.51092   0.64606   0.00000  Uiso   1.00
O827   O     0.17451   0.49213   0.84968   0.00000  Uiso   1.00
O828   O     0.26316   0.39533   0.56659   0.00000  Uiso   1.00
O829   O     0.22874   0.37856   0.69691   0.00000  Uiso   1.00
O830   O     0.21591   0.35217   0.51268   0.00000  Uiso   1.00
O831   O     0.12305   0.62737   0.90999   0.00000  Uiso   1.00
O832   O     0.23301   0.57312   0.52297   0.00000  Uiso   1.00
O833   O     0.11918   0.62800   0.54481   0.00000  Uiso   1.00
O834   O     0.17930   0.41352   0.78214   0.00000  Uiso   1.00
O835   O     0.14632   0.59418   0.77014   0.00000  Uiso   1.00
O836   O     0.07412   0.46625   0.73413   0.00000  Uiso   1.00
O837   O     0.26693   0.52605   0.71361   0.00000  Uiso   1.00
O838   O     0.07071   0.52211   0.78213   0.00000  Uiso   1.00
O839   O     0.25491   0.48559   0.77014   0.00000  Uiso   1.00
O840   O     0.13760   0.40277   0.73413   0.00000  Uiso   1.00
O841   O     0.20345   0.58953   0.71361   0.00000  Uiso   1.00
Zn842  Zn    0.19338   0.47327   0.78734   0.00000  Uiso   1.00
Zn843  Zn    0.13379   0.45791   0.71876   0.00000  Uiso   1.00
Zn844  Zn    0.21056   0.53109   0.70657   0.00000  Uiso   1.00
Zn845  Zn    0.12893   0.53773   0.78734   0.00000  Uiso   1.00
C846   C     0.38610   0.49288   0.75994   0.00000  Uiso   1.00
C847   C     0.51302   0.49840   0.55690   0.00000  Uiso   1.00
C848   C     0.54428   0.43587   0.55991   0.00000  Uiso   1.00
C849   C     0.61415   0.50715   0.73999   0.00000  Uiso   1.00
C850   C     0.47775   0.52829   0.92035   0.00000  Uiso   1.00
C851   C     0.66002   0.50999   0.73600   0.00000  Uiso   1.00
C852   C     0.34082   0.49019   0.76369   0.00000  Uiso   1.00
C853   C     0.51563   0.65619   0.73550   0.00000  Uiso   1.00
C854   C     0.48633   0.34511   0.76282   0.00000  Uiso   1.00
C855   C     0.48870   0.38929   0.76096   0.00000  Uiso   1.00
C856   C     0.51023   0.61134   0.73993   0.00000  Uiso   1.00
C857   C     0.47767   0.58341   0.98112   0.00000  Uiso   1.00
C858   C     0.51858   0.48139   0.62936   0.00000  Uiso   1.00
C859   C     0.48157   0.51769   0.87133   0.00000  Uiso   1.00
C860   C     0.54236   0.42359   0.51497   0.00000  Uiso   1.00
C861   C     0.52662   0.47204   0.58105   0.00000  Uiso   1.00
C862   C     0.46630   0.56761   0.94079   0.00000  Uiso   1.00
C863   C     0.56482   0.41221   0.58528   0.00000  Uiso   1.00
C864   C     0.55340   0.34115   0.70080   0.00000  Uiso   1.00
C865   C     0.55663   0.38359   0.99241   0.00000  Uiso   1.00
C866   C     0.44225   0.59189   0.92018   0.00000  Uiso   1.00
C867   C     0.53120   0.58381   0.52619   0.00000  Uiso   1.00
C868   C     0.50177   0.56056   0.99946   0.00000  Uiso   1.00
C869   C     0.46458   0.62377   0.50399   0.00000  Uiso   1.00
C870   C     0.50312   0.51747   0.98581   0.00000  Uiso   1.00
C871   C     0.49174   0.50168   0.94543   0.00000  Uiso   1.00
C872   C     0.51536   0.48946   0.51115   0.00000  Uiso   1.00
C873   C     0.52515   0.44944   0.99183   0.00000  Uiso   1.00
C874   C     0.51354   0.43474   0.95184   0.00000  Uiso   1.00
C875   C     0.49453   0.45938   0.93098   0.00000  Uiso   1.00
H876   H     0.65247   0.47174   0.78948   0.00000  Uiso   1.00
H877   H     0.52286   0.61139   0.54762   0.00000  Uiso   1.00
H878   H     0.46439   0.64968   0.98500   0.00000  Uiso   1.00
H879   H     0.34905   0.52826   0.71044   0.00000  Uiso   1.00
H880   H     0.48161   0.44443   0.90355   0.00000  Uiso   1.00
H881   H     0.55304   0.41129   0.62132   0.00000  Uiso   1.00
H882   H     0.57430   0.65414   0.67826   0.00000  Uiso   1.00
H883   H     0.45924   0.66380   0.78721   0.00000  Uiso   1.00
H884   H     0.51607   0.40301   0.93791   0.00000  Uiso   1.00
H885   H     0.57279   0.38170   0.95701   0.00000  Uiso   1.00
H886   H     0.49808   0.52482   0.57507   0.00000  Uiso   1.00
H887   H     0.41253   0.57735   0.91226   0.00000  Uiso   1.00
O888   O     0.50000   0.50000   0.75000   0.00000  Uiso   1.00
O889   O     0.48784   0.45970   0.65459   0.00000  Uiso   1.00
O890   O     0.46274   0.53724   0.84968   0.00000  Uiso   1.00
O891   O     0.54157   0.51092   0.64606   0.00000  Uiso   1.00
O892   O     0.50785   0.49213   0.84968   0.00000  Uiso   1.00
O893   O     0.59650   0.39533   0.56659   0.00000  Uiso   1.00
O894   O     0.56207   0.37856   0.69691   0.00000  Uiso   1.00
O895   O     0.54924   0.35217   0.51268   0.00000  Uiso   1.00
O896   O     0.45638   0.62737   0.90999   0.00000  Uiso   1.00
O897   O     0.56634   0.57312   0.52297   0.00000  Uiso   1.00
O898   O     0.45252   0.62800   0.54481   0.00000  Uiso   1.00
O899   O     0.51264   0.41352   0.78214   0.00000  Uiso   1.00
O900   O     0.47965   0.59418   0.77014   0.00000  Uiso   1.00
O901   O     0.40745   0.46625   0.73413   0.00000  Uiso   1.00
O902   O     0.60026   0.52605   0.71361   0.00000  Uiso   1.00
O903   O     0.40405   0.52211   0.78213   0.00000  Uiso   1.00
O904   O     0.58824   0.48559   0.77014   0.00000  Uiso   1.00
O905   O     0.47093   0.40277   0.73413   0.00000  Uiso   1.00
O906   O     0.53678   0.58953   0.71361   0.00000  Uiso   1.00
Zn907  Zn    0.52672   0.47327   0.78734   0.00000  Uiso   1.00
Zn908  Zn    0.46713   0.45791   0.71876   0.00000  Uiso   1.00
Zn909  Zn    0.54389   0.53109   0.70657   0.00000  Uiso   1.00
Zn910  Zn    0.46226   0.53773   0.78734   0.00000  Uiso   1.00
C911   C     0.71943   0.49288   0.75994   0.00000  Uiso   1.00
C912   C     0.84635   0.49840   0.55690   0.00000  Uiso   1.00
C913   C     0.87762   0.43587   0.55991   0.00000  Uiso   1.00
C914   C     0.94748   0.50715   0.73999   0.00000  Uiso   1.00
C915   C     0.81108   0.52829   0.92035   0.00000  Uiso   1.00
C916   C     0.99335   0.50999   0.73600   0.00000  Uiso   1.00
C917   C     0.67415   0.49019   0.76369   0.00000  Uiso   1.00
C918   C     0.84896   0.65619   0.73550   0.00000  Uiso   1.00
C919   C     0.81966   0.34511   0.76282   0.00000  Uiso   1.00
C920   C     0.82203   0.38929   0.76096   0.00000  Uiso   1.00
C921   C     0.84356   0.61134   0.73993   0.00000  Uiso   1.00
C922   C     0.81100   0.58341   0.98112   0.00000  Uiso   1.00
C923   C     0.85192   0.48139   0.62936   0.00000  Uiso   1.00
C924   C     0.81490   0.51769   0.87133   0.00000  Uiso   1.00
C925   C     0.87569   0.42359   0.51497   0.00000  Uiso   1.00
C926   C     0.85995   0.47204   0.58105   0.00000  Uiso   1.00
C927   C     0.79963   0.56761   0.94079   0.00000  Uiso   1.00
C928   C     0.89816   0.41221   0.58528   0.00000  Uiso   1.00
C929   C     0.88673   0.34115   0.70080   0.00000  Uiso   1.00
C930   C     0.88997   0.38359   0.99241   0.00000  Uiso   1.00
C931   C     0.77558   0.59189   0.92018   0.00000  Uiso   1.00
C932   C     0.86454   0.58381   0.52619   0.00000  Uiso   1.00
C933   C     0.83510   0.56056   0.99946   0.00000  Uiso   1.00
C934   C     0.79791   0.62377   0.50399   0.00000  Uiso   1.00
C935   C     0.83646   0.51747   0.98581   0.00000  Uiso   1.00
C936   C     0.82508   0.50168   0.94543   0.00000  Uiso   1.00
C937   C     0.84869   0.48946   0.51115   0.00000  Uiso   1.00
C938   C     0.85848   0.44944   0.99183   0.00000  Uiso   1.00
C939   C     0.84688   0.43474   0.95184   0.00000  Uiso   1.00
C940   C     0.82786   0.45938   0.93098   0.00000  Uiso   1.00
H941   H     0.98580   0.47174   0.78948   0.00000  Uiso   1.00
H942   H     0.85619   0.61139   0.54762   0.00000  Uiso   1.00
H943   H     0.79773   0.64968   0.98500   0.00000  Uiso   1.00
H944   H     0.68239   0.52826   0.71044   0.00000  Uiso   1.00
H945   H     0.81494   0.44443   0.90355   0.00000  Uiso   1.00
H946   H     0.88637   0.41129   0.62132   0.00000  Uiso   1.00
H947   H     0.90764   0.65414   0.67826   0.00000  Uiso   1.00
H948   H     0.79257   0.66380   0.78721   0.00000  Uiso   1.00
H949   H     0.84940   0.40301   0.93791   0.00000  Uiso   1.00
H950   H     0.90613   0.38170   0.95701   0.00000  Uiso   1.00
H951   H     0.83141   0.52482   0.57507   0.00000  Uiso   1.00
H952   H     0.74586   0.57735   0.91226   0.00000  Uiso   1.00
O953   O     0.83333   0.50000   0.75000   0.00000  Uiso   1.00
O954   O     0.82118   0.45970   0.65459   0.00000  Uiso   1.00
O955   O     0.79607   0.53724   0.84968   0.00000  Uiso   1.00
O956   O     0.87491   0.51092   0.64606   0.00000  Uiso   1.00
O957   O     0.84118   0.49213   0.84968   0.00000  Uiso   1.00
O958   O     0.92983   0.39533   0.56659   0.00000  Uiso   1.00
O959   O     0.89540   0.37856   0.69691   0.00000  Uiso   1.00
O960   O     0.88257   0.35217   0.51268   0.00000  Uiso   1.00
O961   O     0.78971   0.62737   0.90999   0.00000  Uiso   1.00
O962   O     0.89968   0.57312   0.52297   0.00000  Uiso   1.00
O963   O     0.78585   0.62800   0.54481   0.00000  Uiso   1.00
O964   O     0.84597   0.41352   0.78214   0.00000  Uiso   1.00
O965   O     0.81298   0.59418   0.77014   0.00000  Uiso   1.00
O966   O     0.74078   0.46625   0.73413   0.00000  Uiso   1.00
O967   O     0.93360   0.52605   0.71361   0.00000  Uiso   1.00
O968   O     0.73738   0.52211   0.78213   0.00000  Uiso   1.00
O969   O     0.92158   0.48559   0.77014   0.00000  Uiso   1.00
O970   O     0.80426   0.40277   0.73413   0.00000  Uiso   1.00
O971   O     0.87012   0.58953   0.71361   0.00000  Uiso   1.00
Zn972  Zn    0.86005   0.47327   0.78734   0.00000  Uiso   1.00
Zn973  Zn    0.80046   0.45791   0.71876   0.00000  Uiso   1.00
Zn974  Zn    0.87723   0.53109   0.70657   0.00000  Uiso   1.00
Zn975  Zn    0.79560   0.53773   0.78734   0.00000  Uiso   1.00
C976   C     0.05277   0.82622   0.75994   0.00000  Uiso   1.00
C977   C     0.17969   0.83173   0.55690   0.00000  Uiso   1.00
C978   C     0.21095   0.76921   0.55991   0.00000  Uiso   1.00
C979   C     0.28082   0.84048   0.73999   0.00000  Uiso   1.00
C980   C     0.14442   0.86163   0.92035   0.00000  Uiso   1.00
C981   C     0.32668   0.84332   0.73600   0.00000  Uiso   1.00
C982   C     0.00749   0.82352   0.76369   0.00000  Uiso   1.00
C983   C     0.18229   0.98952   0.73550   0.00000  Uiso   1.00
C984   C     0.15300   0.67845   0.76282   0.00000  Uiso   1.00
C985   C     0.15537   0.72263   0.76096   0.00000  Uiso   1.00
C986   C     0.17690   0.94467   0.73993   0.00000  Uiso   1.00
C987   C     0.14434   0.91674   0.98112   0.00000  Uiso   1.00
C988   C     0.18525   0.81472   0.62936   0.00000  Uiso   1.00
C989   C     0.14824   0.85103   0.87133   0.00000  Uiso   1.00
C990   C     0.20903   0.75692   0.51497   0.00000  Uiso   1.00
C991   C     0.19329   0.80538   0.58105   0.00000  Uiso   1.00
C992   C     0.13296   0.90094   0.94079   0.00000  Uiso   1.00
C993   C     0.23149   0.74554   0.58528   0.00000  Uiso   1.00
C994   C     0.22007   0.67449   0.70080   0.00000  Uiso   1.00
C995   C     0.22330   0.71693   0.99241   0.00000  Uiso   1.00
C996   C     0.10892   0.92523   0.92018   0.00000  Uiso   1.00
C997   C     0.19787   0.91714   0.52619   0.00000  Uiso   1.00
C998   C     0.16843   0.89389   0.99946   0.00000  Uiso   1.00
C999   C     0.13124   0.95710   0.50399   0.00000  Uiso   1.00
C1000  C     0.16979   0.85081   0.98581   0.00000  Uiso   1.00
C1001  C     0.15841   0.83502   0.94543   0.00000  Uiso   1.00
C1002  C     0.18202   0.82279   0.51115   0.00000  Uiso   1.00
C1003  C     0.19181   0.78278   0.99183   0.00000  Uiso   1.00
C1004  C     0.18021   0.76807   0.95184   0.00000  Uiso   1.00
C1005  C     0.16120   0.79272   0.93098   0.00000  Uiso   1.00
H1006  H     0.31913   0.80508   0.78948   0.00000  Uiso   1.00
H1007  H     0.18953   0.94472   0.54762   0.00000  Uiso   1.00
H1008  H     0.13106   0.98302   0.98500   0.00000  Uiso   1.00
H1009  H     0.01572   0.86160   0.71044   0.00000  Uiso   1.00
H1010  H     0.14828   0.77777   0.90355   0.00000  Uiso   1.00
H1011  H     0.21970   0.74462   0.62132   0.00000  Uiso   1.00
H1012  H     0.24097   0.98748   0.67826   0.00000  Uiso   1.00
H1013  H     0.12591   0.99713   0.78721   0.00000  Uiso   1.00
H1014  H     0.18274   0.73634   0.93791   0.00000  Uiso   1.00
H1015  H     0.23946   0.71503   0.95701   0.00000  Uiso   1.00
H1016  H     0.16475   0.85815   0.57507   0.00000  Uiso   1.00
H1017  H     0.07920   0.91068   0.91226   0.00000  Uiso   1.00
O1018  O     0.16667   0.83333   0.75000   0.00000  Uiso   1.00
O1019  O     0.15451   0.79304   0.65459   0.00000  Uiso   1.00
O1020  O     0.12940   0.87058   0.84968   0.00000  Uiso   1.00
O1021  O     0.20824   0.84425   0.64606   0.00000  Uiso   1.00
O1022  O     0.17451   0.82546   0.84968   0.00000  Uiso   1.00
O1023  O     0.26316   0.72866   0.56659   0.00000  Uiso   1.00
O1024  O     0.22874   0.71190   0.69691   0.00000  Uiso   1.00
O1025  O     0.21591   0.68550   0.51268   0.00000  Uiso   1.00
O1026  O     0.12305   0.96070   0.90999   0.00000  Uiso   1.00
O1027  O     0.23301   0.90645   0.52297   0.00000  Uiso   1.00
O1028  O     0.11918   0.96133   0.54481   0.00000  Uiso   1.00
O1029  O     0.17930   0.74686   0.78214   0.00000  Uiso   1.00
O1030  O     0.14632   0.92751   0.77014   0.00000  Uiso   1.00
O1031  O     0.07412   0.79958   0.73413   0.00000  Uiso   1.00
O1032  O     0.26693   0.85939   0.71361   0.00000  Uiso   1.00
O1033  O     0.07071   0.85544   0.78213   0.00000  Uiso   1.00
O1034  O     0.25491   0.81892   0.77014   0.00000  Uiso   1.00
O1035  O     0.13760   0.73610   0.73413   0.00000  Uiso   1.00
O1036  O     0.20345   0.92286   0.71361   0.00000  Uiso   1.00
Zn1037 Zn    0.19338   0.80661   0.78734   0.00000  Uiso   1.00
Zn1038 Zn    0.13379   0.79124   0.71876   0.00000  Uiso   1.00
Zn1039 Zn    0.21056   0.86442   0.70657   0.00000  Uiso   1.00
Zn1040 Zn    0.12893   0.87106   0.78734   0.00000  Uiso   1.00
C1041  C     0.38610   0.82622   0.75994   0.00000  Uiso   1.00
C1042  C     0.51302   0.83173   0.55690   0.00000  Uiso   1.00
C1043  C     0.54428   0.76921   0.55991   0.00000  Uiso   1.00
C1044  C     0.61415   0.84048   0.73999   0.00000  Uiso   1.00
C1045  C     0.47775   0.86163   0.92035   0.00000  Uiso   1.00
C1046  C     0.66002   0.84332   0.73600   0.00000  Uiso   1.00
C1047  C     0.34082   0.82352   0.76369   0.00000  Uiso   1.00
C1048  C     0.51563   0.98952   0.73550   0.00000  Uiso   1.00
C1049  C     0.48633   0.67845   0.76282   0.00000  Uiso   1.00
C1050  C     0.48870   0.72263   0.76096   0.00000  Uiso   1.00
C1051  C     0.51023   0.94467   0.73993   0.00000  Uiso   1.00
C1052  C     0.47767   0.91674   0.98112   0.00000  Uiso   1.00
C1053  C     0.51858   0.81472   0.62936   0.00000  Uiso   1.00
C1054  C     0.48157   0.85103   0.87133   0.00000  Uiso   1.00
C1055  C     0.54236   0.75692   0.51497   0.00000  Uiso   1.00
C1056  C     0.52662   0.80538   0.58105   0.00000  Uiso   1.00
C1057  C     0.46630   0.90094   0.94079   0.00000  Uiso   1.00
C1058  C     0.56482   0.74554   0.58528   0.00000  Uiso   1.00
C1059  C     0.55340   0.67449   0.70080   0.00000  Uiso   1.00
C1060  C     0.55663   0.71693   0.99241   0.00000  Uiso   1.00
C1061  C     0.44225   0.92523   0.92018   0.00000  Uiso   1.00
C1062  C     0.53120   0.91714   0.52619   0.00000  Uiso   1.00
C1063  C     0.50177   0.89389   0.99946   0.00000  Uiso   1.00
C1064  C     0.46458   0.95710   0.50399   0.00000  Uiso   1.00
C1065  C     0.50312   0.85081   0.98581   0.00000  Uiso   1.00
C1066  C     0.49174   0.83502   0.94543   0.00000  Uiso   1.00
C1067  C     0.51536   0.82279   0.51115   0.00000  Uiso   1.00
C1068  C     0.52515   0.78278   0.99183   0.00000  Uiso   1.00
C1069  C     0.51354   0.76807   0.95184   0.00000  Uiso   1.00
C1070  C     0.49453   0.79272   0.93098   0.00000  Uiso   1.00
H1071  H     0.65247   0.80508   0.78948   0.00000  Uiso   1.00
H1072  H     0.52286   0.94472   0.54762   0.00000  Uiso   1.00
H1073  H     0.46439   0.98302   0.98500   0.00000  Uiso   1.00
H1074  H     0.34905   0.86160   0.71044   0.00000  Uiso   1.00
H1075  H     0.48161   0.77777   0.90355   0.00000  Uiso   1.00
H1076  H     0.55304   0.74462   0.62132   0.00000  Uiso   1.00
H1077  H     0.57430   0.98748   0.67826   0.00000  Uiso   1.00
H1078  H     0.45924   0.99713   0.78721   0.00000  Uiso   1.00
H1079  H     0.51607   0.73634   0.93791   0.00000  Uiso   1.00
H1080  H     0.57279   0.71503   0.95701   0.00000  Uiso   1.00
H1081  H     0.49808   0.85815   0.57507   0.00000  Uiso   1.00
H1082  H     0.41253   0.91068   0.91226   0.00000  Uiso   1.00
O1083  O     0.50000   0.83333   0.75000   0.00000  Uiso   1.00
O1084  O     0.48784   0.79304   0.65459   0.00000  Uiso   1.00
O1085  O     0.46274   0.87058   0.84968   0.00000  Uiso   1.00
O1086  O     0.54157   0.84425   0.64606   0.00000  Uiso   1.00
O1087  O     0.50785   0.82546   0.84968   0.00000  Uiso   1.00
O1088  O     0.59650   0.72866   0.56659   0.00000  Uiso   1.00
O1089  O     0.56207   0.71190   0.69691   0.00000  Uiso   1.00
O1090  O     0.54924   0.68550   0.51268   0.00000  Uiso   1.00
O1091  O     0.45638   0.96070   0.90999   0.00000  Uiso   1.00
O1092  O     0.56634   0.90645   0.52297   0.00000  Uiso   1.00
O1093  O     0.45252   0.96133   0.54481   0.00000  Uiso   1.00
O1094  O     0.51264   0.74686   0.78214   0.00000  Uiso   1.00
O1095  O     0.47965   0.92751   0.77014   0.00000  Uiso   1.00
O1096  O     0.40745   0.79958   0.73413   0.00000  Uiso   1.00
O1097  O     0.60026   0.85939   0.71361   0.00000  Uiso   1.00
O1098  O     0.40405   0.85544   0.78213   0.00000  Uiso   1.00
O1099  O     0.58824   0.81892   0.77014   0.00000  Uiso   1.00
O1100  O     0.47093   0.73610   0.73413   0.00000  Uiso   1.00
O1101  O     0.53678   0.92286   0.71361   0.00000  Uiso   1.00
Zn1102 Zn    0.52672   0.80661   0.78734   0.00000  Uiso   1.00
Zn1103 Zn    0.46713   0.79124   0.71876   0.00000  Uiso   1.00
Zn1104 Zn    0.54389   0.86442   0.70657   0.00000  Uiso   1.00
Zn1105 Zn    0.46226   0.87106   0.78734   0.00000  Uiso   1.00
C1106  C     0.71943   0.82622   0.75994   0.00000  Uiso   1.00
C1107  C     0.84635   0.83173   0.55690   0.00000  Uiso   1.00
C1108  C     0.87762   0.76921   0.55991   0.00000  Uiso   1.00
C1109  C     0.94748   0.84048   0.73999   0.00000  Uiso   1.00
C1110  C     0.81108   0.86163   0.92035   0.00000  Uiso   1.00
C1111  C     0.99335   0.84332   0.73600   0.00000  Uiso   1.00
C1112  C     0.67415   0.82352   0.76369   0.00000  Uiso   1.00
C1113  C     0.84896   0.98952   0.73550   0.00000  Uiso   1.00
C1114  C     0.81966   0.67845   0.76282   0.00000  Uiso   1.00
C1115  C     0.82203   0.72263   0.76096   0.00000  Uiso   1.00
C1116  C     0.84356   0.94467   0.73993   0.00000  Uiso   1.00
C1117  C     0.81100   0.91674   0.98112   0.00000  Uiso   1.00
C1118  C     0.85192   0.81472   0.62936   0.00000  Uiso   1.00
C1119  C     0.81490   0.85103   0.87133   0.00000  Uiso   1.00
C1120  C     0.87569   0.75692   0.51497   0.00000  Uiso   1.00
C1121  C     0.85995   0.80538   0.58105   0.00000  Uiso   1.00
C1122  C     0.79963   0.90094   0.94079   0.00000  Uiso   1.00
C1123  C     0.89816   0.74554   0.58528   0.00000  Uiso   1.00
C1124  C     0.88673   0.67449   0.70080   0.00000  Uiso   1.00
C1125  C     0.88997   0.71693   0.99241   0.00000  Uiso   1.00
C1126  C     0.77558   0.92523   0.92018   0.00000  Uiso   1.00
C1127  C     0.86454   0.91714   0.52619   0.00000  Uiso   1.00
C1128  C     0.83510   0.89389   0.99946   0.00000  Uiso   1.00
C1129  C     0.79791   0.95710   0.50399   0.00000  Uiso   1.00
C1130  C     0.83646   0.85081   0.98581   0.00000  Uiso   1.00
C1131  C     0.82508   0.83502   0.94543   0.00000  Uiso   1.00
C1132  C     0.84869   0.82279   0.51115   0.00000  Uiso   1.00
C1133  C     0.85848   0.78278   0.99183   0.00000  Uiso   1.00
C1134  C     0.84688   0.76807   0.95184   0.00000  Uiso   1.00
C1135  C     0.82786   0.79272   0.93098   0.00000  Uiso   1.00
H1136  H     0.98580   0.80508   0.78948   0.00000  Uiso   1.00
H1137  H     0.85619   0.94472   0.54762   0.00000  Uiso   1.00
H1138  H     0.79773   0.98302   0.98500   0.00000  Uiso   1.00
H1139  H     0.68239   0.86160   0.71044   0.00000  Uiso   1.00
H1140  H     0.81494   0.77777   0.90355   0.00000  Uiso   1.00
H1141  H     0.88637   0.74462   0.62132   0.00000  Uiso   1.00
H1142  H     0.90764   0.98748   0.67826   0.00000  Uiso   1.00
H1143  H     0.79257   0.99713   0.78721   0.00000  Uiso   1.00
H1144  H     0.84940   0.73634   0.93791   0.00000  Uiso   1.00
H1145  H     0.90613   0.71503   0.95701   0.00000  Uiso   1.00
H1146  H     0.83141   0.85815   0.57507   0.00000  Uiso   1.00
H1147  H     0.74586   0.91068   0.91226   0.00000  Uiso   1.00
O1148  O     0.83333   0.83333   0.75000   0.00000  Uiso   1.00
O1149  O     0.82118   0.79304   0.65459   0.00000  Uiso   1.00
O1150  O     0.79607   0.87058   0.84968   0.00000  Uiso   1.00
O1151  O     0.87491   0.84425   0.64606   0.00000  Uiso   1.00
O1152  O     0.84118   0.82546   0.84968   0.00000  Uiso   1.00
O1153  O     0.92983   0.72866   0.56659   0.00000  Uiso   1.00
O1154  O     0.89540   0.71190   0.69691   0.00000  Uiso   1.00
O1155  O     0.88257   0.68550   0.51268   0.00000  Uiso   1.00
O1156  O     0.78971   0.96070   0.90999   0.00000  Uiso   1.00
O1157  O     0.89968   0.90645   0.52297   0.00000  Uiso   1.00
O1158  O     0.78585   0.96133   0.54481   0.00000  Uiso   1.00
O1159  O     0.84597   0.74686   0.78214   0.00000  Uiso   1.00
O1160  O     0.81298   0.92751   0.77014   0.00000  Uiso   1.00
O1161  O     0.74078   0.79958   0.73413   0.00000  Uiso   1.00
O1162  O     0.93360   0.85939   0.71361   0.00000  Uiso   1.00
O1163  O     0.73738   0.85544   0.78213   0.00000  Uiso   1.00
O1164  O     0.92158   0.81892   0.77014   0.00000  Uiso   1.00
O1165  O     0.80426   0.73610   0.73413   0.00000  Uiso   1.00
O1166  O     0.87012   0.92286   0.71361   0.00000  Uiso   1.00
Zn1167 Zn    0.86005   0.80661   0.78734   0.00000  Uiso   1.00
Zn1168 Zn    0.80046   0.79124   0.71876   0.00000  Uiso   1.00
Zn1169 Zn    0.87723   0.86442   0.70657   0.00000  Uiso   1.00
Zn1170 Zn    0.79560   0.87106   0.78734   0.00000  Uiso   1.00
loop_
_geom_bond_atom_site_label_1
_geom_bond_atom_site_label_2
_geom_bond_distance
_geom_bond_site_symmetry_2
_ccdc_geom_bond_type
C1     O58     1.271   .     A
C1     O56     1.271   .     A
C1     C7      1.437   .     S
C2     C16     1.386   .     A
C2     C27     1.399   .     A
C2     H41     1.083   .     S
C3     C18     1.490   .     S
C3     C15     1.420   .     A
C3     C16     1.410   .     A
C4     O57     1.280   .     A
C4     O59     1.277   .     A
C4     C6      1.454   .     S
C5     C14     1.496   .     S
C5     C17     1.423   .     A
C5     C26     1.419   .     A
C6     C72     1.334   .     S
C6     H99     1.088   .     S
C7     C136    1.334   1_455 S
C7     H161    1.086   1_455 S
C8     C11     1.462   .     S
C8     C204    1.343   .     S
C8     C214    1.501   .     S
C9     C10     1.436   .     S
C9     C398    1.343   1_545 S
C9     H428    1.086   1_545 S
C10    O60     1.274   .     A
C10    O54     1.274   .     A
C11    O55     1.280   .     A
C11    O61     1.268   .     A
C12    C17     1.415   .     A
C12    C23     1.412   .     A
C12    C609    1.490   .     S
C13    O44     1.269   .     A
C13    O46     1.275   .     A
C13    C16     1.456   .     S
C14    O45     1.287   .     A
C14    O47     1.292   .     A
C15    C605    1.489   1_554 S
C15    C613    1.422   1_554 S
C17    C21     1.484   .     S
C18    H36     1.084   .     S
C18    O48     1.221   .     D
C19    O49     1.221   .     D
C19    C398    1.501   1_545 S
C19    H427    1.085   1_545 S
C20    H40     1.085   .     S
C20    C600    1.489   .     S
C20    O635    1.220   .     S
C21    O51     1.221   .     D
C21    H42     1.085   .     S
C22    H32     1.082   .     S
C22    O52     1.221   .     D
C22    C608    1.493   1_554 S
C23    C25     1.425   .     A
C23    C607    1.493   .     S
C24    O53     1.221   .     D
C24    C597    1.490   1_554 S
C24    H618    1.082   1_554 S
C25    C26     1.416   .     A
C25    C612    1.427   .     S
C26    C30     1.410   .     A
C27    C610    1.427   1_554 S
C27    C613    1.419   1_554 S
C28    C29     1.401   .     A
C28    C612    1.419   .     S
C28    C600    1.422   .     S
C29    C30     1.385   .     A
C29    H39     1.082   .     S
C30    H35     1.081   .     S
H31    C72     1.086   .     S
H33    C609    1.082   .     S
H34    C136    1.088   1_455 S
H37    C214    1.085   .     S
H38    C204    1.086   .     S
O43    Zn65    1.939   .     S
O43    Zn63    1.939   .     S
O43    Zn64    1.933   .     S
O43    Zn62    1.956   .     S
O44    Zn63    1.930   .     S
O45    Zn65    1.936   .     S
O46    Zn64    1.933   .     S
O47    Zn62    1.928   .     S
O50    C605    1.220   1_554 S
O54    Zn62    1.930   .     S
O55    Zn65    1.931   .     S
O56    Zn63    1.928   .     S
O57    Zn64    1.935   .     S
O58    Zn65    1.928   .     S
O59    Zn62    1.923   .     S
O60    Zn63    1.938   .     S
O61    Zn64    1.935   .     S
C66    O123    1.271   .     A
C66    O121    1.271   .     A
C66    C72     1.437   .     S
C67    C81     1.386   .     A
C67    C92     1.399   .     A
C67    H106    1.083   .     S
C68    C83     1.490   .     S
C68    C80     1.420   .     A
C68    C81     1.410   .     A
C69    O122    1.280   .     A
C69    O124    1.277   .     A
C69    C71     1.454   .     S
C70    C79     1.496   .     S
C70    C82     1.423   .     A
C70    C91     1.419   .     A
C71    C137    1.334   .     S
C71    H164    1.088   .     S
C73    C76     1.462   .     S
C73    C269    1.343   .     S
C73    C279    1.501   .     S
C74    C75     1.436   .     S
C74    C463    1.343   1_545 S
C74    H493    1.086   1_545 S
C75    O125    1.274   .     A
C75    O119    1.274   .     A
C76    O120    1.280   .     A
C76    O126    1.268   .     A
C77    C82     1.415   .     A
C77    C88     1.412   .     A
C77    C674    1.490   .     S
C78    O109    1.269   .     A
C78    O111    1.275   .     A
C78    C81     1.456   .     S
C79    O110    1.287   .     A
C79    O112    1.292   .     A
C80    C670    1.489   1_554 S
C80    C678    1.422   1_554 S
C82    C86     1.484   .     S
C83    H101    1.084   .     S
C83    O113    1.221   .     D
C84    O114    1.221   .     D
C84    C463    1.501   1_545 S
C84    H492    1.085   1_545 S
C85    H105    1.085   .     S
C85    C665    1.489   .     S
C85    O700    1.220   .     S
C86    O116    1.221   .     D
C86    H107    1.085   .     S
C87    H97     1.082   .     S
C87    O117    1.221   .     D
C87    C673    1.493   1_554 S
C88    C90     1.425   .     A
C88    C672    1.493   .     S
C89    O118    1.221   .     D
C89    C662    1.490   1_554 S
C89    H683    1.082   1_554 S
C90    C91     1.416   .     A
C90    C677    1.427   .     S
C91    C95     1.410   .     A
C92    C675    1.427   1_554 S
C92    C678    1.419   1_554 S
C93    C94     1.401   .     A
C93    C677    1.419   .     S
C93    C665    1.422   .     S
C94    C95     1.385   .     A
C94    H104    1.082   .     S
C95    H100    1.081   .     S
H96    C137    1.086   .     S
H98    C674    1.082   .     S
H102   C279    1.085   .     S
H103   C269    1.086   .     S
O108   Zn130   1.939   .     S
O108   Zn128   1.939   .     S
O108   Zn129   1.933   .     S
O108   Zn127   1.956   .     S
O109   Zn128   1.930   .     S
O110   Zn130   1.936   .     S
O111   Zn129   1.933   .     S
O112   Zn127   1.928   .     S
O115   C670    1.220   1_554 S
O119   Zn127   1.930   .     S
O120   Zn130   1.931   .     S
O121   Zn128   1.928   .     S
O122   Zn129   1.935   .     S
O123   Zn130   1.928   .     S
O124   Zn127   1.923   .     S
O125   Zn128   1.938   .     S
O126   Zn129   1.935   .     S
C131   O188    1.271   .     A
C131   O186    1.271   .     A
C131   C137    1.437   .     S
C132   C146    1.386   .     A
C132   C157    1.399   .     A
C132   H171    1.083   .     S
C133   C148    1.490   .     S
C133   C145    1.420   .     A
C133   C146    1.410   .     A
C134   O187    1.280   .     A
C134   O189    1.277   .     A
C134   C136    1.454   .     S
C135   C144    1.496   .     S
C135   C147    1.423   .     A
C135   C156    1.419   .     A
C136   C7      1.334   1_655 S
C136   H34     1.088   1_655 S
C138   C141    1.462   .     S
C138   C334    1.343   .     S
C138   C344    1.501   .     S
C139   C140    1.436   .     S
C139   C528    1.343   1_545 S
C139   H558    1.086   1_545 S
C140   O190    1.274   .     A
C140   O184    1.274   .     A
C141   O185    1.280   .     A
C141   O191    1.268   .     A
C142   C147    1.415   .     A
C142   C153    1.412   .     A
C142   C739    1.490   .     S
C143   O174    1.269   .     A
C143   O176    1.275   .     A
C143   C146    1.456   .     S
C144   O175    1.287   .     A
C144   O177    1.292   .     A
C145   C735    1.489   1_554 S
C145   C743    1.422   1_554 S
C147   C151    1.484   .     S
C148   H166    1.084   .     S
C148   O178    1.221   .     D
C149   O179    1.221   .     D
C149   C528    1.501   1_545 S
C149   H557    1.085   1_545 S
C150   H170    1.085   .     S
C150   C730    1.489   .     S
C150   O765    1.220   .     S
C151   O181    1.221   .     D
C151   H172    1.085   .     S
C152   H162    1.082   .     S
C152   O182    1.221   .     D
C152   C738    1.493   1_554 S
C153   C155    1.425   .     A
C153   C737    1.493   .     S
C154   O183    1.221   .     D
C154   C727    1.490   1_554 S
C154   H748    1.082   1_554 S
C155   C156    1.416   .     A
C155   C742    1.427   .     S
C156   C160    1.410   .     A
C157   C740    1.427   1_554 S
C157   C743    1.419   1_554 S
C158   C159    1.401   .     A
C158   C742    1.419   .     S
C158   C730    1.422   .     S
C159   C160    1.385   .     A
C159   H169    1.082   .     S
C160   H165    1.081   .     S
H161   C7      1.086   1_655 S
H163   C739    1.082   .     S
H167   C344    1.085   .     S
H168   C334    1.086   .     S
O173   Zn195   1.939   .     S
O173   Zn193   1.939   .     S
O173   Zn194   1.933   .     S
O173   Zn192   1.956   .     S
O174   Zn193   1.930   .     S
O175   Zn195   1.936   .     S
O176   Zn194   1.933   .     S
O177   Zn192   1.928   .     S
O180   C735    1.220   1_554 S
O184   Zn192   1.930   .     S
O185   Zn195   1.931   .     S
O186   Zn193   1.928   .     S
O187   Zn194   1.935   .     S
O188   Zn195   1.928   .     S
O189   Zn192   1.923   .     S
O190   Zn193   1.938   .     S
O191   Zn194   1.935   .     S
C196   O253    1.271   .     A
C196   O251    1.271   .     A
C196   C202    1.437   .     S
C197   C211    1.386   .     A
C197   C222    1.399   .     A
C197   H236    1.083   .     S
C198   C213    1.490   .     S
C198   C210    1.420   .     A
C198   C211    1.410   .     A
C199   O252    1.280   .     A
C199   O254    1.277   .     A
C199   C201    1.454   .     S
C200   C209    1.496   .     S
C200   C212    1.423   .     A
C200   C221    1.419   .     A
C201   C267    1.334   .     S
C201   H294    1.088   .     S
C202   C331    1.334   1_455 S
C202   H356    1.086   1_455 S
C203   C206    1.462   .     S
C203   C399    1.343   .     S
C203   C409    1.501   .     S
C204   C205    1.436   .     S
C205   O255    1.274   .     A
C205   O249    1.274   .     A
C206   O250    1.280   .     A
C206   O256    1.268   .     A
C207   C212    1.415   .     A
C207   C218    1.412   .     A
C207   C804    1.490   .     S
C208   O239    1.269   .     A
C208   O241    1.275   .     A
C208   C211    1.456   .     S
C209   O240    1.287   .     A
C209   O242    1.292   .     A
C210   C800    1.489   1_554 S
C210   C808    1.422   1_554 S
C212   C216    1.484   .     S
C213   H231    1.084   .     S
C213   O243    1.221   .     D
C214   O244    1.221   .     D
C215   H235    1.085   .     S
C215   C795    1.489   .     S
C215   O830    1.220   .     S
C216   O246    1.221   .     D
C216   H237    1.085   .     S
C217   H227    1.082   .     S
C217   O247    1.221   .     D
C217   C803    1.493   1_554 S
C218   C220    1.425   .     A
C218   C802    1.493   .     S
C219   O248    1.221   .     D
C219   C792    1.490   1_554 S
C219   H813    1.082   1_554 S
C220   C221    1.416   .     A
C220   C807    1.427   .     S
C221   C225    1.410   .     A
C222   C805    1.427   1_554 S
C222   C808    1.419   1_554 S
C223   C224    1.401   .     A
C223   C807    1.419   .     S
C223   C795    1.422   .     S
C224   C225    1.385   .     A
C224   H234    1.082   .     S
C225   H230    1.081   .     S
H226   C267    1.086   .     S
H228   C804    1.082   .     S
H229   C331    1.088   1_455 S
H232   C409    1.085   .     S
H233   C399    1.086   .     S
O238   Zn260   1.939   .     S
O238   Zn258   1.939   .     S
O238   Zn259   1.933   .     S
O238   Zn257   1.956   .     S
O239   Zn258   1.930   .     S
O240   Zn260   1.936   .     S
O241   Zn259   1.933   .     S
O242   Zn257   1.928   .     S
O245   C800    1.220   1_554 S
O249   Zn257   1.930   .     S
O250   Zn260   1.931   .     S
O251   Zn258   1.928   .     S
O252   Zn259   1.935   .     S
O253   Zn260   1.928   .     S
O254   Zn257   1.923   .     S
O255   Zn258   1.938   .     S
O256   Zn259   1.935   .     S
C261   O318    1.271   .     A
C261   O316    1.271   .     A
C261   C267    1.437   .     S
C262   C276    1.386   .     A
C262   C287    1.399   .     A
C262   H301    1.083   .     S
C263   C278    1.490   .     S
C263   C275    1.420   .     A
C263   C276    1.410   .     A
C264   O317    1.280   .     A
C264   O319    1.277   .     A
C264   C266    1.454   .     S
C265   C274    1.496   .     S
C265   C277    1.423   .     A
C265   C286    1.419   .     A
C266   C332    1.334   .     S
C266   H359    1.088   .     S
C268   C271    1.462   .     S
C268   C464    1.343   .     S
C268   C474    1.501   .     S
C269   C270    1.436   .     S
C270   O320    1.274   .     A
C270   O314    1.274   .     A
C271   O315    1.280   .     A
C271   O321    1.268   .     A
C272   C277    1.415   .     A
C272   C283    1.412   .     A
C272   C869    1.490   .     S
C273   O304    1.269   .     A
C273   O306    1.275   .     A
C273   C276    1.456   .     S
C274   O305    1.287   .     A
C274   O307    1.292   .     A
C275   C865    1.489   1_554 S
C275   C873    1.422   1_554 S
C277   C281    1.484   .     S
C278   H296    1.084   .     S
C278   O308    1.221   .     D
C279   O309    1.221   .     D
C280   H300    1.085   .     S
C280   C860    1.489   .     S
C280   O895    1.220   .     S
C281   O311    1.221   .     D
C281   H302    1.085   .     S
C282   H292    1.082   .     S
C282   O312    1.221   .     D
C282   C868    1.493   1_554 S
C283   C285    1.425   .     A
C283   C867    1.493   .     S
C284   O313    1.221   .     D
C284   C857    1.490   1_554 S
C284   H878    1.082   1_554 S
C285   C286    1.416   .     A
C285   C872    1.427   .     S
C286   C290    1.410   .     A
C287   C870    1.427   1_554 S
C287   C873    1.419   1_554 S
C288   C289    1.401   .     A
C288   C872    1.419   .     S
C288   C860    1.422   .     S
C289   C290    1.385   .     A
C289   H299    1.082   .     S
C290   H295    1.081   .     S
H291   C332    1.086   .     S
H293   C869    1.082   .     S
H297   C474    1.085   .     S
H298   C464    1.086   .     S
O303   Zn325   1.939   .     S
O303   Zn323   1.939   .     S
O303   Zn324   1.933   .     S
O303   Zn322   1.956   .     S
O304   Zn323   1.930   .     S
O305   Zn325   1.936   .     S
O306   Zn324   1.933   .     S
O307   Zn322   1.928   .     S
O310   C865    1.220   1_554 S
O314   Zn322   1.930   .     S
O315   Zn325   1.931   .     S
O316   Zn323   1.928   .     S
O317   Zn324   1.935   .     S
O318   Zn325   1.928   .     S
O319   Zn322   1.923   .     S
O320   Zn323   1.938   .     S
O321   Zn324   1.935   .     S
C326   O383    1.271   .     A
C326   O381    1.271   .     A
C326   C332    1.437   .     S
C327   C341    1.386   .     A
C327   C352    1.399   .     A
C327   H366    1.083   .     S
C328   C343    1.490   .     S
C328   C340    1.420   .     A
C328   C341    1.410   .     A
C329   O382    1.280   .     A
C329   O384    1.277   .     A
C329   C331    1.454   .     S
C330   C339    1.496   .     S
C330   C342    1.423   .     A
C330   C351    1.419   .     A
C331   C202    1.334   1_655 S
C331   H229    1.088   1_655 S
C333   C336    1.462   .     S
C333   C529    1.343   .     S
C333   C539    1.501   .     S
C334   C335    1.436   .     S
C335   O385    1.274   .     A
C335   O379    1.274   .     A
C336   O380    1.280   .     A
C336   O386    1.268   .     A
C337   C342    1.415   .     A
C337   C348    1.412   .     A
C337   C934    1.490   .     S
C338   O369    1.269   .     A
C338   O371    1.275   .     A
C338   C341    1.456   .     S
C339   O370    1.287   .     A
C339   O372    1.292   .     A
C340   C930    1.489   1_554 S
C340   C938    1.422   1_554 S
C342   C346    1.484   .     S
C343   H361    1.084   .     S
C343   O373    1.221   .     D
C344   O374    1.221   .     D
C345   H365    1.085   .     S
C345   C925    1.489   .     S
C345   O960    1.220   .     S
C346   O376    1.221   .     D
C346   H367    1.085   .     S
C347   H357    1.082   .     S
C347   O377    1.221   .     D
C347   C933    1.493   1_554 S
C348   C350    1.425   .     A
C348   C932    1.493   .     S
C349   O378    1.221   .     D
C349   C922    1.490   1_554 S
C349   H943    1.082   1_554 S
C350   C351    1.416   .     A
C350   C937    1.427   .     S
C351   C355    1.410   .     A
C352   C935    1.427   1_554 S
C352   C938    1.419   1_554 S
C353   C354    1.401   .     A
C353   C937    1.419   .     S
C353   C925    1.422   .     S
C354   C355    1.385   .     A
C354   H364    1.082   .     S
C355   H360    1.081   .     S
H356   C202    1.086   1_655 S
H358   C934    1.082   .     S
H362   C539    1.085   .     S
H363   C529    1.086   .     S
O368   Zn390   1.939   .     S
O368   Zn388   1.939   .     S
O368   Zn389   1.933   .     S
O368   Zn387   1.956   .     S
O369   Zn388   1.930   .     S
O370   Zn390   1.936   .     S
O371   Zn389   1.933   .     S
O372   Zn387   1.928   .     S
O375   C930    1.220   1_554 S
O379   Zn387   1.930   .     S
O380   Zn390   1.931   .     S
O381   Zn388   1.928   .     S
O382   Zn389   1.935   .     S
O383   Zn390   1.928   .     S
O384   Zn387   1.923   .     S
O385   Zn388   1.938   .     S
O386   Zn389   1.935   .     S
C391   O448    1.271   .     A
C391   O446    1.271   .     A
C391   C397    1.437   .     S
C392   C406    1.386   .     A
C392   C417    1.399   .     A
C392   H431    1.083   .     S
C393   C408    1.490   .     S
C393   C405    1.420   .     A
C393   C406    1.410   .     A
C394   O447    1.280   .     A
C394   O449    1.277   .     A
C394   C396    1.454   .     S
C395   C404    1.496   .     S
C395   C407    1.423   .     A
C395   C416    1.419   .     A
C396   C462    1.334   .     S
C396   H489    1.088   .     S
C397   C526    1.334   1_455 S
C397   H551    1.086   1_455 S
C398   C401    1.462   .     S
C398   C9      1.343   1_565 S
C398   C19     1.501   1_565 S
C399   C400    1.436   .     S
C400   O450    1.274   .     A
C400   O444    1.274   .     A
C401   O445    1.280   .     A
C401   O451    1.268   .     A
C402   C407    1.415   .     A
C402   C413    1.412   .     A
C402   C999    1.490   .     S
C403   O434    1.269   .     A
C403   O436    1.275   .     A
C403   C406    1.456   .     S
C404   O435    1.287   .     A
C404   O437    1.292   .     A
C405   C995    1.489   1_554 S
C405   C1003   1.422   1_554 S
C407   C411    1.484   .     S
C408   H426    1.084   .     S
C408   O438    1.221   .     D
C409   O439    1.221   .     D
C410   H430    1.085   .     S
C410   C990    1.489   .     S
C410   O1025   1.220   .     S
C411   O441    1.221   .     D
C411   H432    1.085   .     S
C412   H422    1.082   .     S
C412   O442    1.221   .     D
C412   C998    1.493   1_554 S
C413   C415    1.425   .     A
C413   C997    1.493   .     S
C414   O443    1.221   .     D
C414   C987    1.490   1_554 S
C414   H1008   1.082   1_554 S
C415   C416    1.416   .     A
C415   C1002   1.427   .     S
C416   C420    1.410   .     A
C417   C1000   1.427   1_554 S
C417   C1003   1.419   1_554 S
C418   C419    1.401   .     A
C418   C1002   1.419   .     S
C418   C990    1.422   .     S
C419   C420    1.385   .     A
C419   H429    1.082   .     S
C420   H425    1.081   .     S
H421   C462    1.086   .     S
H423   C999    1.082   .     S
H424   C526    1.088   1_455 S
H427   C19     1.085   1_565 S
H428   C9      1.086   1_565 S
O433   Zn455   1.939   .     S
O433   Zn453   1.939   .     S
O433   Zn454   1.933   .     S
O433   Zn452   1.956   .     S
O434   Zn453   1.930   .     S
O435   Zn455   1.936   .     S
O436   Zn454   1.933   .     S
O437   Zn452   1.928   .     S
O440   C995    1.220   1_554 S
O444   Zn452   1.930   .     S
O445   Zn455   1.931   .     S
O446   Zn453   1.928   .     S
O447   Zn454   1.935   .     S
O448   Zn455   1.928   .     S
O449   Zn452   1.923   .     S
O450   Zn453   1.938   .     S
O451   Zn454   1.935   .     S
C456   O513    1.271   .     A
C456   O511    1.271   .     A
C456   C462    1.437   .     S
C457   C471    1.386   .     A
C457   C482    1.399   .     A
C457   H496    1.083   .     S
C458   C473    1.490   .     S
C458   C470    1.420   .     A
C458   C471    1.410   .     A
C459   O512    1.280   .     A
C459   O514    1.277   .     A
C459   C461    1.454   .     S
C460   C469    1.496   .     S
C460   C472    1.423   .     A
C460   C481    1.419   .     A
C461   C527    1.334   .     S
C461   H554    1.088   .     S
C463   C466    1.462   .     S
C463   C74     1.343   1_565 S
C463   C84     1.501   1_565 S
C464   C465    1.436   .     S
C465   O515    1.274   .     A
C465   O509    1.274   .     A
C466   O510    1.280   .     A
C466   O516    1.268   .     A
C467   C472    1.415   .     A
C467   C478    1.412   .     A
C467   C1064   1.490   .     S
C468   O499    1.269   .     A
C468   O501    1.275   .     A
C468   C471    1.456   .     S
C469   O500    1.287   .     A
C469   O502    1.292   .     A
C470   C1060   1.489   1_554 S
C470   C1068   1.422   1_554 S
C472   C476    1.484   .     S
C473   H491    1.084   .     S
C473   O503    1.221   .     D
C474   O504    1.221   .     D
C475   H495    1.085   .     S
C475   C1055   1.489   .     S
C475   O1090   1.220   .     S
C476   O506    1.221   .     D
C476   H497    1.085   .     S
C477   H487    1.082   .     S
C477   O507    1.221   .     D
C477   C1063   1.493   1_554 S
C478   C480    1.425   .     A
C478   C1062   1.493   .     S
C479   O508    1.221   .     D
C479   C1052   1.490   1_554 S
C479   H1073   1.082   1_554 S
C480   C481    1.416   .     A
C480   C1067   1.427   .     S
C481   C485    1.410   .     A
C482   C1065   1.427   1_554 S
C482   C1068   1.419   1_554 S
C483   C484    1.401   .     A
C483   C1067   1.419   .     S
C483   C1055   1.422   .     S
C484   C485    1.385   .     A
C484   H494    1.082   .     S
C485   H490    1.081   .     S
H486   C527    1.086   .     S
H488   C1064   1.082   .     S
H492   C84     1.085   1_565 S
H493   C74     1.086   1_565 S
O498   Zn520   1.939   .     S
O498   Zn518   1.939   .     S
O498   Zn519   1.933   .     S
O498   Zn517   1.956   .     S
O499   Zn518   1.930   .     S
O500   Zn520   1.936   .     S
O501   Zn519   1.933   .     S
O502   Zn517   1.928   .     S
O505   C1060   1.220   1_554 S
O509   Zn517   1.930   .     S
O510   Zn520   1.931   .     S
O511   Zn518   1.928   .     S
O512   Zn519   1.935   .     S
O513   Zn520   1.928   .     S
O514   Zn517   1.923   .     S
O515   Zn518   1.938   .     S
O516   Zn519   1.935   .     S
C521   O578    1.271   .     A
C521   O576    1.271   .     A
C521   C527    1.437   .     S
C522   C536    1.386   .     A
C522   C547    1.399   .     A
C522   H561    1.083   .     S
C523   C538    1.490   .     S
C523   C535    1.420   .     A
C523   C536    1.410   .     A
C524   O577    1.280   .     A
C524   O579    1.277   .     A
C524   C526    1.454   .     S
C525   C534    1.496   .     S
C525   C537    1.423   .     A
C525   C546    1.419   .     A
C526   C397    1.334   1_655 S
C526   H424    1.088   1_655 S
C528   C531    1.462   .     S
C528   C139    1.343   1_565 S
C528   C149    1.501   1_565 S
C529   C530    1.436   .     S
C530   O580    1.274   .     A
C530   O574    1.274   .     A
C531   O575    1.280   .     A
C531   O581    1.268   .     A
C532   C537    1.415   .     A
C532   C543    1.412   .     A
C532   C1129   1.490   .     S
C533   O564    1.269   .     A
C533   O566    1.275   .     A
C533   C536    1.456   .     S
C534   O565    1.287   .     A
C534   O567    1.292   .     A
C535   C1125   1.489   1_554 S
C535   C1133   1.422   1_554 S
C537   C541    1.484   .     S
C538   H556    1.084   .     S
C538   O568    1.221   .     D
C539   O569    1.221   .     D
C540   H560    1.085   .     S
C540   C1120   1.489   .     S
C540   O1155   1.220   .     S
C541   O571    1.221   .     D
C541   H562    1.085   .     S
C542   H552    1.082   .     S
C542   O572    1.221   .     D
C542   C1128   1.493   1_554 S
C543   C545    1.425   .     A
C543   C1127   1.493   .     S
C544   O573    1.221   .     D
C544   C1117   1.490   1_554 S
C544   H1138   1.082   1_554 S
C545   C546    1.416   .     A
C545   C1132   1.427   .     S
C546   C550    1.410   .     A
C547   C1130   1.427   1_554 S
C547   C1133   1.419   1_554 S
C548   C549    1.401   .     A
C548   C1132   1.419   .     S
C548   C1120   1.422   .     S
C549   C550    1.385   .     A
C549   H559    1.082   .     S
C550   H555    1.081   .     S
H551   C397    1.086   1_655 S
H553   C1129   1.082   .     S
H557   C149    1.085   1_565 S
H558   C139    1.086   1_565 S
O563   Zn585   1.939   .     S
O563   Zn583   1.939   .     S
O563   Zn584   1.933   .     S
O563   Zn582   1.956   .     S
O564   Zn583   1.930   .     S
O565   Zn585   1.936   .     S
O566   Zn584   1.933   .     S
O567   Zn582   1.928   .     S
O570   C1125   1.220   1_554 S
O574   Zn582   1.930   .     S
O575   Zn585   1.931   .     S
O576   Zn583   1.928   .     S
O577   Zn584   1.935   .     S
O578   Zn585   1.928   .     S
O579   Zn582   1.923   .     S
O580   Zn583   1.938   .     S
O581   Zn584   1.935   .     S
C586   O643    1.271   .     A
C586   O641    1.271   .     A
C586   C592    1.437   .     S
C587   C601    1.386   .     A
C587   C612    1.399   .     A
C587   H626    1.083   .     S
C588   C603    1.490   .     S
C588   C600    1.420   .     A
C588   C601    1.410   .     A
C589   O642    1.280   .     A
C589   O644    1.277   .     A
C589   C591    1.454   .     S
C590   C599    1.496   .     S
C590   C602    1.423   .     A
C590   C611    1.419   .     A
C591   C657    1.334   .     S
C591   H684    1.088   .     S
C592   C721    1.334   1_455 S
C592   H746    1.086   1_455 S
C593   C596    1.462   .     S
C593   C789    1.343   .     S
C593   C799    1.501   .     S
C594   C595    1.436   .     S
C594   C983    1.343   1_545 S
C594   H1013   1.086   1_545 S
C595   O645    1.274   .     A
C595   O639    1.274   .     A
C596   O640    1.280   .     A
C596   O646    1.268   .     A
C597   C602    1.415   .     A
C597   C608    1.412   .     A
C597   C24     1.490   1_556 S
C598   O629    1.269   .     A
C598   O631    1.275   .     A
C598   C601    1.456   .     S
C599   O630    1.287   .     A
C599   O632    1.292   .     A
C602   C606    1.484   .     S
C603   H621    1.084   .     S
C603   O633    1.221   .     D
C604   O634    1.221   .     D
C604   C983    1.501   1_545 S
C604   H1012   1.085   1_545 S
C605   H625    1.085   .     S
C605   C15     1.489   1_556 S
C605   O50     1.220   1_556 S
C606   O636    1.221   .     D
C606   H627    1.085   .     S
C607   H617    1.082   .     S
C607   O637    1.221   .     D
C608   C610    1.425   .     A
C608   C22     1.493   1_556 S
C609   O638    1.221   .     D
C610   C611    1.416   .     A
C610   C27     1.427   1_556 S
C611   C615    1.410   .     A
C613   C614    1.401   .     A
C613   C27     1.419   1_556 S
C613   C15     1.422   1_556 S
C614   C615    1.385   .     A
C614   H624    1.082   .     S
C615   H620    1.081   .     S
H616   C657    1.086   .     S
H618   C24     1.082   1_556 S
H619   C721    1.088   1_455 S
H622   C799    1.085   .     S
H623   C789    1.086   .     S
O628   Zn650   1.939   .     S
O628   Zn648   1.939   .     S
O628   Zn649   1.933   .     S
O628   Zn647   1.956   .     S
O629   Zn648   1.930   .     S
O630   Zn650   1.936   .     S
O631   Zn649   1.933   .     S
O632   Zn647   1.928   .     S
O639   Zn647   1.930   .     S
O640   Zn650   1.931   .     S
O641   Zn648   1.928   .     S
O642   Zn649   1.935   .     S
O643   Zn650   1.928   .     S
O644   Zn647   1.923   .     S
O645   Zn648   1.938   .     S
O646   Zn649   1.935   .     S
C651   O708    1.271   .     A
C651   O706    1.271   .     A
C651   C657    1.437   .     S
C652   C666    1.386   .     A
C652   C677    1.399   .     A
C652   H691    1.083   .     S
C653   C668    1.490   .     S
C653   C665    1.420   .     A
C653   C666    1.410   .     A
C654   O707    1.280   .     A
C654   O709    1.277   .     A
C654   C656    1.454   .     S
C655   C664    1.496   .     S
C655   C667    1.423   .     A
C655   C676    1.419   .     A
C656   C722    1.334   .     S
C656   H749    1.088   .     S
C658   C661    1.462   .     S
C658   C854    1.343   .     S
C658   C864    1.501   .     S
C659   C660    1.436   .     S
C659   C1048   1.343   1_545 S
C659   H1078   1.086   1_545 S
C660   O710    1.274   .     A
C660   O704    1.274   .     A
C661   O705    1.280   .     A
C661   O711    1.268   .     A
C662   C667    1.415   .     A
C662   C673    1.412   .     A
C662   C89     1.490   1_556 S
C663   O694    1.269   .     A
C663   O696    1.275   .     A
C663   C666    1.456   .     S
C664   O695    1.287   .     A
C664   O697    1.292   .     A
C667   C671    1.484   .     S
C668   H686    1.084   .     S
C668   O698    1.221   .     D
C669   O699    1.221   .     D
C669   C1048   1.501   1_545 S
C669   H1077   1.085   1_545 S
C670   H690    1.085   .     S
C670   C80     1.489   1_556 S
C670   O115    1.220   1_556 S
C671   O701    1.221   .     D
C671   H692    1.085   .     S
C672   H682    1.082   .     S
C672   O702    1.221   .     D
C673   C675    1.425   .     A
C673   C87     1.493   1_556 S
C674   O703    1.221   .     D
C675   C676    1.416   .     A
C675   C92     1.427   1_556 S
C676   C680    1.410   .     A
C678   C679    1.401   .     A
C678   C92     1.419   1_556 S
C678   C80     1.422   1_556 S
C679   C680    1.385   .     A
C679   H689    1.082   .     S
C680   H685    1.081   .     S
H681   C722    1.086   .     S
H683   C89     1.082   1_556 S
H687   C864    1.085   .     S
H688   C854    1.086   .     S
O693   Zn715   1.939   .     S
O693   Zn713   1.939   .     S
O693   Zn714   1.933   .     S
O693   Zn712   1.956   .     S
O694   Zn713   1.930   .     S
O695   Zn715   1.936   .     S
O696   Zn714   1.933   .     S
O697   Zn712   1.928   .     S
O704   Zn712   1.930   .     S
O705   Zn715   1.931   .     S
O706   Zn713   1.928   .     S
O707   Zn714   1.935   .     S
O708   Zn715   1.928   .     S
O709   Zn712   1.923   .     S
O710   Zn713   1.938   .     S
O711   Zn714   1.935   .     S
C716   O773    1.271   .     A
C716   O771    1.271   .     A
C716   C722    1.437   .     S
C717   C731    1.386   .     A
C717   C742    1.399   .     A
C717   H756    1.083   .     S
C718   C733    1.490   .     S
C718   C730    1.420   .     A
C718   C731    1.410   .     A
C719   O772    1.280   .     A
C719   O774    1.277   .     A
C719   C721    1.454   .     S
C720   C729    1.496   .     S
C720   C732    1.423   .     A
C720   C741    1.419   .     A
C721   C592    1.334   1_655 S
C721   H619    1.088   1_655 S
C723   C726    1.462   .     S
C723   C919    1.343   .     S
C723   C929    1.501   .     S
C724   C725    1.436   .     S
C724   C1113   1.343   1_545 S
C724   H1143   1.086   1_545 S
C725   O775    1.274   .     A
C725   O769    1.274   .     A
C726   O770    1.280   .     A
C726   O776    1.268   .     A
C727   C732    1.415   .     A
C727   C738    1.412   .     A
C727   C154    1.490   1_556 S
C728   O759    1.269   .     A
C728   O761    1.275   .     A
C728   C731    1.456   .     S
C729   O760    1.287   .     A
C729   O762    1.292   .     A
C732   C736    1.484   .     S
C733   H751    1.084   .     S
C733   O763    1.221   .     D
C734   O764    1.221   .     D
C734   C1113   1.501   1_545 S
C734   H1142   1.085   1_545 S
C735   H755    1.085   .     S
C735   C145    1.489   1_556 S
C735   O180    1.220   1_556 S
C736   O766    1.221   .     D
C736   H757    1.085   .     S
C737   H747    1.082   .     S
C737   O767    1.221   .     D
C738   C740    1.425   .     A
C738   C152    1.493   1_556 S
C739   O768    1.221   .     D
C740   C741    1.416   .     A
C740   C157    1.427   1_556 S
C741   C745    1.410   .     A
C743   C744    1.401   .     A
C743   C157    1.419   1_556 S
C743   C145    1.422   1_556 S
C744   C745    1.385   .     A
C744   H754    1.082   .     S
C745   H750    1.081   .     S
H746   C592    1.086   1_655 S
H748   C154    1.082   1_556 S
H752   C929    1.085   .     S
H753   C919    1.086   .     S
O758   Zn780   1.939   .     S
O758   Zn778   1.939   .     S
O758   Zn779   1.933   .     S
O758   Zn777   1.956   .     S
O759   Zn778   1.930   .     S
O760   Zn780   1.936   .     S
O761   Zn779   1.933   .     S
O762   Zn777   1.928   .     S
O769   Zn777   1.930   .     S
O770   Zn780   1.931   .     S
O771   Zn778   1.928   .     S
O772   Zn779   1.935   .     S
O773   Zn780   1.928   .     S
O774   Zn777   1.923   .     S
O775   Zn778   1.938   .     S
O776   Zn779   1.935   .     S
C781   O838    1.271   .     A
C781   O836    1.271   .     A
C781   C787    1.437   .     S
C782   C796    1.386   .     A
C782   C807    1.399   .     A
C782   H821    1.083   .     S
C783   C798    1.490   .     S
C783   C795    1.420   .     A
C783   C796    1.410   .     A
C784   O837    1.280   .     A
C784   O839    1.277   .     A
C784   C786    1.454   .     S
C785   C794    1.496   .     S
C785   C797    1.423   .     A
C785   C806    1.419   .     A
C786   C852    1.334   .     S
C786   H879    1.088   .     S
C787   C916    1.334   1_455 S
C787   H941    1.086   1_455 S
C788   C791    1.462   .     S
C788   C984    1.343   .     S
C788   C994    1.501   .     S
C789   C790    1.436   .     S
C790   O840    1.274   .     A
C790   O834    1.274   .     A
C791   O835    1.280   .     A
C791   O841    1.268   .     A
C792   C797    1.415   .     A
C792   C803    1.412   .     A
C792   C219    1.490   1_556 S
C793   O824    1.269   .     A
C793   O826    1.275   .     A
C793   C796    1.456   .     S
C794   O825    1.287   .     A
C794   O827    1.292   .     A
C797   C801    1.484   .     S
C798   H816    1.084   .     S
C798   O828    1.221   .     D
C799   O829    1.221   .     D
C800   H820    1.085   .     S
C800   C210    1.489   1_556 S
C800   O245    1.220   1_556 S
C801   O831    1.221   .     D
C801   H822    1.085   .     S
C802   H812    1.082   .     S
C802   O832    1.221   .     D
C803   C805    1.425   .     A
C803   C217    1.493   1_556 S
C804   O833    1.221   .     D
C805   C806    1.416   .     A
C805   C222    1.427   1_556 S
C806   C810    1.410   .     A
C808   C809    1.401   .     A
C808   C222    1.419   1_556 S
C808   C210    1.422   1_556 S
C809   C810    1.385   .     A
C809   H819    1.082   .     S
C810   H815    1.081   .     S
H811   C852    1.086   .     S
H813   C219    1.082   1_556 S
H814   C916    1.088   1_455 S
H817   C994    1.085   .     S
H818   C984    1.086   .     S
O823   Zn845   1.939   .     S
O823   Zn843   1.939   .     S
O823   Zn844   1.933   .     S
O823   Zn842   1.956   .     S
O824   Zn843   1.930   .     S
O825   Zn845   1.936   .     S
O826   Zn844   1.933   .     S
O827   Zn842   1.928   .     S
O834   Zn842   1.930   .     S
O835   Zn845   1.931   .     S
O836   Zn843   1.928   .     S
O837   Zn844   1.935   .     S
O838   Zn845   1.928   .     S
O839   Zn842   1.923   .     S
O840   Zn843   1.938   .     S
O841   Zn844   1.935   .     S
C846   O903    1.271   .     A
C846   O901    1.271   .     A
C846   C852    1.437   .     S
C847   C861    1.386   .     A
C847   C872    1.399   .     A
C847   H886    1.083   .     S
C848   C863    1.490   .     S
C848   C860    1.420   .     A
C848   C861    1.410   .     A
C849   O902    1.280   .     A
C849   O904    1.277   .     A
C849   C851    1.454   .     S
C850   C859    1.496   .     S
C850   C862    1.423   .     A
C850   C871    1.419   .     A
C851   C917    1.334   .     S
C851   H944    1.088   .     S
C853   C856    1.462   .     S
C853   C1049   1.343   .     S
C853   C1059   1.501   .     S
C854   C855    1.436   .     S
C855   O905    1.274   .     A
C855   O899    1.274   .     A
C856   O900    1.280   .     A
C856   O906    1.268   .     A
C857   C862    1.415   .     A
C857   C868    1.412   .     A
C857   C284    1.490   1_556 S
C858   O889    1.269   .     A
C858   O891    1.275   .     A
C858   C861    1.456   .     S
C859   O890    1.287   .     A
C859   O892    1.292   .     A
C862   C866    1.484   .     S
C863   H881    1.084   .     S
C863   O893    1.221   .     D
C864   O894    1.221   .     D
C865   H885    1.085   .     S
C865   C275    1.489   1_556 S
C865   O310    1.220   1_556 S
C866   O896    1.221   .     D
C866   H887    1.085   .     S
C867   H877    1.082   .     S
C867   O897    1.221   .     D
C868   C870    1.425   .     A
C868   C282    1.493   1_556 S
C869   O898    1.221   .     D
C870   C871    1.416   .     A
C870   C287    1.427   1_556 S
C871   C875    1.410   .     A
C873   C874    1.401   .     A
C873   C287    1.419   1_556 S
C873   C275    1.422   1_556 S
C874   C875    1.385   .     A
C874   H884    1.082   .     S
C875   H880    1.081   .     S
H876   C917    1.086   .     S
H878   C284    1.082   1_556 S
H882   C1059   1.085   .     S
H883   C1049   1.086   .     S
O888   Zn910   1.939   .     S
O888   Zn908   1.939   .     S
O888   Zn909   1.933   .     S
O888   Zn907   1.956   .     S
O889   Zn908   1.930   .     S
O890   Zn910   1.936   .     S
O891   Zn909   1.933   .     S
O892   Zn907   1.928   .     S
O899   Zn907   1.930   .     S
O900   Zn910   1.931   .     S
O901   Zn908   1.928   .     S
O902   Zn909   1.935   .     S
O903   Zn910   1.928   .     S
O904   Zn907   1.923   .     S
O905   Zn908   1.938   .     S
O906   Zn909   1.935   .     S
C911   O968    1.271   .     A
C911   O966    1.271   .     A
C911   C917    1.437   .     S
C912   C926    1.386   .     A
C912   C937    1.399   .     A
C912   H951    1.083   .     S
C913   C928    1.490   .     S
C913   C925    1.420   .     A
C913   C926    1.410   .     A
C914   O967    1.280   .     A
C914   O969    1.277   .     A
C914   C916    1.454   .     S
C915   C924    1.496   .     S
C915   C927    1.423   .     A
C915   C936    1.419   .     A
C916   C787    1.334   1_655 S
C916   H814    1.088   1_655 S
C918   C921    1.462   .     S
C918   C1114   1.343   .     S
C918   C1124   1.501   .     S
C919   C920    1.436   .     S
C920   O970    1.274   .     A
C920   O964    1.274   .     A
C921   O965    1.280   .     A
C921   O971    1.268   .     A
C922   C927    1.415   .     A
C922   C933    1.412   .     A
C922   C349    1.490   1_556 S
C923   O954    1.269   .     A
C923   O956    1.275   .     A
C923   C926    1.456   .     S
C924   O955    1.287   .     A
C924   O957    1.292   .     A
C927   C931    1.484   .     S
C928   H946    1.084   .     S
C928   O958    1.221   .     D
C929   O959    1.221   .     D
C930   H950    1.085   .     S
C930   C340    1.489   1_556 S
C930   O375    1.220   1_556 S
C931   O961    1.221   .     D
C931   H952    1.085   .     S
C932   H942    1.082   .     S
C932   O962    1.221   .     D
C933   C935    1.425   .     A
C933   C347    1.493   1_556 S
C934   O963    1.221   .     D
C935   C936    1.416   .     A
C935   C352    1.427   1_556 S
C936   C940    1.410   .     A
C938   C939    1.401   .     A
C938   C352    1.419   1_556 S
C938   C340    1.422   1_556 S
C939   C940    1.385   .     A
C939   H949    1.082   .     S
C940   H945    1.081   .     S
H941   C787    1.086   1_655 S
H943   C349    1.082   1_556 S
H947   C1124   1.085   .     S
H948   C1114   1.086   .     S
O953   Zn975   1.939   .     S
O953   Zn973   1.939   .     S
O953   Zn974   1.933   .     S
O953   Zn972   1.956   .     S
O954   Zn973   1.930   .     S
O955   Zn975   1.936   .     S
O956   Zn974   1.933   .     S
O957   Zn972   1.928   .     S
O964   Zn972   1.930   .     S
O965   Zn975   1.931   .     S
O966   Zn973   1.928   .     S
O967   Zn974   1.935   .     S
O968   Zn975   1.928   .     S
O969   Zn972   1.923   .     S
O970   Zn973   1.938   .     S
O971   Zn974   1.935   .     S
C976   O1033   1.271   .     A
C976   O1031   1.271   .     A
C976   C982    1.437   .     S
C977   C991    1.386   .     A
C977   C1002   1.399   .     A
C977   H1016   1.083   .     S
C978   C993    1.490   .     S
C978   C990    1.420   .     A
C978   C991    1.410   .     A
C979   O1032   1.280   .     A
C979   O1034   1.277   .     A
C979   C981    1.454   .     S
C980   C989    1.496   .     S
C980   C992    1.423   .     A
C980   C1001   1.419   .     A
C981   C1047   1.334   .     S
C981   H1074   1.088   .     S
C982   C1111   1.334   1_455 S
C982   H1136   1.086   1_455 S
C983   C986    1.462   .     S
C983   C594    1.343   1_565 S
C983   C604    1.501   1_565 S
C984   C985    1.436   .     S
C985   O1035   1.274   .     A
C985   O1029   1.274   .     A
C986   O1030   1.280   .     A
C986   O1036   1.268   .     A
C987   C992    1.415   .     A
C987   C998    1.412   .     A
C987   C414    1.490   1_556 S
C988   O1019   1.269   .     A
C988   O1021   1.275   .     A
C988   C991    1.456   .     S
C989   O1020   1.287   .     A
C989   O1022   1.292   .     A
C992   C996    1.484   .     S
C993   H1011   1.084   .     S
C993   O1023   1.221   .     D
C994   O1024   1.221   .     D
C995   H1015   1.085   .     S
C995   C405    1.489   1_556 S
C995   O440    1.220   1_556 S
C996   O1026   1.221   .     D
C996   H1017   1.085   .     S
C997   H1007   1.082   .     S
C997   O1027   1.221   .     D
C998   C1000   1.425   .     A
C998   C412    1.493   1_556 S
C999   O1028   1.221   .     D
C1000  C1001   1.416   .     A
C1000  C417    1.427   1_556 S
C1001  C1005   1.410   .     A
C1003  C1004   1.401   .     A
C1003  C417    1.419   1_556 S
C1003  C405    1.422   1_556 S
C1004  C1005   1.385   .     A
C1004  H1014   1.082   .     S
C1005  H1010   1.081   .     S
H1006  C1047   1.086   .     S
H1008  C414    1.082   1_556 S
H1009  C1111   1.088   1_455 S
H1012  C604    1.085   1_565 S
H1013  C594    1.086   1_565 S
O1018  Zn1040  1.939   .     S
O1018  Zn1038  1.939   .     S
O1018  Zn1039  1.933   .     S
O1018  Zn1037  1.956   .     S
O1019  Zn1038  1.930   .     S
O1020  Zn1040  1.936   .     S
O1021  Zn1039  1.933   .     S
O1022  Zn1037  1.928   .     S
O1029  Zn1037  1.930   .     S
O1030  Zn1040  1.931   .     S
O1031  Zn1038  1.928   .     S
O1032  Zn1039  1.935   .     S
O1033  Zn1040  1.928   .     S
O1034  Zn1037  1.923   .     S
O1035  Zn1038  1.938   .     S
O1036  Zn1039  1.935   .     S
C1041  O1098   1.271   .     A
C1041  O1096   1.271   .     A
C1041  C1047   1.437   .     S
C1042  C1056   1.386   .     A
C1042  C1067   1.399   .     A
C1042  H1081   1.083   .     S
C1043  C1058   1.490   .     S
C1043  C1055   1.420   .     A
C1043  C1056   1.410   .     A
C1044  O1097   1.280   .     A
C1044  O1099   1.277   .     A
C1044  C1046   1.454   .     S
C1045  C1054   1.496   .     S
C1045  C1057   1.423   .     A
C1045  C1066   1.419   .     A
C1046  C1112   1.334   .     S
C1046  H1139   1.088   .     S
C1048  C1051   1.462   .     S
C1048  C659    1.343   1_565 S
C1048  C669    1.501   1_565 S
C1049  C1050   1.436   .     S
C1050  O1100   1.274   .     A
C1050  O1094   1.274   .     A
C1051  O1095   1.280   .     A
C1051  O1101   1.268   .     A
C1052  C1057   1.415   .     A
C1052  C1063   1.412   .     A
C1052  C479    1.490   1_556 S
C1053  O1084   1.269   .     A
C1053  O1086   1.275   .     A
C1053  C1056   1.456   .     S
C1054  O1085   1.287   .     A
C1054  O1087   1.292   .     A
C1057  C1061   1.484   .     S
C1058  H1076   1.084   .     S
C1058  O1088   1.221   .     D
C1059  O1089   1.221   .     D
C1060  H1080   1.085   .     S
C1060  C470    1.489   1_556 S
C1060  O505    1.220   1_556 S
C1061  O1091   1.221   .     D
C1061  H1082   1.085   .     S
C1062  H1072   1.082   .     S
C1062  O1092   1.221   .     D
C1063  C1065   1.425   .     A
C1063  C477    1.493   1_556 S
C1064  O1093   1.221   .     D
C1065  C1066   1.416   .     A
C1065  C482    1.427   1_556 S
C1066  C1070   1.410   .     A
C1068  C1069   1.401   .     A
C1068  C482    1.419   1_556 S
C1068  C470    1.422   1_556 S
C1069  C1070   1.385   .     A
C1069  H1079   1.082   .     S
C1070  H1075   1.081   .     S
H1071  C1112   1.086   .     S
H1073  C479    1.082   1_556 S
H1077  C669    1.085   1_565 S
H1078  C659    1.086   1_565 S
O1083  Zn1105  1.939   .     S
O1083  Zn1103  1.939   .     S
O1083  Zn1104  1.933   .     S
O1083  Zn1102  1.956   .     S
O1084  Zn1103  1.930   .     S
O1085  Zn1105  1.936   .     S
O1086  Zn1104  1.933   .     S
O1087  Zn1102  1.928   .     S
O1094  Zn1102  1.930   .     S
O1095  Zn1105  1.931   .     S
O1096  Zn1103  1.928   .     S
O1097  Zn1104  1.935   .     S
O1098  Zn1105  1.928   .     S
O1099  Zn1102  1.923   .     S
O1100  Zn1103  1.938   .     S
O1101  Zn1104  1.935   .     S
C1106  O1163   1.271   .     A
C1106  O1161   1.271   .     A
C1106  C1112   1.437   .     S
C1107  C1121   1.386   .     A
C1107  C1132   1.399   .     A
C1107  H1146   1.083   .     S
C1108  C1123   1.490   .     S
C1108  C1120   1.420   .     A
C1108  C1121   1.410   .     A
C1109  O1162   1.280   .     A
C1109  O1164   1.277   .     A
C1109  C1111   1.454   .     S
C1110  C1119   1.496   .     S
C1110  C1122   1.423   .     A
C1110  C1131   1.419   .     A
C1111  C982    1.334   1_655 S
C1111  H1009   1.088   1_655 S
C1113  C1116   1.462   .     S
C1113  C724    1.343   1_565 S
C1113  C734    1.501   1_565 S
C1114  C1115   1.436   .     S
C1115  O1165   1.274   .     A
C1115  O1159   1.274   .     A
C1116  O1160   1.280   .     A
C1116  O1166   1.268   .     A
C1117  C1122   1.415   .     A
C1117  C1128   1.412   .     A
C1117  C544    1.490   1_556 S
C1118  O1149   1.269   .     A
C1118  O1151   1.275   .     A
C1118  C1121   1.456   .     S
C1119  O1150   1.287   .     A
C1119  O1152   1.292   .     A
C1122  C1126   1.484   .     S
C1123  H1141   1.084   .     S
C1123  O1153   1.221   .     D
C1124  O1154   1.221   .     D
C1125  H1145   1.085   .     S
C1125  C535    1.489   1_556 S
C1125  O570    1.220   1_556 S
C1126  O1156   1.221   .     D
C1126  H1147   1.085   .     S
C1127  H1137   1.082   .     S
C1127  O1157   1.221   .     D
C1128  C1130   1.425   .     A
C1128  C542    1.493   1_556 S
C1129  O1158   1.221   .     D
C1130  C1131   1.416   .     A
C1130  C547    1.427   1_556 S
C1131  C1135   1.410   .     A
C1133  C1134   1.401   .     A
C1133  C547    1.419   1_556 S
C1133  C535    1.422   1_556 S
C1134  C1135   1.385   .     A
C1134  H1144   1.082   .     S
C1135  H1140   1.081   .     S
H1136  C982    1.086   1_655 S
H1138  C544    1.082   1_556 S
H1142  C734    1.085   1_565 S
H1143  C724    1.086   1_565 S
O1148  Zn1170  1.939   .     S
O1148  Zn1168  1.939   .     S
O1148  Zn1169  1.933   .     S
O1148  Zn1167  1.956   .     S
O1149  Zn1168  1.930   .     S
O1150  Zn1170  1.936   .     S
O1151  Zn1169  1.933   .     S
O1152  Zn1167  1.928   .     S
O1159  Zn1167  1.930   .     S
O1160  Zn1170  1.931   .     S
O1161  Zn1168  1.928   .     S
O1162  Zn1169  1.935   .     S
O1163  Zn1170  1.928   .     S
O1164  Zn1167  1.923   .     S
O1165  Zn1168  1.938   .     S
O1166  Zn1169  1.935   .     S
