data_str_m1_o10_o18_pcu_sym.255
_audit_creation_date              2020-01-03
_audit_creation_method            'Materials Studio'
_symmetry_space_group_name_H-M    'P1'
_symmetry_Int_Tables_number       1
_symmetry_cell_setting            triclinic
loop_
_symmetry_equiv_pos_as_xyz
  x,y,z
_cell_length_a                    32.5540
_cell_length_b                    32.5707
_cell_length_c                    35.6390
_cell_angle_alpha                 98.2023
_cell_angle_beta                  73.1017
_cell_angle_gamma                 98.7425
loop_
_atom_site_label
_atom_site_type_symbol
_atom_site_fract_x
_atom_site_fract_y
_atom_site_fract_z
_atom_site_U_iso_or_equiv
_atom_site_adp_type
_atom_site_occupancy
C1     C     0.05249   0.15988   0.25868   0.00000  Uiso   1.00
C2     C     0.20249   0.13592   0.45842   0.00000  Uiso   1.00
C3     C     0.21702   0.11056   0.47878   0.00000  Uiso   1.00
C4     C     0.28107   0.17359   0.24120   0.00000  Uiso   1.00
C5     C     0.21053   0.11873   0.01960   0.00000  Uiso   1.00
C6     C     0.19203   0.15548   0.03947   0.00000  Uiso   1.00
C7     C     0.22249   0.09109   0.04096   0.00000  Uiso   1.00
C8     C     0.21534   0.09975   0.08195   0.00000  Uiso   1.00
C9     C     0.18569   0.16326   0.08051   0.00000  Uiso   1.00
C10    C     0.32705   0.17635   0.23767   0.00000  Uiso   1.00
C11    C     0.00712   0.15736   0.26202   0.00000  Uiso   1.00
C12    C     0.14196   0.24673   0.41091   0.00000  Uiso   1.00
C13    C     0.18136   0.32207   0.23736   0.00000  Uiso   1.00
C14    C     0.15199   0.01207   0.26173   0.00000  Uiso   1.00
C15    C     0.15553   0.05618   0.25921   0.00000  Uiso   1.00
C16    C     0.17694   0.27766   0.24122   0.00000  Uiso   1.00
C17    C     0.18822   0.14514   0.14399   0.00000  Uiso   1.00
C18    C     0.14631   0.18858   0.35609   0.00000  Uiso   1.00
C19    C     0.14499   0.20421   0.39747   0.00000  Uiso   1.00
C20    C     0.19718   0.13597   0.10133   0.00000  Uiso   1.00
C21    C     0.14419   0.26215   0.44921   0.00000  Uiso   1.00
C22    C     0.15119   0.17727   0.42214   0.00000  Uiso   1.00
C23    C     0.16201   0.19401   0.45764   0.00000  Uiso   1.00
C24    C     0.15404   0.23579   0.47339   0.00000  Uiso   1.00
C25    C     0.18018   0.17010   0.47796   0.00000  Uiso   1.00
C26    C     0.17939   0.18263   0.01780   0.00000  Uiso   1.00
C27    C     0.16752   0.22245   0.03421   0.00000  Uiso   1.00
C28    C     0.15655   0.24934   0.01243   0.00000  Uiso   1.00
H29    H     0.23310   0.08431   0.46204   0.00000  Uiso   1.00
H30    H     0.12491   0.33204   0.28419   0.00000  Uiso   1.00
H31    H     0.16985   0.18931   0.09772   0.00000  Uiso   1.00
H32    H     0.25957   0.06917   0.09295   0.00000  Uiso   1.00
H33    H     0.20950   0.04247   0.10000   0.00000  Uiso   1.00
H34    H     0.16619   0.32130   0.46807   0.00000  Uiso   1.00
H35    H     0.11103   0.30775   0.48534   0.00000  Uiso   1.00
H36    H     0.16252   0.29860   0.38202   0.00000  Uiso   1.00
H37    H     0.10799   0.28792   0.39860   0.00000  Uiso   1.00
H38    H     0.16362   0.11911   0.39388   0.00000  Uiso   1.00
H39    H     0.12806   0.11848   0.44002   0.00000  Uiso   1.00
H40    H     0.12134   0.28656   0.05666   0.00000  Uiso   1.00
H41    H     0.16907   0.23507   0.06347   0.00000  Uiso   1.00
H42    H     0.21069   0.12934   0.42681   0.00000  Uiso   1.00
H43    H     0.17410   0.30516   0.03994   0.00000  Uiso   1.00
H44    H     0.22010   0.03524   0.00764   0.00000  Uiso   1.00
H45    H     0.27037   0.06225   0.00093   0.00000  Uiso   1.00
H46    H     0.01677   0.19389   0.21517   0.00000  Uiso   1.00
H47    H     0.31806   0.13968   0.28473   0.00000  Uiso   1.00
H48    H     0.23556   0.02959   0.22098   0.00000  Uiso   1.00
H49    H     0.20514   0.01982   0.18854   0.00000  Uiso   1.00
N50    N     0.14709   0.29005   0.03127   0.00000  Uiso   1.00
N51    N     0.24137   0.05385   0.02186   0.00000  Uiso   1.00
N52    N     0.21720   0.00624   0.20743   0.00000  Uiso   1.00
N53    N     0.22654   0.07188   0.10418   0.00000  Uiso   1.00
N54    N     0.13842   0.30534   0.46134   0.00000  Uiso   1.00
N55    N     0.13676   0.27469   0.38532   0.00000  Uiso   1.00
N56    N     0.13829   0.13329   0.41416   0.00000  Uiso   1.00
O57    O     0.16667   0.16667   0.25000   0.00000  Uiso   1.00
O58    O     0.15693   0.12393   0.16625   0.00000  Uiso   1.00
O59    O     0.12687   0.20646   0.33749   0.00000  Uiso   1.00
O60    O     0.21088   0.17493   0.15877   0.00000  Uiso   1.00
O61    O     0.17198   0.16135   0.33749   0.00000  Uiso   1.00
O62    O     0.17849   0.08101   0.27821   0.00000  Uiso   1.00
O63    O     0.14581   0.26136   0.26767   0.00000  Uiso   1.00
O64    O     0.07452   0.13251   0.23607   0.00000  Uiso   1.00
O65    O     0.26785   0.19179   0.21806   0.00000  Uiso   1.00
O66    O     0.06990   0.18960   0.27820   0.00000  Uiso   1.00
O67    O     0.25440   0.15277   0.26768   0.00000  Uiso   1.00
O68    O     0.13800   0.06903   0.23607   0.00000  Uiso   1.00
O69    O     0.20437   0.25527   0.21806   0.00000  Uiso   1.00
Zn70   Zn    0.19244   0.14090   0.28278   0.00000  Uiso   1.00
Zn71   Zn    0.13459   0.12378   0.22258   0.00000  Uiso   1.00
Zn72   Zn    0.21166   0.19664   0.21188   0.00000  Uiso   1.00
Zn73   Zn    0.12798   0.20535   0.28277   0.00000  Uiso   1.00
C74    C     0.38583   0.15988   0.25868   0.00000  Uiso   1.00
C75    C     0.53582   0.13592   0.45842   0.00000  Uiso   1.00
C76    C     0.55035   0.11056   0.47878   0.00000  Uiso   1.00
C77    C     0.61440   0.17359   0.24120   0.00000  Uiso   1.00
C78    C     0.54386   0.11873   0.01960   0.00000  Uiso   1.00
C79    C     0.52537   0.15548   0.03947   0.00000  Uiso   1.00
C80    C     0.55582   0.09109   0.04096   0.00000  Uiso   1.00
C81    C     0.54867   0.09975   0.08195   0.00000  Uiso   1.00
C82    C     0.51903   0.16326   0.08051   0.00000  Uiso   1.00
C83    C     0.66038   0.17635   0.23767   0.00000  Uiso   1.00
C84    C     0.34045   0.15736   0.26202   0.00000  Uiso   1.00
C85    C     0.47529   0.24673   0.41091   0.00000  Uiso   1.00
C86    C     0.51470   0.32207   0.23736   0.00000  Uiso   1.00
C87    C     0.48533   0.01207   0.26173   0.00000  Uiso   1.00
C88    C     0.48886   0.05618   0.25921   0.00000  Uiso   1.00
C89    C     0.51028   0.27766   0.24122   0.00000  Uiso   1.00
C90    C     0.52155   0.14514   0.14399   0.00000  Uiso   1.00
C91    C     0.47964   0.18858   0.35609   0.00000  Uiso   1.00
C92    C     0.47833   0.20421   0.39747   0.00000  Uiso   1.00
C93    C     0.53052   0.13597   0.10133   0.00000  Uiso   1.00
C94    C     0.47752   0.26215   0.44921   0.00000  Uiso   1.00
C95    C     0.48452   0.17727   0.42214   0.00000  Uiso   1.00
C96    C     0.49534   0.19401   0.45764   0.00000  Uiso   1.00
C97    C     0.48737   0.23579   0.47339   0.00000  Uiso   1.00
C98    C     0.51352   0.17010   0.47796   0.00000  Uiso   1.00
C99    C     0.51272   0.18263   0.01780   0.00000  Uiso   1.00
C100   C     0.50085   0.22245   0.03421   0.00000  Uiso   1.00
C101   C     0.48988   0.24934   0.01243   0.00000  Uiso   1.00
H102   H     0.56643   0.08431   0.46204   0.00000  Uiso   1.00
H103   H     0.45824   0.33204   0.28419   0.00000  Uiso   1.00
H104   H     0.50318   0.18931   0.09772   0.00000  Uiso   1.00
H105   H     0.59290   0.06917   0.09295   0.00000  Uiso   1.00
H106   H     0.54283   0.04247   0.10000   0.00000  Uiso   1.00
H107   H     0.49952   0.32130   0.46807   0.00000  Uiso   1.00
H108   H     0.44437   0.30775   0.48534   0.00000  Uiso   1.00
H109   H     0.49585   0.29860   0.38202   0.00000  Uiso   1.00
H110   H     0.44133   0.28792   0.39860   0.00000  Uiso   1.00
H111   H     0.49695   0.11911   0.39388   0.00000  Uiso   1.00
H112   H     0.46139   0.11848   0.44002   0.00000  Uiso   1.00
H113   H     0.45467   0.28656   0.05666   0.00000  Uiso   1.00
H114   H     0.50241   0.23507   0.06347   0.00000  Uiso   1.00
H115   H     0.54402   0.12934   0.42681   0.00000  Uiso   1.00
H116   H     0.50743   0.30516   0.03994   0.00000  Uiso   1.00
H117   H     0.55344   0.03524   0.00764   0.00000  Uiso   1.00
H118   H     0.60370   0.06225   0.00093   0.00000  Uiso   1.00
H119   H     0.35010   0.19389   0.21517   0.00000  Uiso   1.00
H120   H     0.65140   0.13968   0.28473   0.00000  Uiso   1.00
H121   H     0.56889   0.02959   0.22098   0.00000  Uiso   1.00
H122   H     0.53848   0.01982   0.18854   0.00000  Uiso   1.00
N123   N     0.48042   0.29005   0.03127   0.00000  Uiso   1.00
N124   N     0.57471   0.05385   0.02186   0.00000  Uiso   1.00
N125   N     0.55053   0.00624   0.20743   0.00000  Uiso   1.00
N126   N     0.55987   0.07188   0.10418   0.00000  Uiso   1.00
N127   N     0.47176   0.30534   0.46134   0.00000  Uiso   1.00
N128   N     0.47009   0.27469   0.38532   0.00000  Uiso   1.00
N129   N     0.47163   0.13329   0.41416   0.00000  Uiso   1.00
O130   O     0.50000   0.16667   0.25000   0.00000  Uiso   1.00
O131   O     0.49027   0.12393   0.16625   0.00000  Uiso   1.00
O132   O     0.46020   0.20646   0.33749   0.00000  Uiso   1.00
O133   O     0.54421   0.17493   0.15877   0.00000  Uiso   1.00
O134   O     0.50532   0.16135   0.33749   0.00000  Uiso   1.00
O135   O     0.51182   0.08101   0.27821   0.00000  Uiso   1.00
O136   O     0.47914   0.26136   0.26767   0.00000  Uiso   1.00
O137   O     0.40785   0.13251   0.23607   0.00000  Uiso   1.00
O138   O     0.60119   0.19179   0.21806   0.00000  Uiso   1.00
O139   O     0.40323   0.18960   0.27820   0.00000  Uiso   1.00
O140   O     0.58773   0.15277   0.26768   0.00000  Uiso   1.00
O141   O     0.47133   0.06903   0.23607   0.00000  Uiso   1.00
O142   O     0.53771   0.25527   0.21806   0.00000  Uiso   1.00
Zn143  Zn    0.52577   0.14090   0.28278   0.00000  Uiso   1.00
Zn144  Zn    0.46792   0.12378   0.22258   0.00000  Uiso   1.00
Zn145  Zn    0.54500   0.19664   0.21188   0.00000  Uiso   1.00
Zn146  Zn    0.46131   0.20535   0.28277   0.00000  Uiso   1.00
C147   C     0.71916   0.15988   0.25868   0.00000  Uiso   1.00
C148   C     0.86916   0.13592   0.45842   0.00000  Uiso   1.00
C149   C     0.88368   0.11056   0.47878   0.00000  Uiso   1.00
C150   C     0.94774   0.17359   0.24120   0.00000  Uiso   1.00
C151   C     0.87720   0.11873   0.01960   0.00000  Uiso   1.00
C152   C     0.85870   0.15548   0.03947   0.00000  Uiso   1.00
C153   C     0.88915   0.09109   0.04096   0.00000  Uiso   1.00
C154   C     0.88201   0.09975   0.08195   0.00000  Uiso   1.00
C155   C     0.85236   0.16326   0.08051   0.00000  Uiso   1.00
C156   C     0.99372   0.17635   0.23767   0.00000  Uiso   1.00
C157   C     0.67378   0.15736   0.26202   0.00000  Uiso   1.00
C158   C     0.80863   0.24673   0.41091   0.00000  Uiso   1.00
C159   C     0.84803   0.32207   0.23736   0.00000  Uiso   1.00
C160   C     0.81866   0.01207   0.26173   0.00000  Uiso   1.00
C161   C     0.82220   0.05618   0.25921   0.00000  Uiso   1.00
C162   C     0.84361   0.27766   0.24122   0.00000  Uiso   1.00
C163   C     0.85488   0.14514   0.14399   0.00000  Uiso   1.00
C164   C     0.81298   0.18858   0.35609   0.00000  Uiso   1.00
C165   C     0.81166   0.20421   0.39747   0.00000  Uiso   1.00
C166   C     0.86385   0.13597   0.10133   0.00000  Uiso   1.00
C167   C     0.81086   0.26215   0.44921   0.00000  Uiso   1.00
C168   C     0.81786   0.17727   0.42214   0.00000  Uiso   1.00
C169   C     0.82868   0.19401   0.45764   0.00000  Uiso   1.00
C170   C     0.82070   0.23579   0.47339   0.00000  Uiso   1.00
C171   C     0.84685   0.17010   0.47796   0.00000  Uiso   1.00
C172   C     0.84605   0.18263   0.01780   0.00000  Uiso   1.00
C173   C     0.83419   0.22245   0.03421   0.00000  Uiso   1.00
C174   C     0.82322   0.24934   0.01243   0.00000  Uiso   1.00
H175   H     0.89976   0.08431   0.46204   0.00000  Uiso   1.00
H176   H     0.79158   0.33204   0.28419   0.00000  Uiso   1.00
H177   H     0.83651   0.18931   0.09772   0.00000  Uiso   1.00
H178   H     0.92624   0.06917   0.09295   0.00000  Uiso   1.00
H179   H     0.87616   0.04247   0.10000   0.00000  Uiso   1.00
H180   H     0.83286   0.32130   0.46807   0.00000  Uiso   1.00
H181   H     0.77770   0.30775   0.48534   0.00000  Uiso   1.00
H182   H     0.82918   0.29860   0.38202   0.00000  Uiso   1.00
H183   H     0.77466   0.28792   0.39860   0.00000  Uiso   1.00
H184   H     0.83029   0.11911   0.39388   0.00000  Uiso   1.00
H185   H     0.79473   0.11848   0.44002   0.00000  Uiso   1.00
H186   H     0.78800   0.28656   0.05666   0.00000  Uiso   1.00
H187   H     0.83574   0.23507   0.06347   0.00000  Uiso   1.00
H188   H     0.87736   0.12934   0.42681   0.00000  Uiso   1.00
H189   H     0.84077   0.30516   0.03994   0.00000  Uiso   1.00
H190   H     0.88677   0.03524   0.00764   0.00000  Uiso   1.00
H191   H     0.93704   0.06225   0.00093   0.00000  Uiso   1.00
H192   H     0.68343   0.19389   0.21517   0.00000  Uiso   1.00
H193   H     0.98473   0.13968   0.28473   0.00000  Uiso   1.00
H194   H     0.90222   0.02959   0.22098   0.00000  Uiso   1.00
H195   H     0.87181   0.01982   0.18854   0.00000  Uiso   1.00
N196   N     0.81376   0.29005   0.03127   0.00000  Uiso   1.00
N197   N     0.90804   0.05385   0.02186   0.00000  Uiso   1.00
N198   N     0.88387   0.00624   0.20743   0.00000  Uiso   1.00
N199   N     0.89320   0.07188   0.10418   0.00000  Uiso   1.00
N200   N     0.80509   0.30534   0.46134   0.00000  Uiso   1.00
N201   N     0.80343   0.27469   0.38532   0.00000  Uiso   1.00
N202   N     0.80496   0.13329   0.41416   0.00000  Uiso   1.00
O203   O     0.83333   0.16667   0.25000   0.00000  Uiso   1.00
O204   O     0.82360   0.12393   0.16625   0.00000  Uiso   1.00
O205   O     0.79354   0.20646   0.33749   0.00000  Uiso   1.00
O206   O     0.87755   0.17493   0.15877   0.00000  Uiso   1.00
O207   O     0.83865   0.16135   0.33749   0.00000  Uiso   1.00
O208   O     0.84515   0.08101   0.27821   0.00000  Uiso   1.00
O209   O     0.81247   0.26136   0.26767   0.00000  Uiso   1.00
O210   O     0.74119   0.13251   0.23607   0.00000  Uiso   1.00
O211   O     0.93452   0.19179   0.21806   0.00000  Uiso   1.00
O212   O     0.73656   0.18960   0.27820   0.00000  Uiso   1.00
O213   O     0.92106   0.15277   0.26768   0.00000  Uiso   1.00
O214   O     0.80467   0.06903   0.23607   0.00000  Uiso   1.00
O215   O     0.87104   0.25527   0.21806   0.00000  Uiso   1.00
Zn216  Zn    0.85910   0.14090   0.28278   0.00000  Uiso   1.00
Zn217  Zn    0.80125   0.12378   0.22258   0.00000  Uiso   1.00
Zn218  Zn    0.87833   0.19664   0.21188   0.00000  Uiso   1.00
Zn219  Zn    0.79465   0.20535   0.28277   0.00000  Uiso   1.00
C220   C     0.05249   0.49321   0.25868   0.00000  Uiso   1.00
C221   C     0.20249   0.46925   0.45842   0.00000  Uiso   1.00
C222   C     0.21702   0.44390   0.47878   0.00000  Uiso   1.00
C223   C     0.28107   0.50692   0.24120   0.00000  Uiso   1.00
C224   C     0.21053   0.45206   0.01960   0.00000  Uiso   1.00
C225   C     0.19203   0.48882   0.03947   0.00000  Uiso   1.00
C226   C     0.22249   0.42443   0.04096   0.00000  Uiso   1.00
C227   C     0.21534   0.43309   0.08195   0.00000  Uiso   1.00
C228   C     0.18569   0.49659   0.08051   0.00000  Uiso   1.00
C229   C     0.32705   0.50968   0.23767   0.00000  Uiso   1.00
C230   C     0.00712   0.49069   0.26202   0.00000  Uiso   1.00
C231   C     0.14196   0.58006   0.41091   0.00000  Uiso   1.00
C232   C     0.18136   0.65540   0.23736   0.00000  Uiso   1.00
C233   C     0.15199   0.34540   0.26173   0.00000  Uiso   1.00
C234   C     0.15553   0.38951   0.25921   0.00000  Uiso   1.00
C235   C     0.17694   0.61100   0.24122   0.00000  Uiso   1.00
C236   C     0.18822   0.47848   0.14399   0.00000  Uiso   1.00
C237   C     0.14631   0.52191   0.35609   0.00000  Uiso   1.00
C238   C     0.14499   0.53754   0.39747   0.00000  Uiso   1.00
C239   C     0.19718   0.46930   0.10133   0.00000  Uiso   1.00
C240   C     0.14419   0.59548   0.44921   0.00000  Uiso   1.00
C241   C     0.15119   0.51060   0.42214   0.00000  Uiso   1.00
C242   C     0.16201   0.52735   0.45764   0.00000  Uiso   1.00
C243   C     0.15404   0.56913   0.47339   0.00000  Uiso   1.00
C244   C     0.18018   0.50343   0.47796   0.00000  Uiso   1.00
C245   C     0.17939   0.51597   0.01780   0.00000  Uiso   1.00
C246   C     0.16752   0.55578   0.03421   0.00000  Uiso   1.00
C247   C     0.15655   0.58268   0.01243   0.00000  Uiso   1.00
H248   H     0.23310   0.41764   0.46204   0.00000  Uiso   1.00
H249   H     0.12491   0.66537   0.28419   0.00000  Uiso   1.00
H250   H     0.16985   0.52264   0.09772   0.00000  Uiso   1.00
H251   H     0.25957   0.40250   0.09295   0.00000  Uiso   1.00
H252   H     0.20950   0.37580   0.10000   0.00000  Uiso   1.00
H253   H     0.16619   0.65463   0.46807   0.00000  Uiso   1.00
H254   H     0.11103   0.64108   0.48534   0.00000  Uiso   1.00
H255   H     0.16252   0.63193   0.38202   0.00000  Uiso   1.00
H256   H     0.10799   0.62125   0.39860   0.00000  Uiso   1.00
H257   H     0.16362   0.45245   0.39388   0.00000  Uiso   1.00
H258   H     0.12806   0.45181   0.44002   0.00000  Uiso   1.00
H259   H     0.12134   0.61989   0.05666   0.00000  Uiso   1.00
H260   H     0.16907   0.56840   0.06347   0.00000  Uiso   1.00
H261   H     0.21069   0.46268   0.42681   0.00000  Uiso   1.00
H262   H     0.17410   0.63849   0.03994   0.00000  Uiso   1.00
H263   H     0.22010   0.36857   0.00764   0.00000  Uiso   1.00
H264   H     0.27037   0.39558   0.00093   0.00000  Uiso   1.00
H265   H     0.01677   0.52722   0.21517   0.00000  Uiso   1.00
H266   H     0.31806   0.47301   0.28473   0.00000  Uiso   1.00
H267   H     0.23556   0.36292   0.22098   0.00000  Uiso   1.00
H268   H     0.20514   0.35315   0.18854   0.00000  Uiso   1.00
N269   N     0.14709   0.62338   0.03127   0.00000  Uiso   1.00
N270   N     0.24137   0.38718   0.02186   0.00000  Uiso   1.00
N271   N     0.21720   0.33957   0.20743   0.00000  Uiso   1.00
N272   N     0.22654   0.40522   0.10418   0.00000  Uiso   1.00
N273   N     0.13842   0.63867   0.46134   0.00000  Uiso   1.00
N274   N     0.13676   0.60802   0.38532   0.00000  Uiso   1.00
N275   N     0.13829   0.46662   0.41416   0.00000  Uiso   1.00
O276   O     0.16667   0.50000   0.25000   0.00000  Uiso   1.00
O277   O     0.15693   0.45726   0.16625   0.00000  Uiso   1.00
O278   O     0.12687   0.53979   0.33749   0.00000  Uiso   1.00
O279   O     0.21088   0.50826   0.15877   0.00000  Uiso   1.00
O280   O     0.17198   0.49468   0.33749   0.00000  Uiso   1.00
O281   O     0.17849   0.41434   0.27821   0.00000  Uiso   1.00
O282   O     0.14581   0.59469   0.26767   0.00000  Uiso   1.00
O283   O     0.07452   0.46584   0.23607   0.00000  Uiso   1.00
O284   O     0.26785   0.52512   0.21806   0.00000  Uiso   1.00
O285   O     0.06990   0.52293   0.27820   0.00000  Uiso   1.00
O286   O     0.25440   0.48610   0.26768   0.00000  Uiso   1.00
O287   O     0.13800   0.40236   0.23607   0.00000  Uiso   1.00
O288   O     0.20437   0.58860   0.21806   0.00000  Uiso   1.00
Zn289  Zn    0.19244   0.47423   0.28278   0.00000  Uiso   1.00
Zn290  Zn    0.13459   0.45711   0.22258   0.00000  Uiso   1.00
Zn291  Zn    0.21166   0.52997   0.21188   0.00000  Uiso   1.00
Zn292  Zn    0.12798   0.53868   0.28277   0.00000  Uiso   1.00
C293   C     0.38583   0.49321   0.25868   0.00000  Uiso   1.00
C294   C     0.53582   0.46925   0.45842   0.00000  Uiso   1.00
C295   C     0.55035   0.44390   0.47878   0.00000  Uiso   1.00
C296   C     0.61440   0.50692   0.24120   0.00000  Uiso   1.00
C297   C     0.54386   0.45206   0.01960   0.00000  Uiso   1.00
C298   C     0.52537   0.48882   0.03947   0.00000  Uiso   1.00
C299   C     0.55582   0.42443   0.04096   0.00000  Uiso   1.00
C300   C     0.54867   0.43309   0.08195   0.00000  Uiso   1.00
C301   C     0.51903   0.49659   0.08051   0.00000  Uiso   1.00
C302   C     0.66038   0.50968   0.23767   0.00000  Uiso   1.00
C303   C     0.34045   0.49069   0.26202   0.00000  Uiso   1.00
C304   C     0.47529   0.58006   0.41091   0.00000  Uiso   1.00
C305   C     0.51470   0.65540   0.23736   0.00000  Uiso   1.00
C306   C     0.48533   0.34540   0.26173   0.00000  Uiso   1.00
C307   C     0.48886   0.38951   0.25921   0.00000  Uiso   1.00
C308   C     0.51028   0.61100   0.24122   0.00000  Uiso   1.00
C309   C     0.52155   0.47848   0.14399   0.00000  Uiso   1.00
C310   C     0.47964   0.52191   0.35609   0.00000  Uiso   1.00
C311   C     0.47833   0.53754   0.39747   0.00000  Uiso   1.00
C312   C     0.53052   0.46930   0.10133   0.00000  Uiso   1.00
C313   C     0.47752   0.59548   0.44921   0.00000  Uiso   1.00
C314   C     0.48452   0.51060   0.42214   0.00000  Uiso   1.00
C315   C     0.49534   0.52735   0.45764   0.00000  Uiso   1.00
C316   C     0.48737   0.56913   0.47339   0.00000  Uiso   1.00
C317   C     0.51352   0.50343   0.47796   0.00000  Uiso   1.00
C318   C     0.51272   0.51597   0.01780   0.00000  Uiso   1.00
C319   C     0.50085   0.55578   0.03421   0.00000  Uiso   1.00
C320   C     0.48988   0.58268   0.01243   0.00000  Uiso   1.00
H321   H     0.56643   0.41764   0.46204   0.00000  Uiso   1.00
H322   H     0.45824   0.66537   0.28419   0.00000  Uiso   1.00
H323   H     0.50318   0.52264   0.09772   0.00000  Uiso   1.00
H324   H     0.59290   0.40250   0.09295   0.00000  Uiso   1.00
H325   H     0.54283   0.37580   0.10000   0.00000  Uiso   1.00
H326   H     0.49952   0.65463   0.46807   0.00000  Uiso   1.00
H327   H     0.44437   0.64108   0.48534   0.00000  Uiso   1.00
H328   H     0.49585   0.63193   0.38202   0.00000  Uiso   1.00
H329   H     0.44133   0.62125   0.39860   0.00000  Uiso   1.00
H330   H     0.49695   0.45245   0.39388   0.00000  Uiso   1.00
H331   H     0.46139   0.45181   0.44002   0.00000  Uiso   1.00
H332   H     0.45467   0.61989   0.05666   0.00000  Uiso   1.00
H333   H     0.50241   0.56840   0.06347   0.00000  Uiso   1.00
H334   H     0.54402   0.46268   0.42681   0.00000  Uiso   1.00
H335   H     0.50743   0.63849   0.03994   0.00000  Uiso   1.00
H336   H     0.55344   0.36857   0.00764   0.00000  Uiso   1.00
H337   H     0.60370   0.39558   0.00093   0.00000  Uiso   1.00
H338   H     0.35010   0.52722   0.21517   0.00000  Uiso   1.00
H339   H     0.65140   0.47301   0.28473   0.00000  Uiso   1.00
H340   H     0.56889   0.36292   0.22098   0.00000  Uiso   1.00
H341   H     0.53848   0.35315   0.18854   0.00000  Uiso   1.00
N342   N     0.48042   0.62338   0.03127   0.00000  Uiso   1.00
N343   N     0.57471   0.38718   0.02186   0.00000  Uiso   1.00
N344   N     0.55053   0.33957   0.20743   0.00000  Uiso   1.00
N345   N     0.55987   0.40522   0.10418   0.00000  Uiso   1.00
N346   N     0.47176   0.63867   0.46134   0.00000  Uiso   1.00
N347   N     0.47009   0.60802   0.38532   0.00000  Uiso   1.00
N348   N     0.47163   0.46662   0.41416   0.00000  Uiso   1.00
O349   O     0.50000   0.50000   0.25000   0.00000  Uiso   1.00
O350   O     0.49027   0.45726   0.16625   0.00000  Uiso   1.00
O351   O     0.46020   0.53979   0.33749   0.00000  Uiso   1.00
O352   O     0.54421   0.50826   0.15877   0.00000  Uiso   1.00
O353   O     0.50532   0.49468   0.33749   0.00000  Uiso   1.00
O354   O     0.51182   0.41434   0.27821   0.00000  Uiso   1.00
O355   O     0.47914   0.59469   0.26767   0.00000  Uiso   1.00
O356   O     0.40785   0.46584   0.23607   0.00000  Uiso   1.00
O357   O     0.60119   0.52512   0.21806   0.00000  Uiso   1.00
O358   O     0.40323   0.52293   0.27820   0.00000  Uiso   1.00
O359   O     0.58773   0.48610   0.26768   0.00000  Uiso   1.00
O360   O     0.47133   0.40236   0.23607   0.00000  Uiso   1.00
O361   O     0.53771   0.58860   0.21806   0.00000  Uiso   1.00
Zn362  Zn    0.52577   0.47423   0.28278   0.00000  Uiso   1.00
Zn363  Zn    0.46792   0.45711   0.22258   0.00000  Uiso   1.00
Zn364  Zn    0.54500   0.52997   0.21188   0.00000  Uiso   1.00
Zn365  Zn    0.46131   0.53868   0.28277   0.00000  Uiso   1.00
C366   C     0.71916   0.49321   0.25868   0.00000  Uiso   1.00
C367   C     0.86916   0.46925   0.45842   0.00000  Uiso   1.00
C368   C     0.88368   0.44390   0.47878   0.00000  Uiso   1.00
C369   C     0.94774   0.50692   0.24120   0.00000  Uiso   1.00
C370   C     0.87720   0.45206   0.01960   0.00000  Uiso   1.00
C371   C     0.85870   0.48882   0.03947   0.00000  Uiso   1.00
C372   C     0.88915   0.42443   0.04096   0.00000  Uiso   1.00
C373   C     0.88201   0.43309   0.08195   0.00000  Uiso   1.00
C374   C     0.85236   0.49659   0.08051   0.00000  Uiso   1.00
C375   C     0.99372   0.50968   0.23767   0.00000  Uiso   1.00
C376   C     0.67378   0.49069   0.26202   0.00000  Uiso   1.00
C377   C     0.80863   0.58006   0.41091   0.00000  Uiso   1.00
C378   C     0.84803   0.65540   0.23736   0.00000  Uiso   1.00
C379   C     0.81866   0.34540   0.26173   0.00000  Uiso   1.00
C380   C     0.82220   0.38951   0.25921   0.00000  Uiso   1.00
C381   C     0.84361   0.61100   0.24122   0.00000  Uiso   1.00
C382   C     0.85488   0.47848   0.14399   0.00000  Uiso   1.00
C383   C     0.81298   0.52191   0.35609   0.00000  Uiso   1.00
C384   C     0.81166   0.53754   0.39747   0.00000  Uiso   1.00
C385   C     0.86385   0.46930   0.10133   0.00000  Uiso   1.00
C386   C     0.81086   0.59548   0.44921   0.00000  Uiso   1.00
C387   C     0.81786   0.51060   0.42214   0.00000  Uiso   1.00
C388   C     0.82868   0.52735   0.45764   0.00000  Uiso   1.00
C389   C     0.82070   0.56913   0.47339   0.00000  Uiso   1.00
C390   C     0.84685   0.50343   0.47796   0.00000  Uiso   1.00
C391   C     0.84605   0.51597   0.01780   0.00000  Uiso   1.00
C392   C     0.83419   0.55578   0.03421   0.00000  Uiso   1.00
C393   C     0.82322   0.58268   0.01243   0.00000  Uiso   1.00
H394   H     0.89976   0.41764   0.46204   0.00000  Uiso   1.00
H395   H     0.79158   0.66537   0.28419   0.00000  Uiso   1.00
H396   H     0.83651   0.52264   0.09772   0.00000  Uiso   1.00
H397   H     0.92624   0.40250   0.09295   0.00000  Uiso   1.00
H398   H     0.87616   0.37580   0.10000   0.00000  Uiso   1.00
H399   H     0.83286   0.65463   0.46807   0.00000  Uiso   1.00
H400   H     0.77770   0.64108   0.48534   0.00000  Uiso   1.00
H401   H     0.82918   0.63193   0.38202   0.00000  Uiso   1.00
H402   H     0.77466   0.62125   0.39860   0.00000  Uiso   1.00
H403   H     0.83029   0.45245   0.39388   0.00000  Uiso   1.00
H404   H     0.79473   0.45181   0.44002   0.00000  Uiso   1.00
H405   H     0.78800   0.61989   0.05666   0.00000  Uiso   1.00
H406   H     0.83574   0.56840   0.06347   0.00000  Uiso   1.00
H407   H     0.87736   0.46268   0.42681   0.00000  Uiso   1.00
H408   H     0.84077   0.63849   0.03994   0.00000  Uiso   1.00
H409   H     0.88677   0.36857   0.00764   0.00000  Uiso   1.00
H410   H     0.93704   0.39558   0.00093   0.00000  Uiso   1.00
H411   H     0.68343   0.52722   0.21517   0.00000  Uiso   1.00
H412   H     0.98473   0.47301   0.28473   0.00000  Uiso   1.00
H413   H     0.90222   0.36292   0.22098   0.00000  Uiso   1.00
H414   H     0.87181   0.35315   0.18854   0.00000  Uiso   1.00
N415   N     0.81376   0.62338   0.03127   0.00000  Uiso   1.00
N416   N     0.90804   0.38718   0.02186   0.00000  Uiso   1.00
N417   N     0.88387   0.33957   0.20743   0.00000  Uiso   1.00
N418   N     0.89320   0.40522   0.10418   0.00000  Uiso   1.00
N419   N     0.80509   0.63867   0.46134   0.00000  Uiso   1.00
N420   N     0.80343   0.60802   0.38532   0.00000  Uiso   1.00
N421   N     0.80496   0.46662   0.41416   0.00000  Uiso   1.00
O422   O     0.83333   0.50000   0.25000   0.00000  Uiso   1.00
O423   O     0.82360   0.45726   0.16625   0.00000  Uiso   1.00
O424   O     0.79354   0.53979   0.33749   0.00000  Uiso   1.00
O425   O     0.87755   0.50826   0.15877   0.00000  Uiso   1.00
O426   O     0.83865   0.49468   0.33749   0.00000  Uiso   1.00
O427   O     0.84515   0.41434   0.27821   0.00000  Uiso   1.00
O428   O     0.81247   0.59469   0.26767   0.00000  Uiso   1.00
O429   O     0.74119   0.46584   0.23607   0.00000  Uiso   1.00
O430   O     0.93452   0.52512   0.21806   0.00000  Uiso   1.00
O431   O     0.73656   0.52293   0.27820   0.00000  Uiso   1.00
O432   O     0.92106   0.48610   0.26768   0.00000  Uiso   1.00
O433   O     0.80467   0.40236   0.23607   0.00000  Uiso   1.00
O434   O     0.87104   0.58860   0.21806   0.00000  Uiso   1.00
Zn435  Zn    0.85910   0.47423   0.28278   0.00000  Uiso   1.00
Zn436  Zn    0.80125   0.45711   0.22258   0.00000  Uiso   1.00
Zn437  Zn    0.87833   0.52997   0.21188   0.00000  Uiso   1.00
Zn438  Zn    0.79465   0.53868   0.28277   0.00000  Uiso   1.00
C439   C     0.05249   0.82655   0.25868   0.00000  Uiso   1.00
C440   C     0.20249   0.80258   0.45842   0.00000  Uiso   1.00
C441   C     0.21702   0.77723   0.47878   0.00000  Uiso   1.00
C442   C     0.28107   0.84025   0.24120   0.00000  Uiso   1.00
C443   C     0.21053   0.78540   0.01960   0.00000  Uiso   1.00
C444   C     0.19203   0.82215   0.03947   0.00000  Uiso   1.00
C445   C     0.22249   0.75776   0.04096   0.00000  Uiso   1.00
C446   C     0.21534   0.76642   0.08195   0.00000  Uiso   1.00
C447   C     0.18569   0.82993   0.08051   0.00000  Uiso   1.00
C448   C     0.32705   0.84302   0.23767   0.00000  Uiso   1.00
C449   C     0.00712   0.82403   0.26202   0.00000  Uiso   1.00
C450   C     0.14196   0.91339   0.41091   0.00000  Uiso   1.00
C451   C     0.18136   0.98873   0.23736   0.00000  Uiso   1.00
C452   C     0.15199   0.67873   0.26173   0.00000  Uiso   1.00
C453   C     0.15553   0.72284   0.25921   0.00000  Uiso   1.00
C454   C     0.17694   0.94433   0.24122   0.00000  Uiso   1.00
C455   C     0.18822   0.81181   0.14399   0.00000  Uiso   1.00
C456   C     0.14631   0.85525   0.35609   0.00000  Uiso   1.00
C457   C     0.14499   0.87087   0.39747   0.00000  Uiso   1.00
C458   C     0.19718   0.80263   0.10133   0.00000  Uiso   1.00
C459   C     0.14419   0.92882   0.44921   0.00000  Uiso   1.00
C460   C     0.15119   0.84394   0.42214   0.00000  Uiso   1.00
C461   C     0.16201   0.86068   0.45764   0.00000  Uiso   1.00
C462   C     0.15404   0.90246   0.47339   0.00000  Uiso   1.00
C463   C     0.18018   0.83677   0.47796   0.00000  Uiso   1.00
C464   C     0.17939   0.84930   0.01780   0.00000  Uiso   1.00
C465   C     0.16752   0.88912   0.03421   0.00000  Uiso   1.00
C466   C     0.15655   0.91601   0.01243   0.00000  Uiso   1.00
H467   H     0.23310   0.75097   0.46204   0.00000  Uiso   1.00
H468   H     0.12491   0.99870   0.28419   0.00000  Uiso   1.00
H469   H     0.16985   0.85597   0.09772   0.00000  Uiso   1.00
H470   H     0.25957   0.73583   0.09295   0.00000  Uiso   1.00
H471   H     0.20950   0.70914   0.10000   0.00000  Uiso   1.00
H472   H     0.16619   0.98797   0.46807   0.00000  Uiso   1.00
H473   H     0.11103   0.97441   0.48534   0.00000  Uiso   1.00
H474   H     0.16252   0.96526   0.38202   0.00000  Uiso   1.00
H475   H     0.10799   0.95459   0.39860   0.00000  Uiso   1.00
H476   H     0.16362   0.78578   0.39388   0.00000  Uiso   1.00
H477   H     0.12806   0.78514   0.44002   0.00000  Uiso   1.00
H478   H     0.12134   0.95322   0.05666   0.00000  Uiso   1.00
H479   H     0.16907   0.90173   0.06347   0.00000  Uiso   1.00
H480   H     0.21069   0.79601   0.42681   0.00000  Uiso   1.00
H481   H     0.17410   0.97183   0.03994   0.00000  Uiso   1.00
H482   H     0.22010   0.70190   0.00764   0.00000  Uiso   1.00
H483   H     0.27037   0.72892   0.00093   0.00000  Uiso   1.00
H484   H     0.01677   0.86055   0.21517   0.00000  Uiso   1.00
H485   H     0.31806   0.80635   0.28473   0.00000  Uiso   1.00
H486   H     0.23556   0.69625   0.22098   0.00000  Uiso   1.00
H487   H     0.20514   0.68648   0.18854   0.00000  Uiso   1.00
N488   N     0.14709   0.95672   0.03127   0.00000  Uiso   1.00
N489   N     0.24137   0.72051   0.02186   0.00000  Uiso   1.00
N490   N     0.21720   0.67290   0.20743   0.00000  Uiso   1.00
N491   N     0.22654   0.73855   0.10418   0.00000  Uiso   1.00
N492   N     0.13842   0.97201   0.46134   0.00000  Uiso   1.00
N493   N     0.13676   0.94136   0.38532   0.00000  Uiso   1.00
N494   N     0.13829   0.79995   0.41416   0.00000  Uiso   1.00
O495   O     0.16667   0.83333   0.25000   0.00000  Uiso   1.00
O496   O     0.15693   0.79060   0.16625   0.00000  Uiso   1.00
O497   O     0.12687   0.87313   0.33749   0.00000  Uiso   1.00
O498   O     0.21088   0.84159   0.15877   0.00000  Uiso   1.00
O499   O     0.17198   0.82802   0.33749   0.00000  Uiso   1.00
O500   O     0.17849   0.74768   0.27821   0.00000  Uiso   1.00
O501   O     0.14581   0.92803   0.26767   0.00000  Uiso   1.00
O502   O     0.07452   0.79917   0.23607   0.00000  Uiso   1.00
O503   O     0.26785   0.85845   0.21806   0.00000  Uiso   1.00
O504   O     0.06990   0.85627   0.27820   0.00000  Uiso   1.00
O505   O     0.25440   0.81944   0.26768   0.00000  Uiso   1.00
O506   O     0.13800   0.73570   0.23607   0.00000  Uiso   1.00
O507   O     0.20437   0.92193   0.21806   0.00000  Uiso   1.00
Zn508  Zn    0.19244   0.80756   0.28278   0.00000  Uiso   1.00
Zn509  Zn    0.13459   0.79044   0.22258   0.00000  Uiso   1.00
Zn510  Zn    0.21166   0.86331   0.21188   0.00000  Uiso   1.00
Zn511  Zn    0.12798   0.87202   0.28277   0.00000  Uiso   1.00
C512   C     0.38583   0.82655   0.25868   0.00000  Uiso   1.00
C513   C     0.53582   0.80258   0.45842   0.00000  Uiso   1.00
C514   C     0.55035   0.77723   0.47878   0.00000  Uiso   1.00
C515   C     0.61440   0.84025   0.24120   0.00000  Uiso   1.00
C516   C     0.54386   0.78540   0.01960   0.00000  Uiso   1.00
C517   C     0.52537   0.82215   0.03947   0.00000  Uiso   1.00
C518   C     0.55582   0.75776   0.04096   0.00000  Uiso   1.00
C519   C     0.54867   0.76642   0.08195   0.00000  Uiso   1.00
C520   C     0.51903   0.82993   0.08051   0.00000  Uiso   1.00
C521   C     0.66038   0.84302   0.23767   0.00000  Uiso   1.00
C522   C     0.34045   0.82403   0.26202   0.00000  Uiso   1.00
C523   C     0.47529   0.91339   0.41091   0.00000  Uiso   1.00
C524   C     0.51470   0.98873   0.23736   0.00000  Uiso   1.00
C525   C     0.48533   0.67873   0.26173   0.00000  Uiso   1.00
C526   C     0.48886   0.72284   0.25921   0.00000  Uiso   1.00
C527   C     0.51028   0.94433   0.24122   0.00000  Uiso   1.00
C528   C     0.52155   0.81181   0.14399   0.00000  Uiso   1.00
C529   C     0.47964   0.85525   0.35609   0.00000  Uiso   1.00
C530   C     0.47833   0.87087   0.39747   0.00000  Uiso   1.00
C531   C     0.53052   0.80263   0.10133   0.00000  Uiso   1.00
C532   C     0.47752   0.92882   0.44921   0.00000  Uiso   1.00
C533   C     0.48452   0.84394   0.42214   0.00000  Uiso   1.00
C534   C     0.49534   0.86068   0.45764   0.00000  Uiso   1.00
C535   C     0.48737   0.90246   0.47339   0.00000  Uiso   1.00
C536   C     0.51352   0.83677   0.47796   0.00000  Uiso   1.00
C537   C     0.51272   0.84930   0.01780   0.00000  Uiso   1.00
C538   C     0.50085   0.88912   0.03421   0.00000  Uiso   1.00
C539   C     0.48988   0.91601   0.01243   0.00000  Uiso   1.00
H540   H     0.56643   0.75097   0.46204   0.00000  Uiso   1.00
H541   H     0.45824   0.99870   0.28419   0.00000  Uiso   1.00
H542   H     0.50318   0.85597   0.09772   0.00000  Uiso   1.00
H543   H     0.59290   0.73583   0.09295   0.00000  Uiso   1.00
H544   H     0.54283   0.70914   0.10000   0.00000  Uiso   1.00
H545   H     0.49952   0.98797   0.46807   0.00000  Uiso   1.00
H546   H     0.44437   0.97441   0.48534   0.00000  Uiso   1.00
H547   H     0.49585   0.96526   0.38202   0.00000  Uiso   1.00
H548   H     0.44133   0.95459   0.39860   0.00000  Uiso   1.00
H549   H     0.49695   0.78578   0.39388   0.00000  Uiso   1.00
H550   H     0.46139   0.78514   0.44002   0.00000  Uiso   1.00
H551   H     0.45467   0.95322   0.05666   0.00000  Uiso   1.00
H552   H     0.50241   0.90173   0.06347   0.00000  Uiso   1.00
H553   H     0.54402   0.79601   0.42681   0.00000  Uiso   1.00
H554   H     0.50743   0.97183   0.03994   0.00000  Uiso   1.00
H555   H     0.55344   0.70190   0.00764   0.00000  Uiso   1.00
H556   H     0.60370   0.72892   0.00093   0.00000  Uiso   1.00
H557   H     0.35010   0.86055   0.21517   0.00000  Uiso   1.00
H558   H     0.65140   0.80635   0.28473   0.00000  Uiso   1.00
H559   H     0.56889   0.69625   0.22098   0.00000  Uiso   1.00
H560   H     0.53848   0.68648   0.18854   0.00000  Uiso   1.00
N561   N     0.48042   0.95672   0.03127   0.00000  Uiso   1.00
N562   N     0.57471   0.72051   0.02186   0.00000  Uiso   1.00
N563   N     0.55053   0.67290   0.20743   0.00000  Uiso   1.00
N564   N     0.55987   0.73855   0.10418   0.00000  Uiso   1.00
N565   N     0.47176   0.97201   0.46134   0.00000  Uiso   1.00
N566   N     0.47009   0.94136   0.38532   0.00000  Uiso   1.00
N567   N     0.47163   0.79995   0.41416   0.00000  Uiso   1.00
O568   O     0.50000   0.83333   0.25000   0.00000  Uiso   1.00
O569   O     0.49027   0.79060   0.16625   0.00000  Uiso   1.00
O570   O     0.46020   0.87313   0.33749   0.00000  Uiso   1.00
O571   O     0.54421   0.84159   0.15877   0.00000  Uiso   1.00
O572   O     0.50532   0.82802   0.33749   0.00000  Uiso   1.00
O573   O     0.51182   0.74768   0.27821   0.00000  Uiso   1.00
O574   O     0.47914   0.92803   0.26767   0.00000  Uiso   1.00
O575   O     0.40785   0.79917   0.23607   0.00000  Uiso   1.00
O576   O     0.60119   0.85845   0.21806   0.00000  Uiso   1.00
O577   O     0.40323   0.85627   0.27820   0.00000  Uiso   1.00
O578   O     0.58773   0.81944   0.26768   0.00000  Uiso   1.00
O579   O     0.47133   0.73570   0.23607   0.00000  Uiso   1.00
O580   O     0.53771   0.92193   0.21806   0.00000  Uiso   1.00
Zn581  Zn    0.52577   0.80756   0.28278   0.00000  Uiso   1.00
Zn582  Zn    0.46792   0.79044   0.22258   0.00000  Uiso   1.00
Zn583  Zn    0.54500   0.86331   0.21188   0.00000  Uiso   1.00
Zn584  Zn    0.46131   0.87202   0.28277   0.00000  Uiso   1.00
C585   C     0.71916   0.82655   0.25868   0.00000  Uiso   1.00
C586   C     0.86916   0.80258   0.45842   0.00000  Uiso   1.00
C587   C     0.88368   0.77723   0.47878   0.00000  Uiso   1.00
C588   C     0.94774   0.84025   0.24120   0.00000  Uiso   1.00
C589   C     0.87720   0.78540   0.01960   0.00000  Uiso   1.00
C590   C     0.85870   0.82215   0.03947   0.00000  Uiso   1.00
C591   C     0.88915   0.75776   0.04096   0.00000  Uiso   1.00
C592   C     0.88201   0.76642   0.08195   0.00000  Uiso   1.00
C593   C     0.85236   0.82993   0.08051   0.00000  Uiso   1.00
C594   C     0.99372   0.84302   0.23767   0.00000  Uiso   1.00
C595   C     0.67378   0.82403   0.26202   0.00000  Uiso   1.00
C596   C     0.80863   0.91339   0.41091   0.00000  Uiso   1.00
C597   C     0.84803   0.98873   0.23736   0.00000  Uiso   1.00
C598   C     0.81866   0.67873   0.26173   0.00000  Uiso   1.00
C599   C     0.82220   0.72284   0.25921   0.00000  Uiso   1.00
C600   C     0.84361   0.94433   0.24122   0.00000  Uiso   1.00
C601   C     0.85488   0.81181   0.14399   0.00000  Uiso   1.00
C602   C     0.81298   0.85525   0.35609   0.00000  Uiso   1.00
C603   C     0.81166   0.87087   0.39747   0.00000  Uiso   1.00
C604   C     0.86385   0.80263   0.10133   0.00000  Uiso   1.00
C605   C     0.81086   0.92882   0.44921   0.00000  Uiso   1.00
C606   C     0.81786   0.84394   0.42214   0.00000  Uiso   1.00
C607   C     0.82868   0.86068   0.45764   0.00000  Uiso   1.00
C608   C     0.82070   0.90246   0.47339   0.00000  Uiso   1.00
C609   C     0.84685   0.83677   0.47796   0.00000  Uiso   1.00
C610   C     0.84605   0.84930   0.01780   0.00000  Uiso   1.00
C611   C     0.83419   0.88912   0.03421   0.00000  Uiso   1.00
C612   C     0.82322   0.91601   0.01243   0.00000  Uiso   1.00
H613   H     0.89976   0.75097   0.46204   0.00000  Uiso   1.00
H614   H     0.79158   0.99870   0.28419   0.00000  Uiso   1.00
H615   H     0.83651   0.85597   0.09772   0.00000  Uiso   1.00
H616   H     0.92624   0.73583   0.09295   0.00000  Uiso   1.00
H617   H     0.87616   0.70914   0.10000   0.00000  Uiso   1.00
H618   H     0.83286   0.98797   0.46807   0.00000  Uiso   1.00
H619   H     0.77770   0.97441   0.48534   0.00000  Uiso   1.00
H620   H     0.82918   0.96526   0.38202   0.00000  Uiso   1.00
H621   H     0.77466   0.95459   0.39860   0.00000  Uiso   1.00
H622   H     0.83029   0.78578   0.39388   0.00000  Uiso   1.00
H623   H     0.79473   0.78514   0.44002   0.00000  Uiso   1.00
H624   H     0.78800   0.95322   0.05666   0.00000  Uiso   1.00
H625   H     0.83574   0.90173   0.06347   0.00000  Uiso   1.00
H626   H     0.87736   0.79601   0.42681   0.00000  Uiso   1.00
H627   H     0.84077   0.97183   0.03994   0.00000  Uiso   1.00
H628   H     0.88677   0.70190   0.00764   0.00000  Uiso   1.00
H629   H     0.93704   0.72892   0.00093   0.00000  Uiso   1.00
H630   H     0.68343   0.86055   0.21517   0.00000  Uiso   1.00
H631   H     0.98473   0.80635   0.28473   0.00000  Uiso   1.00
H632   H     0.90222   0.69625   0.22098   0.00000  Uiso   1.00
H633   H     0.87181   0.68648   0.18854   0.00000  Uiso   1.00
N634   N     0.81376   0.95672   0.03127   0.00000  Uiso   1.00
N635   N     0.90804   0.72051   0.02186   0.00000  Uiso   1.00
N636   N     0.88387   0.67290   0.20743   0.00000  Uiso   1.00
N637   N     0.89320   0.73855   0.10418   0.00000  Uiso   1.00
N638   N     0.80509   0.97201   0.46134   0.00000  Uiso   1.00
N639   N     0.80343   0.94136   0.38532   0.00000  Uiso   1.00
N640   N     0.80496   0.79995   0.41416   0.00000  Uiso   1.00
O641   O     0.83333   0.83333   0.25000   0.00000  Uiso   1.00
O642   O     0.82360   0.79060   0.16625   0.00000  Uiso   1.00
O643   O     0.79354   0.87313   0.33749   0.00000  Uiso   1.00
O644   O     0.87755   0.84159   0.15877   0.00000  Uiso   1.00
O645   O     0.83865   0.82802   0.33749   0.00000  Uiso   1.00
O646   O     0.84515   0.74768   0.27821   0.00000  Uiso   1.00
O647   O     0.81247   0.92803   0.26767   0.00000  Uiso   1.00
O648   O     0.74119   0.79917   0.23607   0.00000  Uiso   1.00
O649   O     0.93452   0.85845   0.21806   0.00000  Uiso   1.00
O650   O     0.73656   0.85627   0.27820   0.00000  Uiso   1.00
O651   O     0.92106   0.81944   0.26768   0.00000  Uiso   1.00
O652   O     0.80467   0.73570   0.23607   0.00000  Uiso   1.00
O653   O     0.87104   0.92193   0.21806   0.00000  Uiso   1.00
Zn654  Zn    0.85910   0.80756   0.28278   0.00000  Uiso   1.00
Zn655  Zn    0.80125   0.79044   0.22258   0.00000  Uiso   1.00
Zn656  Zn    0.87833   0.86331   0.21188   0.00000  Uiso   1.00
Zn657  Zn    0.79465   0.87202   0.28277   0.00000  Uiso   1.00
C658   C     0.05249   0.15988   0.75868   0.00000  Uiso   1.00
C659   C     0.20249   0.13592   0.95842   0.00000  Uiso   1.00
C660   C     0.21702   0.11056   0.97878   0.00000  Uiso   1.00
C661   C     0.28107   0.17359   0.74120   0.00000  Uiso   1.00
C662   C     0.21053   0.11873   0.51960   0.00000  Uiso   1.00
C663   C     0.19203   0.15548   0.53947   0.00000  Uiso   1.00
C664   C     0.22249   0.09109   0.54096   0.00000  Uiso   1.00
C665   C     0.21534   0.09975   0.58195   0.00000  Uiso   1.00
C666   C     0.18569   0.16326   0.58051   0.00000  Uiso   1.00
C667   C     0.32705   0.17635   0.73767   0.00000  Uiso   1.00
C668   C     0.00712   0.15736   0.76202   0.00000  Uiso   1.00
C669   C     0.14196   0.24673   0.91091   0.00000  Uiso   1.00
C670   C     0.18136   0.32207   0.73736   0.00000  Uiso   1.00
C671   C     0.15199   0.01207   0.76173   0.00000  Uiso   1.00
C672   C     0.15553   0.05618   0.75921   0.00000  Uiso   1.00
C673   C     0.17694   0.27766   0.74122   0.00000  Uiso   1.00
C674   C     0.18822   0.14514   0.64399   0.00000  Uiso   1.00
C675   C     0.14631   0.18858   0.85609   0.00000  Uiso   1.00
C676   C     0.14499   0.20421   0.89747   0.00000  Uiso   1.00
C677   C     0.19718   0.13597   0.60133   0.00000  Uiso   1.00
C678   C     0.14419   0.26215   0.94921   0.00000  Uiso   1.00
C679   C     0.15119   0.17727   0.92214   0.00000  Uiso   1.00
C680   C     0.16201   0.19401   0.95764   0.00000  Uiso   1.00
C681   C     0.15404   0.23579   0.97339   0.00000  Uiso   1.00
C682   C     0.18018   0.17010   0.97796   0.00000  Uiso   1.00
C683   C     0.17939   0.18263   0.51780   0.00000  Uiso   1.00
C684   C     0.16752   0.22245   0.53421   0.00000  Uiso   1.00
C685   C     0.15655   0.24934   0.51243   0.00000  Uiso   1.00
H686   H     0.23310   0.08431   0.96204   0.00000  Uiso   1.00
H687   H     0.12491   0.33204   0.78419   0.00000  Uiso   1.00
H688   H     0.16985   0.18931   0.59772   0.00000  Uiso   1.00
H689   H     0.25957   0.06917   0.59295   0.00000  Uiso   1.00
H690   H     0.20950   0.04247   0.60000   0.00000  Uiso   1.00
H691   H     0.16619   0.32130   0.96807   0.00000  Uiso   1.00
H692   H     0.11103   0.30775   0.98534   0.00000  Uiso   1.00
H693   H     0.16252   0.29860   0.88202   0.00000  Uiso   1.00
H694   H     0.10799   0.28792   0.89860   0.00000  Uiso   1.00
H695   H     0.16362   0.11911   0.89388   0.00000  Uiso   1.00
H696   H     0.12806   0.11848   0.94002   0.00000  Uiso   1.00
H697   H     0.12134   0.28656   0.55666   0.00000  Uiso   1.00
H698   H     0.16907   0.23507   0.56347   0.00000  Uiso   1.00
H699   H     0.21069   0.12934   0.92681   0.00000  Uiso   1.00
H700   H     0.17410   0.30516   0.53994   0.00000  Uiso   1.00
H701   H     0.22010   0.03524   0.50764   0.00000  Uiso   1.00
H702   H     0.27037   0.06225   0.50093   0.00000  Uiso   1.00
H703   H     0.01677   0.19389   0.71517   0.00000  Uiso   1.00
H704   H     0.31806   0.13968   0.78473   0.00000  Uiso   1.00
H705   H     0.23556   0.02959   0.72098   0.00000  Uiso   1.00
H706   H     0.20514   0.01982   0.68854   0.00000  Uiso   1.00
N707   N     0.14709   0.29005   0.53127   0.00000  Uiso   1.00
N708   N     0.24137   0.05385   0.52186   0.00000  Uiso   1.00
N709   N     0.21720   0.00624   0.70743   0.00000  Uiso   1.00
N710   N     0.22654   0.07188   0.60418   0.00000  Uiso   1.00
N711   N     0.13842   0.30534   0.96134   0.00000  Uiso   1.00
N712   N     0.13676   0.27469   0.88532   0.00000  Uiso   1.00
N713   N     0.13829   0.13329   0.91416   0.00000  Uiso   1.00
O714   O     0.16667   0.16667   0.75000   0.00000  Uiso   1.00
O715   O     0.15693   0.12393   0.66625   0.00000  Uiso   1.00
O716   O     0.12687   0.20646   0.83749   0.00000  Uiso   1.00
O717   O     0.21088   0.17493   0.65877   0.00000  Uiso   1.00
O718   O     0.17198   0.16135   0.83749   0.00000  Uiso   1.00
O719   O     0.17849   0.08101   0.77821   0.00000  Uiso   1.00
O720   O     0.14581   0.26136   0.76767   0.00000  Uiso   1.00
O721   O     0.07452   0.13251   0.73607   0.00000  Uiso   1.00
O722   O     0.26785   0.19179   0.71806   0.00000  Uiso   1.00
O723   O     0.06990   0.18960   0.77820   0.00000  Uiso   1.00
O724   O     0.25440   0.15277   0.76768   0.00000  Uiso   1.00
O725   O     0.13800   0.06903   0.73607   0.00000  Uiso   1.00
O726   O     0.20437   0.25527   0.71806   0.00000  Uiso   1.00
Zn727  Zn    0.19244   0.14090   0.78278   0.00000  Uiso   1.00
Zn728  Zn    0.13459   0.12378   0.72258   0.00000  Uiso   1.00
Zn729  Zn    0.21166   0.19664   0.71188   0.00000  Uiso   1.00
Zn730  Zn    0.12798   0.20535   0.78277   0.00000  Uiso   1.00
C731   C     0.38583   0.15988   0.75868   0.00000  Uiso   1.00
C732   C     0.53582   0.13592   0.95842   0.00000  Uiso   1.00
C733   C     0.55035   0.11056   0.97878   0.00000  Uiso   1.00
C734   C     0.61440   0.17359   0.74120   0.00000  Uiso   1.00
C735   C     0.54386   0.11873   0.51960   0.00000  Uiso   1.00
C736   C     0.52537   0.15548   0.53947   0.00000  Uiso   1.00
C737   C     0.55582   0.09109   0.54096   0.00000  Uiso   1.00
C738   C     0.54867   0.09975   0.58195   0.00000  Uiso   1.00
C739   C     0.51903   0.16326   0.58051   0.00000  Uiso   1.00
C740   C     0.66038   0.17635   0.73767   0.00000  Uiso   1.00
C741   C     0.34045   0.15736   0.76202   0.00000  Uiso   1.00
C742   C     0.47529   0.24673   0.91091   0.00000  Uiso   1.00
C743   C     0.51470   0.32207   0.73736   0.00000  Uiso   1.00
C744   C     0.48533   0.01207   0.76173   0.00000  Uiso   1.00
C745   C     0.48886   0.05618   0.75921   0.00000  Uiso   1.00
C746   C     0.51028   0.27766   0.74122   0.00000  Uiso   1.00
C747   C     0.52155   0.14514   0.64399   0.00000  Uiso   1.00
C748   C     0.47964   0.18858   0.85609   0.00000  Uiso   1.00
C749   C     0.47833   0.20421   0.89747   0.00000  Uiso   1.00
C750   C     0.53052   0.13597   0.60133   0.00000  Uiso   1.00
C751   C     0.47752   0.26215   0.94921   0.00000  Uiso   1.00
C752   C     0.48452   0.17727   0.92214   0.00000  Uiso   1.00
C753   C     0.49534   0.19401   0.95764   0.00000  Uiso   1.00
C754   C     0.48737   0.23579   0.97339   0.00000  Uiso   1.00
C755   C     0.51352   0.17010   0.97796   0.00000  Uiso   1.00
C756   C     0.51272   0.18263   0.51780   0.00000  Uiso   1.00
C757   C     0.50085   0.22245   0.53421   0.00000  Uiso   1.00
C758   C     0.48988   0.24934   0.51243   0.00000  Uiso   1.00
H759   H     0.56643   0.08431   0.96204   0.00000  Uiso   1.00
H760   H     0.45824   0.33204   0.78419   0.00000  Uiso   1.00
H761   H     0.50318   0.18931   0.59772   0.00000  Uiso   1.00
H762   H     0.59290   0.06917   0.59295   0.00000  Uiso   1.00
H763   H     0.54283   0.04247   0.60000   0.00000  Uiso   1.00
H764   H     0.49952   0.32130   0.96807   0.00000  Uiso   1.00
H765   H     0.44437   0.30775   0.98534   0.00000  Uiso   1.00
H766   H     0.49585   0.29860   0.88202   0.00000  Uiso   1.00
H767   H     0.44133   0.28792   0.89860   0.00000  Uiso   1.00
H768   H     0.49695   0.11911   0.89388   0.00000  Uiso   1.00
H769   H     0.46139   0.11848   0.94002   0.00000  Uiso   1.00
H770   H     0.45467   0.28656   0.55666   0.00000  Uiso   1.00
H771   H     0.50241   0.23507   0.56347   0.00000  Uiso   1.00
H772   H     0.54402   0.12934   0.92681   0.00000  Uiso   1.00
H773   H     0.50743   0.30516   0.53994   0.00000  Uiso   1.00
H774   H     0.55344   0.03524   0.50764   0.00000  Uiso   1.00
H775   H     0.60370   0.06225   0.50093   0.00000  Uiso   1.00
H776   H     0.35010   0.19389   0.71517   0.00000  Uiso   1.00
H777   H     0.65140   0.13968   0.78473   0.00000  Uiso   1.00
H778   H     0.56889   0.02959   0.72098   0.00000  Uiso   1.00
H779   H     0.53848   0.01982   0.68854   0.00000  Uiso   1.00
N780   N     0.48042   0.29005   0.53127   0.00000  Uiso   1.00
N781   N     0.57471   0.05385   0.52186   0.00000  Uiso   1.00
N782   N     0.55053   0.00624   0.70743   0.00000  Uiso   1.00
N783   N     0.55987   0.07188   0.60418   0.00000  Uiso   1.00
N784   N     0.47176   0.30534   0.96134   0.00000  Uiso   1.00
N785   N     0.47009   0.27469   0.88532   0.00000  Uiso   1.00
N786   N     0.47163   0.13329   0.91416   0.00000  Uiso   1.00
O787   O     0.50000   0.16667   0.75000   0.00000  Uiso   1.00
O788   O     0.49027   0.12393   0.66625   0.00000  Uiso   1.00
O789   O     0.46020   0.20646   0.83749   0.00000  Uiso   1.00
O790   O     0.54421   0.17493   0.65877   0.00000  Uiso   1.00
O791   O     0.50532   0.16135   0.83749   0.00000  Uiso   1.00
O792   O     0.51182   0.08101   0.77821   0.00000  Uiso   1.00
O793   O     0.47914   0.26136   0.76767   0.00000  Uiso   1.00
O794   O     0.40785   0.13251   0.73607   0.00000  Uiso   1.00
O795   O     0.60119   0.19179   0.71806   0.00000  Uiso   1.00
O796   O     0.40323   0.18960   0.77820   0.00000  Uiso   1.00
O797   O     0.58773   0.15277   0.76768   0.00000  Uiso   1.00
O798   O     0.47133   0.06903   0.73607   0.00000  Uiso   1.00
O799   O     0.53771   0.25527   0.71806   0.00000  Uiso   1.00
Zn800  Zn    0.52577   0.14090   0.78278   0.00000  Uiso   1.00
Zn801  Zn    0.46792   0.12378   0.72258   0.00000  Uiso   1.00
Zn802  Zn    0.54500   0.19664   0.71188   0.00000  Uiso   1.00
Zn803  Zn    0.46131   0.20535   0.78277   0.00000  Uiso   1.00
C804   C     0.71916   0.15988   0.75868   0.00000  Uiso   1.00
C805   C     0.86916   0.13592   0.95842   0.00000  Uiso   1.00
C806   C     0.88368   0.11056   0.97878   0.00000  Uiso   1.00
C807   C     0.94774   0.17359   0.74120   0.00000  Uiso   1.00
C808   C     0.87720   0.11873   0.51960   0.00000  Uiso   1.00
C809   C     0.85870   0.15548   0.53947   0.00000  Uiso   1.00
C810   C     0.88915   0.09109   0.54096   0.00000  Uiso   1.00
C811   C     0.88201   0.09975   0.58195   0.00000  Uiso   1.00
C812   C     0.85236   0.16326   0.58051   0.00000  Uiso   1.00
C813   C     0.99372   0.17635   0.73767   0.00000  Uiso   1.00
C814   C     0.67378   0.15736   0.76202   0.00000  Uiso   1.00
C815   C     0.80863   0.24673   0.91091   0.00000  Uiso   1.00
C816   C     0.84803   0.32207   0.73736   0.00000  Uiso   1.00
C817   C     0.81866   0.01207   0.76173   0.00000  Uiso   1.00
C818   C     0.82220   0.05618   0.75921   0.00000  Uiso   1.00
C819   C     0.84361   0.27766   0.74122   0.00000  Uiso   1.00
C820   C     0.85488   0.14514   0.64399   0.00000  Uiso   1.00
C821   C     0.81298   0.18858   0.85609   0.00000  Uiso   1.00
C822   C     0.81166   0.20421   0.89747   0.00000  Uiso   1.00
C823   C     0.86385   0.13597   0.60133   0.00000  Uiso   1.00
C824   C     0.81086   0.26215   0.94921   0.00000  Uiso   1.00
C825   C     0.81786   0.17727   0.92214   0.00000  Uiso   1.00
C826   C     0.82868   0.19401   0.95764   0.00000  Uiso   1.00
C827   C     0.82070   0.23579   0.97339   0.00000  Uiso   1.00
C828   C     0.84685   0.17010   0.97796   0.00000  Uiso   1.00
C829   C     0.84605   0.18263   0.51780   0.00000  Uiso   1.00
C830   C     0.83419   0.22245   0.53421   0.00000  Uiso   1.00
C831   C     0.82322   0.24934   0.51243   0.00000  Uiso   1.00
H832   H     0.89976   0.08431   0.96204   0.00000  Uiso   1.00
H833   H     0.79158   0.33204   0.78419   0.00000  Uiso   1.00
H834   H     0.83651   0.18931   0.59772   0.00000  Uiso   1.00
H835   H     0.92624   0.06917   0.59295   0.00000  Uiso   1.00
H836   H     0.87616   0.04247   0.60000   0.00000  Uiso   1.00
H837   H     0.83286   0.32130   0.96807   0.00000  Uiso   1.00
H838   H     0.77770   0.30775   0.98534   0.00000  Uiso   1.00
H839   H     0.82918   0.29860   0.88202   0.00000  Uiso   1.00
H840   H     0.77466   0.28792   0.89860   0.00000  Uiso   1.00
H841   H     0.83029   0.11911   0.89388   0.00000  Uiso   1.00
H842   H     0.79473   0.11848   0.94002   0.00000  Uiso   1.00
H843   H     0.78800   0.28656   0.55666   0.00000  Uiso   1.00
H844   H     0.83574   0.23507   0.56347   0.00000  Uiso   1.00
H845   H     0.87736   0.12934   0.92681   0.00000  Uiso   1.00
H846   H     0.84077   0.30516   0.53994   0.00000  Uiso   1.00
H847   H     0.88677   0.03524   0.50764   0.00000  Uiso   1.00
H848   H     0.93704   0.06225   0.50093   0.00000  Uiso   1.00
H849   H     0.68343   0.19389   0.71517   0.00000  Uiso   1.00
H850   H     0.98473   0.13968   0.78473   0.00000  Uiso   1.00
H851   H     0.90222   0.02959   0.72098   0.00000  Uiso   1.00
H852   H     0.87181   0.01982   0.68854   0.00000  Uiso   1.00
N853   N     0.81376   0.29005   0.53127   0.00000  Uiso   1.00
N854   N     0.90804   0.05385   0.52186   0.00000  Uiso   1.00
N855   N     0.88387   0.00624   0.70743   0.00000  Uiso   1.00
N856   N     0.89320   0.07188   0.60418   0.00000  Uiso   1.00
N857   N     0.80509   0.30534   0.96134   0.00000  Uiso   1.00
N858   N     0.80343   0.27469   0.88532   0.00000  Uiso   1.00
N859   N     0.80496   0.13329   0.91416   0.00000  Uiso   1.00
O860   O     0.83333   0.16667   0.75000   0.00000  Uiso   1.00
O861   O     0.82360   0.12393   0.66625   0.00000  Uiso   1.00
O862   O     0.79354   0.20646   0.83749   0.00000  Uiso   1.00
O863   O     0.87755   0.17493   0.65877   0.00000  Uiso   1.00
O864   O     0.83865   0.16135   0.83749   0.00000  Uiso   1.00
O865   O     0.84515   0.08101   0.77821   0.00000  Uiso   1.00
O866   O     0.81247   0.26136   0.76767   0.00000  Uiso   1.00
O867   O     0.74119   0.13251   0.73607   0.00000  Uiso   1.00
O868   O     0.93452   0.19179   0.71806   0.00000  Uiso   1.00
O869   O     0.73656   0.18960   0.77820   0.00000  Uiso   1.00
O870   O     0.92106   0.15277   0.76768   0.00000  Uiso   1.00
O871   O     0.80467   0.06903   0.73607   0.00000  Uiso   1.00
O872   O     0.87104   0.25527   0.71806   0.00000  Uiso   1.00
Zn873  Zn    0.85910   0.14090   0.78278   0.00000  Uiso   1.00
Zn874  Zn    0.80125   0.12378   0.72258   0.00000  Uiso   1.00
Zn875  Zn    0.87833   0.19664   0.71188   0.00000  Uiso   1.00
Zn876  Zn    0.79465   0.20535   0.78277   0.00000  Uiso   1.00
C877   C     0.05249   0.49321   0.75868   0.00000  Uiso   1.00
C878   C     0.20249   0.46925   0.95842   0.00000  Uiso   1.00
C879   C     0.21702   0.44390   0.97878   0.00000  Uiso   1.00
C880   C     0.28107   0.50692   0.74120   0.00000  Uiso   1.00
C881   C     0.21053   0.45206   0.51960   0.00000  Uiso   1.00
C882   C     0.19203   0.48882   0.53947   0.00000  Uiso   1.00
C883   C     0.22249   0.42443   0.54096   0.00000  Uiso   1.00
C884   C     0.21534   0.43309   0.58195   0.00000  Uiso   1.00
C885   C     0.18569   0.49659   0.58051   0.00000  Uiso   1.00
C886   C     0.32705   0.50968   0.73767   0.00000  Uiso   1.00
C887   C     0.00712   0.49069   0.76202   0.00000  Uiso   1.00
C888   C     0.14196   0.58006   0.91091   0.00000  Uiso   1.00
C889   C     0.18136   0.65540   0.73736   0.00000  Uiso   1.00
C890   C     0.15199   0.34540   0.76173   0.00000  Uiso   1.00
C891   C     0.15553   0.38951   0.75921   0.00000  Uiso   1.00
C892   C     0.17694   0.61100   0.74122   0.00000  Uiso   1.00
C893   C     0.18822   0.47848   0.64399   0.00000  Uiso   1.00
C894   C     0.14631   0.52191   0.85609   0.00000  Uiso   1.00
C895   C     0.14499   0.53754   0.89747   0.00000  Uiso   1.00
C896   C     0.19718   0.46930   0.60133   0.00000  Uiso   1.00
C897   C     0.14419   0.59548   0.94921   0.00000  Uiso   1.00
C898   C     0.15119   0.51060   0.92214   0.00000  Uiso   1.00
C899   C     0.16201   0.52735   0.95764   0.00000  Uiso   1.00
C900   C     0.15404   0.56913   0.97339   0.00000  Uiso   1.00
C901   C     0.18018   0.50343   0.97796   0.00000  Uiso   1.00
C902   C     0.17939   0.51597   0.51780   0.00000  Uiso   1.00
C903   C     0.16752   0.55578   0.53421   0.00000  Uiso   1.00
C904   C     0.15655   0.58268   0.51243   0.00000  Uiso   1.00
H905   H     0.23310   0.41764   0.96204   0.00000  Uiso   1.00
H906   H     0.12491   0.66537   0.78419   0.00000  Uiso   1.00
H907   H     0.16985   0.52264   0.59772   0.00000  Uiso   1.00
H908   H     0.25957   0.40250   0.59295   0.00000  Uiso   1.00
H909   H     0.20950   0.37580   0.60000   0.00000  Uiso   1.00
H910   H     0.16619   0.65463   0.96807   0.00000  Uiso   1.00
H911   H     0.11103   0.64108   0.98534   0.00000  Uiso   1.00
H912   H     0.16252   0.63193   0.88202   0.00000  Uiso   1.00
H913   H     0.10799   0.62125   0.89860   0.00000  Uiso   1.00
H914   H     0.16362   0.45245   0.89388   0.00000  Uiso   1.00
H915   H     0.12806   0.45181   0.94002   0.00000  Uiso   1.00
H916   H     0.12134   0.61989   0.55666   0.00000  Uiso   1.00
H917   H     0.16907   0.56840   0.56347   0.00000  Uiso   1.00
H918   H     0.21069   0.46268   0.92681   0.00000  Uiso   1.00
H919   H     0.17410   0.63849   0.53994   0.00000  Uiso   1.00
H920   H     0.22010   0.36857   0.50764   0.00000  Uiso   1.00
H921   H     0.27037   0.39558   0.50093   0.00000  Uiso   1.00
H922   H     0.01677   0.52722   0.71517   0.00000  Uiso   1.00
H923   H     0.31806   0.47301   0.78473   0.00000  Uiso   1.00
H924   H     0.23556   0.36292   0.72098   0.00000  Uiso   1.00
H925   H     0.20514   0.35315   0.68854   0.00000  Uiso   1.00
N926   N     0.14709   0.62338   0.53127   0.00000  Uiso   1.00
N927   N     0.24137   0.38718   0.52186   0.00000  Uiso   1.00
N928   N     0.21720   0.33957   0.70743   0.00000  Uiso   1.00
N929   N     0.22654   0.40522   0.60418   0.00000  Uiso   1.00
N930   N     0.13842   0.63867   0.96134   0.00000  Uiso   1.00
N931   N     0.13676   0.60802   0.88532   0.00000  Uiso   1.00
N932   N     0.13829   0.46662   0.91416   0.00000  Uiso   1.00
O933   O     0.16667   0.50000   0.75000   0.00000  Uiso   1.00
O934   O     0.15693   0.45726   0.66625   0.00000  Uiso   1.00
O935   O     0.12687   0.53979   0.83749   0.00000  Uiso   1.00
O936   O     0.21088   0.50826   0.65877   0.00000  Uiso   1.00
O937   O     0.17198   0.49468   0.83749   0.00000  Uiso   1.00
O938   O     0.17849   0.41434   0.77821   0.00000  Uiso   1.00
O939   O     0.14581   0.59469   0.76767   0.00000  Uiso   1.00
O940   O     0.07452   0.46584   0.73607   0.00000  Uiso   1.00
O941   O     0.26785   0.52512   0.71806   0.00000  Uiso   1.00
O942   O     0.06990   0.52293   0.77820   0.00000  Uiso   1.00
O943   O     0.25440   0.48610   0.76768   0.00000  Uiso   1.00
O944   O     0.13800   0.40236   0.73607   0.00000  Uiso   1.00
O945   O     0.20437   0.58860   0.71806   0.00000  Uiso   1.00
Zn946  Zn    0.19244   0.47423   0.78278   0.00000  Uiso   1.00
Zn947  Zn    0.13459   0.45711   0.72258   0.00000  Uiso   1.00
Zn948  Zn    0.21166   0.52997   0.71188   0.00000  Uiso   1.00
Zn949  Zn    0.12798   0.53868   0.78277   0.00000  Uiso   1.00
C950   C     0.38583   0.49321   0.75868   0.00000  Uiso   1.00
C951   C     0.53582   0.46925   0.95842   0.00000  Uiso   1.00
C952   C     0.55035   0.44390   0.97878   0.00000  Uiso   1.00
C953   C     0.61440   0.50692   0.74120   0.00000  Uiso   1.00
C954   C     0.54386   0.45206   0.51960   0.00000  Uiso   1.00
C955   C     0.52537   0.48882   0.53947   0.00000  Uiso   1.00
C956   C     0.55582   0.42443   0.54096   0.00000  Uiso   1.00
C957   C     0.54867   0.43309   0.58195   0.00000  Uiso   1.00
C958   C     0.51903   0.49659   0.58051   0.00000  Uiso   1.00
C959   C     0.66038   0.50968   0.73767   0.00000  Uiso   1.00
C960   C     0.34045   0.49069   0.76202   0.00000  Uiso   1.00
C961   C     0.47529   0.58006   0.91091   0.00000  Uiso   1.00
C962   C     0.51470   0.65540   0.73736   0.00000  Uiso   1.00
C963   C     0.48533   0.34540   0.76173   0.00000  Uiso   1.00
C964   C     0.48886   0.38951   0.75921   0.00000  Uiso   1.00
C965   C     0.51028   0.61100   0.74122   0.00000  Uiso   1.00
C966   C     0.52155   0.47848   0.64399   0.00000  Uiso   1.00
C967   C     0.47964   0.52191   0.85609   0.00000  Uiso   1.00
C968   C     0.47833   0.53754   0.89747   0.00000  Uiso   1.00
C969   C     0.53052   0.46930   0.60133   0.00000  Uiso   1.00
C970   C     0.47752   0.59548   0.94921   0.00000  Uiso   1.00
C971   C     0.48452   0.51060   0.92214   0.00000  Uiso   1.00
C972   C     0.49534   0.52735   0.95764   0.00000  Uiso   1.00
C973   C     0.48737   0.56913   0.97339   0.00000  Uiso   1.00
C974   C     0.51352   0.50343   0.97796   0.00000  Uiso   1.00
C975   C     0.51272   0.51597   0.51780   0.00000  Uiso   1.00
C976   C     0.50085   0.55578   0.53421   0.00000  Uiso   1.00
C977   C     0.48988   0.58268   0.51243   0.00000  Uiso   1.00
H978   H     0.56643   0.41764   0.96204   0.00000  Uiso   1.00
H979   H     0.45824   0.66537   0.78419   0.00000  Uiso   1.00
H980   H     0.50318   0.52264   0.59772   0.00000  Uiso   1.00
H981   H     0.59290   0.40250   0.59295   0.00000  Uiso   1.00
H982   H     0.54283   0.37580   0.60000   0.00000  Uiso   1.00
H983   H     0.49952   0.65463   0.96807   0.00000  Uiso   1.00
H984   H     0.44437   0.64108   0.98534   0.00000  Uiso   1.00
H985   H     0.49585   0.63193   0.88202   0.00000  Uiso   1.00
H986   H     0.44133   0.62125   0.89860   0.00000  Uiso   1.00
H987   H     0.49695   0.45245   0.89388   0.00000  Uiso   1.00
H988   H     0.46139   0.45181   0.94002   0.00000  Uiso   1.00
H989   H     0.45467   0.61989   0.55666   0.00000  Uiso   1.00
H990   H     0.50241   0.56840   0.56347   0.00000  Uiso   1.00
H991   H     0.54402   0.46268   0.92681   0.00000  Uiso   1.00
H992   H     0.50743   0.63849   0.53994   0.00000  Uiso   1.00
H993   H     0.55344   0.36857   0.50764   0.00000  Uiso   1.00
H994   H     0.60370   0.39558   0.50093   0.00000  Uiso   1.00
H995   H     0.35010   0.52722   0.71517   0.00000  Uiso   1.00
H996   H     0.65140   0.47301   0.78473   0.00000  Uiso   1.00
H997   H     0.56889   0.36292   0.72098   0.00000  Uiso   1.00
H998   H     0.53848   0.35315   0.68854   0.00000  Uiso   1.00
N999   N     0.48042   0.62338   0.53127   0.00000  Uiso   1.00
N1000  N     0.57471   0.38718   0.52186   0.00000  Uiso   1.00
N1001  N     0.55053   0.33957   0.70743   0.00000  Uiso   1.00
N1002  N     0.55987   0.40522   0.60418   0.00000  Uiso   1.00
N1003  N     0.47176   0.63867   0.96134   0.00000  Uiso   1.00
N1004  N     0.47009   0.60802   0.88532   0.00000  Uiso   1.00
N1005  N     0.47163   0.46662   0.91416   0.00000  Uiso   1.00
O1006  O     0.50000   0.50000   0.75000   0.00000  Uiso   1.00
O1007  O     0.49027   0.45726   0.66625   0.00000  Uiso   1.00
O1008  O     0.46020   0.53979   0.83749   0.00000  Uiso   1.00
O1009  O     0.54421   0.50826   0.65877   0.00000  Uiso   1.00
O1010  O     0.50532   0.49468   0.83749   0.00000  Uiso   1.00
O1011  O     0.51182   0.41434   0.77821   0.00000  Uiso   1.00
O1012  O     0.47914   0.59469   0.76767   0.00000  Uiso   1.00
O1013  O     0.40785   0.46584   0.73607   0.00000  Uiso   1.00
O1014  O     0.60119   0.52512   0.71806   0.00000  Uiso   1.00
O1015  O     0.40323   0.52293   0.77820   0.00000  Uiso   1.00
O1016  O     0.58773   0.48610   0.76768   0.00000  Uiso   1.00
O1017  O     0.47133   0.40236   0.73607   0.00000  Uiso   1.00
O1018  O     0.53771   0.58860   0.71806   0.00000  Uiso   1.00
Zn1019 Zn    0.52577   0.47423   0.78278   0.00000  Uiso   1.00
Zn1020 Zn    0.46792   0.45711   0.72258   0.00000  Uiso   1.00
Zn1021 Zn    0.54500   0.52997   0.71188   0.00000  Uiso   1.00
Zn1022 Zn    0.46131   0.53868   0.78277   0.00000  Uiso   1.00
C1023  C     0.71916   0.49321   0.75868   0.00000  Uiso   1.00
C1024  C     0.86916   0.46925   0.95842   0.00000  Uiso   1.00
C1025  C     0.88368   0.44390   0.97878   0.00000  Uiso   1.00
C1026  C     0.94774   0.50692   0.74120   0.00000  Uiso   1.00
C1027  C     0.87720   0.45206   0.51960   0.00000  Uiso   1.00
C1028  C     0.85870   0.48882   0.53947   0.00000  Uiso   1.00
C1029  C     0.88915   0.42443   0.54096   0.00000  Uiso   1.00
C1030  C     0.88201   0.43309   0.58195   0.00000  Uiso   1.00
C1031  C     0.85236   0.49659   0.58051   0.00000  Uiso   1.00
C1032  C     0.99372   0.50968   0.73767   0.00000  Uiso   1.00
C1033  C     0.67378   0.49069   0.76202   0.00000  Uiso   1.00
C1034  C     0.80863   0.58006   0.91091   0.00000  Uiso   1.00
C1035  C     0.84803   0.65540   0.73736   0.00000  Uiso   1.00
C1036  C     0.81866   0.34540   0.76173   0.00000  Uiso   1.00
C1037  C     0.82220   0.38951   0.75921   0.00000  Uiso   1.00
C1038  C     0.84361   0.61100   0.74122   0.00000  Uiso   1.00
C1039  C     0.85488   0.47848   0.64399   0.00000  Uiso   1.00
C1040  C     0.81298   0.52191   0.85609   0.00000  Uiso   1.00
C1041  C     0.81166   0.53754   0.89747   0.00000  Uiso   1.00
C1042  C     0.86385   0.46930   0.60133   0.00000  Uiso   1.00
C1043  C     0.81086   0.59548   0.94921   0.00000  Uiso   1.00
C1044  C     0.81786   0.51060   0.92214   0.00000  Uiso   1.00
C1045  C     0.82868   0.52735   0.95764   0.00000  Uiso   1.00
C1046  C     0.82070   0.56913   0.97339   0.00000  Uiso   1.00
C1047  C     0.84685   0.50343   0.97796   0.00000  Uiso   1.00
C1048  C     0.84605   0.51597   0.51780   0.00000  Uiso   1.00
C1049  C     0.83419   0.55578   0.53421   0.00000  Uiso   1.00
C1050  C     0.82322   0.58268   0.51243   0.00000  Uiso   1.00
H1051  H     0.89976   0.41764   0.96204   0.00000  Uiso   1.00
H1052  H     0.79158   0.66537   0.78419   0.00000  Uiso   1.00
H1053  H     0.83651   0.52264   0.59772   0.00000  Uiso   1.00
H1054  H     0.92624   0.40250   0.59295   0.00000  Uiso   1.00
H1055  H     0.87616   0.37580   0.60000   0.00000  Uiso   1.00
H1056  H     0.83286   0.65463   0.96807   0.00000  Uiso   1.00
H1057  H     0.77770   0.64108   0.98534   0.00000  Uiso   1.00
H1058  H     0.82918   0.63193   0.88202   0.00000  Uiso   1.00
H1059  H     0.77466   0.62125   0.89860   0.00000  Uiso   1.00
H1060  H     0.83029   0.45245   0.89388   0.00000  Uiso   1.00
H1061  H     0.79473   0.45181   0.94002   0.00000  Uiso   1.00
H1062  H     0.78800   0.61989   0.55666   0.00000  Uiso   1.00
H1063  H     0.83574   0.56840   0.56347   0.00000  Uiso   1.00
H1064  H     0.87736   0.46268   0.92681   0.00000  Uiso   1.00
H1065  H     0.84077   0.63849   0.53994   0.00000  Uiso   1.00
H1066  H     0.88677   0.36857   0.50764   0.00000  Uiso   1.00
H1067  H     0.93704   0.39558   0.50093   0.00000  Uiso   1.00
H1068  H     0.68343   0.52722   0.71517   0.00000  Uiso   1.00
H1069  H     0.98473   0.47301   0.78473   0.00000  Uiso   1.00
H1070  H     0.90222   0.36292   0.72098   0.00000  Uiso   1.00
H1071  H     0.87181   0.35315   0.68854   0.00000  Uiso   1.00
N1072  N     0.81376   0.62338   0.53127   0.00000  Uiso   1.00
N1073  N     0.90804   0.38718   0.52186   0.00000  Uiso   1.00
N1074  N     0.88387   0.33957   0.70743   0.00000  Uiso   1.00
N1075  N     0.89320   0.40522   0.60418   0.00000  Uiso   1.00
N1076  N     0.80509   0.63867   0.96134   0.00000  Uiso   1.00
N1077  N     0.80343   0.60802   0.88532   0.00000  Uiso   1.00
N1078  N     0.80496   0.46662   0.91416   0.00000  Uiso   1.00
O1079  O     0.83333   0.50000   0.75000   0.00000  Uiso   1.00
O1080  O     0.82360   0.45726   0.66625   0.00000  Uiso   1.00
O1081  O     0.79354   0.53979   0.83749   0.00000  Uiso   1.00
O1082  O     0.87755   0.50826   0.65877   0.00000  Uiso   1.00
O1083  O     0.83865   0.49468   0.83749   0.00000  Uiso   1.00
O1084  O     0.84515   0.41434   0.77821   0.00000  Uiso   1.00
O1085  O     0.81247   0.59469   0.76767   0.00000  Uiso   1.00
O1086  O     0.74119   0.46584   0.73607   0.00000  Uiso   1.00
O1087  O     0.93452   0.52512   0.71806   0.00000  Uiso   1.00
O1088  O     0.73656   0.52293   0.77820   0.00000  Uiso   1.00
O1089  O     0.92106   0.48610   0.76768   0.00000  Uiso   1.00
O1090  O     0.80467   0.40236   0.73607   0.00000  Uiso   1.00
O1091  O     0.87104   0.58860   0.71806   0.00000  Uiso   1.00
Zn1092 Zn    0.85910   0.47423   0.78278   0.00000  Uiso   1.00
Zn1093 Zn    0.80125   0.45711   0.72258   0.00000  Uiso   1.00
Zn1094 Zn    0.87833   0.52997   0.71188   0.00000  Uiso   1.00
Zn1095 Zn    0.79465   0.53868   0.78277   0.00000  Uiso   1.00
C1096  C     0.05249   0.82655   0.75868   0.00000  Uiso   1.00
C1097  C     0.20249   0.80258   0.95842   0.00000  Uiso   1.00
C1098  C     0.21702   0.77723   0.97878   0.00000  Uiso   1.00
C1099  C     0.28107   0.84025   0.74120   0.00000  Uiso   1.00
C1100  C     0.21053   0.78540   0.51960   0.00000  Uiso   1.00
C1101  C     0.19203   0.82215   0.53947   0.00000  Uiso   1.00
C1102  C     0.22249   0.75776   0.54096   0.00000  Uiso   1.00
C1103  C     0.21534   0.76642   0.58195   0.00000  Uiso   1.00
C1104  C     0.18569   0.82993   0.58051   0.00000  Uiso   1.00
C1105  C     0.32705   0.84302   0.73767   0.00000  Uiso   1.00
C1106  C     0.00712   0.82403   0.76202   0.00000  Uiso   1.00
C1107  C     0.14196   0.91339   0.91091   0.00000  Uiso   1.00
C1108  C     0.18136   0.98873   0.73736   0.00000  Uiso   1.00
C1109  C     0.15199   0.67873   0.76173   0.00000  Uiso   1.00
C1110  C     0.15553   0.72284   0.75921   0.00000  Uiso   1.00
C1111  C     0.17694   0.94433   0.74122   0.00000  Uiso   1.00
C1112  C     0.18822   0.81181   0.64399   0.00000  Uiso   1.00
C1113  C     0.14631   0.85525   0.85609   0.00000  Uiso   1.00
C1114  C     0.14499   0.87087   0.89747   0.00000  Uiso   1.00
C1115  C     0.19718   0.80263   0.60133   0.00000  Uiso   1.00
C1116  C     0.14419   0.92882   0.94921   0.00000  Uiso   1.00
C1117  C     0.15119   0.84394   0.92214   0.00000  Uiso   1.00
C1118  C     0.16201   0.86068   0.95764   0.00000  Uiso   1.00
C1119  C     0.15404   0.90246   0.97339   0.00000  Uiso   1.00
C1120  C     0.18018   0.83677   0.97796   0.00000  Uiso   1.00
C1121  C     0.17939   0.84930   0.51780   0.00000  Uiso   1.00
C1122  C     0.16752   0.88912   0.53421   0.00000  Uiso   1.00
C1123  C     0.15655   0.91601   0.51243   0.00000  Uiso   1.00
H1124  H     0.23310   0.75097   0.96204   0.00000  Uiso   1.00
H1125  H     0.12491   0.99870   0.78419   0.00000  Uiso   1.00
H1126  H     0.16985   0.85597   0.59772   0.00000  Uiso   1.00
H1127  H     0.25957   0.73583   0.59295   0.00000  Uiso   1.00
H1128  H     0.20950   0.70914   0.60000   0.00000  Uiso   1.00
H1129  H     0.16619   0.98797   0.96807   0.00000  Uiso   1.00
H1130  H     0.11103   0.97441   0.98534   0.00000  Uiso   1.00
H1131  H     0.16252   0.96526   0.88202   0.00000  Uiso   1.00
H1132  H     0.10799   0.95459   0.89860   0.00000  Uiso   1.00
H1133  H     0.16362   0.78578   0.89388   0.00000  Uiso   1.00
H1134  H     0.12806   0.78514   0.94002   0.00000  Uiso   1.00
H1135  H     0.12134   0.95322   0.55666   0.00000  Uiso   1.00
H1136  H     0.16907   0.90173   0.56347   0.00000  Uiso   1.00
H1137  H     0.21069   0.79601   0.92681   0.00000  Uiso   1.00
H1138  H     0.17410   0.97183   0.53994   0.00000  Uiso   1.00
H1139  H     0.22010   0.70190   0.50764   0.00000  Uiso   1.00
H1140  H     0.27037   0.72892   0.50093   0.00000  Uiso   1.00
H1141  H     0.01677   0.86055   0.71517   0.00000  Uiso   1.00
H1142  H     0.31806   0.80635   0.78473   0.00000  Uiso   1.00
H1143  H     0.23556   0.69625   0.72098   0.00000  Uiso   1.00
H1144  H     0.20514   0.68648   0.68854   0.00000  Uiso   1.00
N1145  N     0.14709   0.95672   0.53127   0.00000  Uiso   1.00
N1146  N     0.24137   0.72051   0.52186   0.00000  Uiso   1.00
N1147  N     0.21720   0.67290   0.70743   0.00000  Uiso   1.00
N1148  N     0.22654   0.73855   0.60418   0.00000  Uiso   1.00
N1149  N     0.13842   0.97201   0.96134   0.00000  Uiso   1.00
N1150  N     0.13676   0.94136   0.88532   0.00000  Uiso   1.00
N1151  N     0.13829   0.79995   0.91416   0.00000  Uiso   1.00
O1152  O     0.16667   0.83333   0.75000   0.00000  Uiso   1.00
O1153  O     0.15693   0.79060   0.66625   0.00000  Uiso   1.00
O1154  O     0.12687   0.87313   0.83749   0.00000  Uiso   1.00
O1155  O     0.21088   0.84159   0.65877   0.00000  Uiso   1.00
O1156  O     0.17198   0.82802   0.83749   0.00000  Uiso   1.00
O1157  O     0.17849   0.74768   0.77821   0.00000  Uiso   1.00
O1158  O     0.14581   0.92803   0.76767   0.00000  Uiso   1.00
O1159  O     0.07452   0.79917   0.73607   0.00000  Uiso   1.00
O1160  O     0.26785   0.85845   0.71806   0.00000  Uiso   1.00
O1161  O     0.06990   0.85627   0.77820   0.00000  Uiso   1.00
O1162  O     0.25440   0.81944   0.76768   0.00000  Uiso   1.00
O1163  O     0.13800   0.73570   0.73607   0.00000  Uiso   1.00
O1164  O     0.20437   0.92193   0.71806   0.00000  Uiso   1.00
Zn1165 Zn    0.19244   0.80756   0.78278   0.00000  Uiso   1.00
Zn1166 Zn    0.13459   0.79044   0.72258   0.00000  Uiso   1.00
Zn1167 Zn    0.21166   0.86331   0.71188   0.00000  Uiso   1.00
Zn1168 Zn    0.12798   0.87202   0.78277   0.00000  Uiso   1.00
C1169  C     0.38583   0.82655   0.75868   0.00000  Uiso   1.00
C1170  C     0.53582   0.80258   0.95842   0.00000  Uiso   1.00
C1171  C     0.55035   0.77723   0.97878   0.00000  Uiso   1.00
C1172  C     0.61440   0.84025   0.74120   0.00000  Uiso   1.00
C1173  C     0.54386   0.78540   0.51960   0.00000  Uiso   1.00
C1174  C     0.52537   0.82215   0.53947   0.00000  Uiso   1.00
C1175  C     0.55582   0.75776   0.54096   0.00000  Uiso   1.00
C1176  C     0.54867   0.76642   0.58195   0.00000  Uiso   1.00
C1177  C     0.51903   0.82993   0.58051   0.00000  Uiso   1.00
C1178  C     0.66038   0.84302   0.73767   0.00000  Uiso   1.00
C1179  C     0.34045   0.82403   0.76202   0.00000  Uiso   1.00
C1180  C     0.47529   0.91339   0.91091   0.00000  Uiso   1.00
C1181  C     0.51470   0.98873   0.73736   0.00000  Uiso   1.00
C1182  C     0.48533   0.67873   0.76173   0.00000  Uiso   1.00
C1183  C     0.48886   0.72284   0.75921   0.00000  Uiso   1.00
C1184  C     0.51028   0.94433   0.74122   0.00000  Uiso   1.00
C1185  C     0.52155   0.81181   0.64399   0.00000  Uiso   1.00
C1186  C     0.47964   0.85525   0.85609   0.00000  Uiso   1.00
C1187  C     0.47833   0.87087   0.89747   0.00000  Uiso   1.00
C1188  C     0.53052   0.80263   0.60133   0.00000  Uiso   1.00
C1189  C     0.47752   0.92882   0.94921   0.00000  Uiso   1.00
C1190  C     0.48452   0.84394   0.92214   0.00000  Uiso   1.00
C1191  C     0.49534   0.86068   0.95764   0.00000  Uiso   1.00
C1192  C     0.48737   0.90246   0.97339   0.00000  Uiso   1.00
C1193  C     0.51352   0.83677   0.97796   0.00000  Uiso   1.00
C1194  C     0.51272   0.84930   0.51780   0.00000  Uiso   1.00
C1195  C     0.50085   0.88912   0.53421   0.00000  Uiso   1.00
C1196  C     0.48988   0.91601   0.51243   0.00000  Uiso   1.00
H1197  H     0.56643   0.75097   0.96204   0.00000  Uiso   1.00
H1198  H     0.45824   0.99870   0.78419   0.00000  Uiso   1.00
H1199  H     0.50318   0.85597   0.59772   0.00000  Uiso   1.00
H1200  H     0.59290   0.73583   0.59295   0.00000  Uiso   1.00
H1201  H     0.54283   0.70914   0.60000   0.00000  Uiso   1.00
H1202  H     0.49952   0.98797   0.96807   0.00000  Uiso   1.00
H1203  H     0.44437   0.97441   0.98534   0.00000  Uiso   1.00
H1204  H     0.49585   0.96526   0.88202   0.00000  Uiso   1.00
H1205  H     0.44133   0.95459   0.89860   0.00000  Uiso   1.00
H1206  H     0.49695   0.78578   0.89388   0.00000  Uiso   1.00
H1207  H     0.46139   0.78514   0.94002   0.00000  Uiso   1.00
H1208  H     0.45467   0.95322   0.55666   0.00000  Uiso   1.00
H1209  H     0.50241   0.90173   0.56347   0.00000  Uiso   1.00
H1210  H     0.54402   0.79601   0.92681   0.00000  Uiso   1.00
H1211  H     0.50743   0.97183   0.53994   0.00000  Uiso   1.00
H1212  H     0.55344   0.70190   0.50764   0.00000  Uiso   1.00
H1213  H     0.60370   0.72892   0.50093   0.00000  Uiso   1.00
H1214  H     0.35010   0.86055   0.71517   0.00000  Uiso   1.00
H1215  H     0.65140   0.80635   0.78473   0.00000  Uiso   1.00
H1216  H     0.56889   0.69625   0.72098   0.00000  Uiso   1.00
H1217  H     0.53848   0.68648   0.68854   0.00000  Uiso   1.00
N1218  N     0.48042   0.95672   0.53127   0.00000  Uiso   1.00
N1219  N     0.57471   0.72051   0.52186   0.00000  Uiso   1.00
N1220  N     0.55053   0.67290   0.70743   0.00000  Uiso   1.00
N1221  N     0.55987   0.73855   0.60418   0.00000  Uiso   1.00
N1222  N     0.47176   0.97201   0.96134   0.00000  Uiso   1.00
N1223  N     0.47009   0.94136   0.88532   0.00000  Uiso   1.00
N1224  N     0.47163   0.79995   0.91416   0.00000  Uiso   1.00
O1225  O     0.50000   0.83333   0.75000   0.00000  Uiso   1.00
O1226  O     0.49027   0.79060   0.66625   0.00000  Uiso   1.00
O1227  O     0.46020   0.87313   0.83749   0.00000  Uiso   1.00
O1228  O     0.54421   0.84159   0.65877   0.00000  Uiso   1.00
O1229  O     0.50532   0.82802   0.83749   0.00000  Uiso   1.00
O1230  O     0.51182   0.74768   0.77821   0.00000  Uiso   1.00
O1231  O     0.47914   0.92803   0.76767   0.00000  Uiso   1.00
O1232  O     0.40785   0.79917   0.73607   0.00000  Uiso   1.00
O1233  O     0.60119   0.85845   0.71806   0.00000  Uiso   1.00
O1234  O     0.40323   0.85627   0.77820   0.00000  Uiso   1.00
O1235  O     0.58773   0.81944   0.76768   0.00000  Uiso   1.00
O1236  O     0.47133   0.73570   0.73607   0.00000  Uiso   1.00
O1237  O     0.53771   0.92193   0.71806   0.00000  Uiso   1.00
Zn1238 Zn    0.52577   0.80756   0.78278   0.00000  Uiso   1.00
Zn1239 Zn    0.46792   0.79044   0.72258   0.00000  Uiso   1.00
Zn1240 Zn    0.54500   0.86331   0.71188   0.00000  Uiso   1.00
Zn1241 Zn    0.46131   0.87202   0.78277   0.00000  Uiso   1.00
C1242  C     0.71916   0.82655   0.75868   0.00000  Uiso   1.00
C1243  C     0.86916   0.80258   0.95842   0.00000  Uiso   1.00
C1244  C     0.88368   0.77723   0.97878   0.00000  Uiso   1.00
C1245  C     0.94774   0.84025   0.74120   0.00000  Uiso   1.00
C1246  C     0.87720   0.78540   0.51960   0.00000  Uiso   1.00
C1247  C     0.85870   0.82215   0.53947   0.00000  Uiso   1.00
C1248  C     0.88915   0.75776   0.54096   0.00000  Uiso   1.00
C1249  C     0.88201   0.76642   0.58195   0.00000  Uiso   1.00
C1250  C     0.85236   0.82993   0.58051   0.00000  Uiso   1.00
C1251  C     0.99372   0.84302   0.73767   0.00000  Uiso   1.00
C1252  C     0.67378   0.82403   0.76202   0.00000  Uiso   1.00
C1253  C     0.80863   0.91339   0.91091   0.00000  Uiso   1.00
C1254  C     0.84803   0.98873   0.73736   0.00000  Uiso   1.00
C1255  C     0.81866   0.67873   0.76173   0.00000  Uiso   1.00
C1256  C     0.82220   0.72284   0.75921   0.00000  Uiso   1.00
C1257  C     0.84361   0.94433   0.74122   0.00000  Uiso   1.00
C1258  C     0.85488   0.81181   0.64399   0.00000  Uiso   1.00
C1259  C     0.81298   0.85525   0.85609   0.00000  Uiso   1.00
C1260  C     0.81166   0.87087   0.89747   0.00000  Uiso   1.00
C1261  C     0.86385   0.80263   0.60133   0.00000  Uiso   1.00
C1262  C     0.81086   0.92882   0.94921   0.00000  Uiso   1.00
C1263  C     0.81786   0.84394   0.92214   0.00000  Uiso   1.00
C1264  C     0.82868   0.86068   0.95764   0.00000  Uiso   1.00
C1265  C     0.82070   0.90246   0.97339   0.00000  Uiso   1.00
C1266  C     0.84685   0.83677   0.97796   0.00000  Uiso   1.00
C1267  C     0.84605   0.84930   0.51780   0.00000  Uiso   1.00
C1268  C     0.83419   0.88912   0.53421   0.00000  Uiso   1.00
C1269  C     0.82322   0.91601   0.51243   0.00000  Uiso   1.00
H1270  H     0.89976   0.75097   0.96204   0.00000  Uiso   1.00
H1271  H     0.79158   0.99870   0.78419   0.00000  Uiso   1.00
H1272  H     0.83651   0.85597   0.59772   0.00000  Uiso   1.00
H1273  H     0.92624   0.73583   0.59295   0.00000  Uiso   1.00
H1274  H     0.87616   0.70914   0.60000   0.00000  Uiso   1.00
H1275  H     0.83286   0.98797   0.96807   0.00000  Uiso   1.00
H1276  H     0.77770   0.97441   0.98534   0.00000  Uiso   1.00
H1277  H     0.82918   0.96526   0.88202   0.00000  Uiso   1.00
H1278  H     0.77466   0.95459   0.89860   0.00000  Uiso   1.00
H1279  H     0.83029   0.78578   0.89388   0.00000  Uiso   1.00
H1280  H     0.79473   0.78514   0.94002   0.00000  Uiso   1.00
H1281  H     0.78800   0.95322   0.55666   0.00000  Uiso   1.00
H1282  H     0.83574   0.90173   0.56347   0.00000  Uiso   1.00
H1283  H     0.87736   0.79601   0.92681   0.00000  Uiso   1.00
H1284  H     0.84077   0.97183   0.53994   0.00000  Uiso   1.00
H1285  H     0.88677   0.70190   0.50764   0.00000  Uiso   1.00
H1286  H     0.93704   0.72892   0.50093   0.00000  Uiso   1.00
H1287  H     0.68343   0.86055   0.71517   0.00000  Uiso   1.00
H1288  H     0.98473   0.80635   0.78473   0.00000  Uiso   1.00
H1289  H     0.90222   0.69625   0.72098   0.00000  Uiso   1.00
H1290  H     0.87181   0.68648   0.68854   0.00000  Uiso   1.00
N1291  N     0.81376   0.95672   0.53127   0.00000  Uiso   1.00
N1292  N     0.90804   0.72051   0.52186   0.00000  Uiso   1.00
N1293  N     0.88387   0.67290   0.70743   0.00000  Uiso   1.00
N1294  N     0.89320   0.73855   0.60418   0.00000  Uiso   1.00
N1295  N     0.80509   0.97201   0.96134   0.00000  Uiso   1.00
N1296  N     0.80343   0.94136   0.88532   0.00000  Uiso   1.00
N1297  N     0.80496   0.79995   0.91416   0.00000  Uiso   1.00
O1298  O     0.83333   0.83333   0.75000   0.00000  Uiso   1.00
O1299  O     0.82360   0.79060   0.66625   0.00000  Uiso   1.00
O1300  O     0.79354   0.87313   0.83749   0.00000  Uiso   1.00
O1301  O     0.87755   0.84159   0.65877   0.00000  Uiso   1.00
O1302  O     0.83865   0.82802   0.83749   0.00000  Uiso   1.00
O1303  O     0.84515   0.74768   0.77821   0.00000  Uiso   1.00
O1304  O     0.81247   0.92803   0.76767   0.00000  Uiso   1.00
O1305  O     0.74119   0.79917   0.73607   0.00000  Uiso   1.00
O1306  O     0.93452   0.85845   0.71806   0.00000  Uiso   1.00
O1307  O     0.73656   0.85627   0.77820   0.00000  Uiso   1.00
O1308  O     0.92106   0.81944   0.76768   0.00000  Uiso   1.00
O1309  O     0.80467   0.73570   0.73607   0.00000  Uiso   1.00
O1310  O     0.87104   0.92193   0.71806   0.00000  Uiso   1.00
Zn1311 Zn    0.85910   0.80756   0.78278   0.00000  Uiso   1.00
Zn1312 Zn    0.80125   0.79044   0.72258   0.00000  Uiso   1.00
Zn1313 Zn    0.87833   0.86331   0.71188   0.00000  Uiso   1.00
Zn1314 Zn    0.79465   0.87202   0.78277   0.00000  Uiso   1.00
loop_
_geom_bond_atom_site_label_1
_geom_bond_atom_site_label_2
_geom_bond_distance
_geom_bond_site_symmetry_2
_ccdc_geom_bond_type
C1     C11     1.438   .     S
C1     O64     1.270   .     A
C1     O66     1.270   .     A
C2     C3      1.386   .     A
C2     H42     1.077   .     S
C2     C25     1.408   .     A
C3     H29     1.082   .     S
C3     C662    1.400   .     S
C4     O67     1.277   .     A
C4     C10     1.455   .     S
C4     O65     1.281   .     A
C5     C7      1.420   .     A
C5     C6      1.424   .     A
C5     C660    1.400   1_554 S
C6     C9      1.408   .     A
C6     C26     1.427   .     A
C7     N51     1.435   .     S
C7     C8      1.405   .     A
C8     N53     1.435   .     S
C8     C20     1.400   .     A
C9     C20     1.390   .     A
C9     H31     1.078   .     S
C10    C84     1.335   .     S
C10    H119    1.088   .     S
C11    C156    1.335   1_455 S
C11    H193    1.086   1_455 S
C12    N55     1.436   .     S
C12    C19     1.408   .     A
C12    C21     1.404   .     A
C13    C16     1.454   .     S
C13    C233    1.340   .     S
C13    N271    1.439   .     S
C14    C15     1.437   .     S
C14    C451    1.340   1_545 S
C14    H468    1.086   1_545 S
C15    O68     1.275   .     A
C15    O62     1.275   .     A
C16    O63     1.273   .     A
C16    O69     1.268   .     A
C17    O58     1.272   .     A
C17    C20     1.458   .     S
C17    O60     1.275   .     A
C18    O59     1.283   .     A
C18    O61     1.288   .     A
C18    C19     1.480   .     S
C19    C22     1.400   .     A
C21    C24     1.428   .     A
C21    N54     1.435   .     S
C22    N56     1.442   .     S
C22    C23     1.423   .     A
C23    C24     1.428   .     A
C23    C25     1.425   .     A
C24    C685    1.420   .     S
C25    C683    1.414   .     S
C26    C27     1.406   .     A
C26    C682    1.414   1_554 S
C27    C28     1.395   .     A
C27    H41     1.077   .     S
C28    N50     1.433   .     S
C28    C681    1.420   1_554 S
H30    C233    1.086   .     S
H32    N53     1.046   .     S
H33    N53     1.046   .     S
H34    N54     1.045   .     S
H35    N54     1.045   .     S
H36    N55     1.046   .     S
H37    N55     1.046   .     S
H38    N56     1.044   .     S
H39    N56     1.045   .     S
H40    N50     1.046   .     S
H43    N50     1.046   .     S
H44    N51     1.045   .     S
H45    N51     1.045   .     S
H46    C156    1.088   1_455 S
H47    C84     1.086   .     S
H48    N52     1.046   .     S
H49    N52     1.046   .     S
N52    C451    1.439   1_545 S
O57    Zn70    1.959   .     S
O57    Zn71    1.938   .     S
O57    Zn72    1.932   .     S
O57    Zn73    1.935   .     S
O58    Zn71    1.927   .     S
O59    Zn73    1.935   .     S
O60    Zn72    1.930   .     S
O61    Zn70    1.923   .     S
O62    Zn70    1.929   .     S
O63    Zn73    1.932   .     S
O64    Zn71    1.928   .     S
O65    Zn72    1.937   .     S
O66    Zn73    1.930   .     S
O67    Zn70    1.923   .     S
O68    Zn71    1.939   .     S
O69    Zn72    1.934   .     S
C74    C84     1.438   .     S
C74    O137    1.270   .     A
C74    O139    1.270   .     A
C75    C76     1.386   .     A
C75    H115    1.077   .     S
C75    C98     1.408   .     A
C76    H102    1.082   .     S
C76    C735    1.400   .     S
C77    O140    1.277   .     A
C77    C83     1.455   .     S
C77    O138    1.281   .     A
C78    C80     1.420   .     A
C78    C79     1.424   .     A
C78    C733    1.400   1_554 S
C79    C82     1.408   .     A
C79    C99     1.427   .     A
C80    N124    1.435   .     S
C80    C81     1.405   .     A
C81    N126    1.435   .     S
C81    C93     1.400   .     A
C82    C93     1.390   .     A
C82    H104    1.078   .     S
C83    C157    1.335   .     S
C83    H192    1.088   .     S
C85    N128    1.436   .     S
C85    C92     1.408   .     A
C85    C94     1.404   .     A
C86    C89     1.454   .     S
C86    C306    1.340   .     S
C86    N344    1.439   .     S
C87    C88     1.437   .     S
C87    C524    1.340   1_545 S
C87    H541    1.086   1_545 S
C88    O141    1.275   .     A
C88    O135    1.275   .     A
C89    O136    1.273   .     A
C89    O142    1.268   .     A
C90    O131    1.272   .     A
C90    C93     1.458   .     S
C90    O133    1.275   .     A
C91    O132    1.283   .     A
C91    O134    1.288   .     A
C91    C92     1.480   .     S
C92    C95     1.400   .     A
C94    C97     1.428   .     A
C94    N127    1.435   .     S
C95    N129    1.442   .     S
C95    C96     1.423   .     A
C96    C97     1.428   .     A
C96    C98     1.425   .     A
C97    C758    1.420   .     S
C98    C756    1.414   .     S
C99    C100    1.406   .     A
C99    C755    1.414   1_554 S
C100   C101    1.395   .     A
C100   H114    1.077   .     S
C101   N123    1.433   .     S
C101   C754    1.420   1_554 S
H103   C306    1.086   .     S
H105   N126    1.046   .     S
H106   N126    1.046   .     S
H107   N127    1.045   .     S
H108   N127    1.045   .     S
H109   N128    1.046   .     S
H110   N128    1.046   .     S
H111   N129    1.044   .     S
H112   N129    1.045   .     S
H113   N123    1.046   .     S
H116   N123    1.046   .     S
H117   N124    1.045   .     S
H118   N124    1.045   .     S
H120   C157    1.086   .     S
H121   N125    1.046   .     S
H122   N125    1.046   .     S
N125   C524    1.439   1_545 S
O130   Zn143   1.959   .     S
O130   Zn144   1.938   .     S
O130   Zn145   1.932   .     S
O130   Zn146   1.935   .     S
O131   Zn144   1.927   .     S
O132   Zn146   1.935   .     S
O133   Zn145   1.930   .     S
O134   Zn143   1.923   .     S
O135   Zn143   1.929   .     S
O136   Zn146   1.932   .     S
O137   Zn144   1.928   .     S
O138   Zn145   1.937   .     S
O139   Zn146   1.930   .     S
O140   Zn143   1.923   .     S
O141   Zn144   1.939   .     S
O142   Zn145   1.934   .     S
C147   C157    1.438   .     S
C147   O210    1.270   .     A
C147   O212    1.270   .     A
C148   C149    1.386   .     A
C148   H188    1.077   .     S
C148   C171    1.408   .     A
C149   H175    1.082   .     S
C149   C808    1.400   .     S
C150   O213    1.277   .     A
C150   C156    1.455   .     S
C150   O211    1.281   .     A
C151   C153    1.420   .     A
C151   C152    1.424   .     A
C151   C806    1.400   1_554 S
C152   C155    1.408   .     A
C152   C172    1.427   .     A
C153   N197    1.435   .     S
C153   C154    1.405   .     A
C154   N199    1.435   .     S
C154   C166    1.400   .     A
C155   C166    1.390   .     A
C155   H177    1.078   .     S
C156   C11     1.335   1_655 S
C156   H46     1.088   1_655 S
C158   N201    1.436   .     S
C158   C165    1.408   .     A
C158   C167    1.404   .     A
C159   C162    1.454   .     S
C159   C379    1.340   .     S
C159   N417    1.439   .     S
C160   C161    1.437   .     S
C160   C597    1.340   1_545 S
C160   H614    1.086   1_545 S
C161   O214    1.275   .     A
C161   O208    1.275   .     A
C162   O209    1.273   .     A
C162   O215    1.268   .     A
C163   O204    1.272   .     A
C163   C166    1.458   .     S
C163   O206    1.275   .     A
C164   O205    1.283   .     A
C164   O207    1.288   .     A
C164   C165    1.480   .     S
C165   C168    1.400   .     A
C167   C170    1.428   .     A
C167   N200    1.435   .     S
C168   N202    1.442   .     S
C168   C169    1.423   .     A
C169   C170    1.428   .     A
C169   C171    1.425   .     A
C170   C831    1.420   .     S
C171   C829    1.414   .     S
C172   C173    1.406   .     A
C172   C828    1.414   1_554 S
C173   C174    1.395   .     A
C173   H187    1.077   .     S
C174   N196    1.433   .     S
C174   C827    1.420   1_554 S
H176   C379    1.086   .     S
H178   N199    1.046   .     S
H179   N199    1.046   .     S
H180   N200    1.045   .     S
H181   N200    1.045   .     S
H182   N201    1.046   .     S
H183   N201    1.046   .     S
H184   N202    1.044   .     S
H185   N202    1.045   .     S
H186   N196    1.046   .     S
H189   N196    1.046   .     S
H190   N197    1.045   .     S
H191   N197    1.045   .     S
H193   C11     1.086   1_655 S
H194   N198    1.046   .     S
H195   N198    1.046   .     S
N198   C597    1.439   1_545 S
O203   Zn216   1.959   .     S
O203   Zn217   1.938   .     S
O203   Zn218   1.932   .     S
O203   Zn219   1.935   .     S
O204   Zn217   1.927   .     S
O205   Zn219   1.935   .     S
O206   Zn218   1.930   .     S
O207   Zn216   1.923   .     S
O208   Zn216   1.929   .     S
O209   Zn219   1.932   .     S
O210   Zn217   1.928   .     S
O211   Zn218   1.937   .     S
O212   Zn219   1.930   .     S
O213   Zn216   1.923   .     S
O214   Zn217   1.939   .     S
O215   Zn218   1.934   .     S
C220   C230    1.438   .     S
C220   O283    1.270   .     A
C220   O285    1.270   .     A
C221   C222    1.386   .     A
C221   H261    1.077   .     S
C221   C244    1.408   .     A
C222   H248    1.082   .     S
C222   C881    1.400   .     S
C223   O286    1.277   .     A
C223   C229    1.455   .     S
C223   O284    1.281   .     A
C224   C226    1.420   .     A
C224   C225    1.424   .     A
C224   C879    1.400   1_554 S
C225   C228    1.408   .     A
C225   C245    1.427   .     A
C226   N270    1.435   .     S
C226   C227    1.405   .     A
C227   N272    1.435   .     S
C227   C239    1.400   .     A
C228   C239    1.390   .     A
C228   H250    1.078   .     S
C229   C303    1.335   .     S
C229   H338    1.088   .     S
C230   C375    1.335   1_455 S
C230   H412    1.086   1_455 S
C231   N274    1.436   .     S
C231   C238    1.408   .     A
C231   C240    1.404   .     A
C232   C235    1.454   .     S
C232   C452    1.340   .     S
C232   N490    1.439   .     S
C233   C234    1.437   .     S
C234   O287    1.275   .     A
C234   O281    1.275   .     A
C235   O282    1.273   .     A
C235   O288    1.268   .     A
C236   O277    1.272   .     A
C236   C239    1.458   .     S
C236   O279    1.275   .     A
C237   O278    1.283   .     A
C237   O280    1.288   .     A
C237   C238    1.480   .     S
C238   C241    1.400   .     A
C240   C243    1.428   .     A
C240   N273    1.435   .     S
C241   N275    1.442   .     S
C241   C242    1.423   .     A
C242   C243    1.428   .     A
C242   C244    1.425   .     A
C243   C904    1.420   .     S
C244   C902    1.414   .     S
C245   C246    1.406   .     A
C245   C901    1.414   1_554 S
C246   C247    1.395   .     A
C246   H260    1.077   .     S
C247   N269    1.433   .     S
C247   C900    1.420   1_554 S
H249   C452    1.086   .     S
H251   N272    1.046   .     S
H252   N272    1.046   .     S
H253   N273    1.045   .     S
H254   N273    1.045   .     S
H255   N274    1.046   .     S
H256   N274    1.046   .     S
H257   N275    1.044   .     S
H258   N275    1.045   .     S
H259   N269    1.046   .     S
H262   N269    1.046   .     S
H263   N270    1.045   .     S
H264   N270    1.045   .     S
H265   C375    1.088   1_455 S
H266   C303    1.086   .     S
H267   N271    1.046   .     S
H268   N271    1.046   .     S
O276   Zn289   1.959   .     S
O276   Zn290   1.938   .     S
O276   Zn291   1.932   .     S
O276   Zn292   1.935   .     S
O277   Zn290   1.927   .     S
O278   Zn292   1.935   .     S
O279   Zn291   1.930   .     S
O280   Zn289   1.923   .     S
O281   Zn289   1.929   .     S
O282   Zn292   1.932   .     S
O283   Zn290   1.928   .     S
O284   Zn291   1.937   .     S
O285   Zn292   1.930   .     S
O286   Zn289   1.923   .     S
O287   Zn290   1.939   .     S
O288   Zn291   1.934   .     S
C293   C303    1.438   .     S
C293   O356    1.270   .     A
C293   O358    1.270   .     A
C294   C295    1.386   .     A
C294   H334    1.077   .     S
C294   C317    1.408   .     A
C295   H321    1.082   .     S
C295   C954    1.400   .     S
C296   O359    1.277   .     A
C296   C302    1.455   .     S
C296   O357    1.281   .     A
C297   C299    1.420   .     A
C297   C298    1.424   .     A
C297   C952    1.400   1_554 S
C298   C301    1.408   .     A
C298   C318    1.427   .     A
C299   N343    1.435   .     S
C299   C300    1.405   .     A
C300   N345    1.435   .     S
C300   C312    1.400   .     A
C301   C312    1.390   .     A
C301   H323    1.078   .     S
C302   C376    1.335   .     S
C302   H411    1.088   .     S
C304   N347    1.436   .     S
C304   C311    1.408   .     A
C304   C313    1.404   .     A
C305   C308    1.454   .     S
C305   C525    1.340   .     S
C305   N563    1.439   .     S
C306   C307    1.437   .     S
C307   O360    1.275   .     A
C307   O354    1.275   .     A
C308   O355    1.273   .     A
C308   O361    1.268   .     A
C309   O350    1.272   .     A
C309   C312    1.458   .     S
C309   O352    1.275   .     A
C310   O351    1.283   .     A
C310   O353    1.288   .     A
C310   C311    1.480   .     S
C311   C314    1.400   .     A
C313   C316    1.428   .     A
C313   N346    1.435   .     S
C314   N348    1.442   .     S
C314   C315    1.423   .     A
C315   C316    1.428   .     A
C315   C317    1.425   .     A
C316   C977    1.420   .     S
C317   C975    1.414   .     S
C318   C319    1.406   .     A
C318   C974    1.414   1_554 S
C319   C320    1.395   .     A
C319   H333    1.077   .     S
C320   N342    1.433   .     S
C320   C973    1.420   1_554 S
H322   C525    1.086   .     S
H324   N345    1.046   .     S
H325   N345    1.046   .     S
H326   N346    1.045   .     S
H327   N346    1.045   .     S
H328   N347    1.046   .     S
H329   N347    1.046   .     S
H330   N348    1.044   .     S
H331   N348    1.045   .     S
H332   N342    1.046   .     S
H335   N342    1.046   .     S
H336   N343    1.045   .     S
H337   N343    1.045   .     S
H339   C376    1.086   .     S
H340   N344    1.046   .     S
H341   N344    1.046   .     S
O349   Zn362   1.959   .     S
O349   Zn363   1.938   .     S
O349   Zn364   1.932   .     S
O349   Zn365   1.935   .     S
O350   Zn363   1.927   .     S
O351   Zn365   1.935   .     S
O352   Zn364   1.930   .     S
O353   Zn362   1.923   .     S
O354   Zn362   1.929   .     S
O355   Zn365   1.932   .     S
O356   Zn363   1.928   .     S
O357   Zn364   1.937   .     S
O358   Zn365   1.930   .     S
O359   Zn362   1.923   .     S
O360   Zn363   1.939   .     S
O361   Zn364   1.934   .     S
C366   C376    1.438   .     S
C366   O429    1.270   .     A
C366   O431    1.270   .     A
C367   C368    1.386   .     A
C367   H407    1.077   .     S
C367   C390    1.408   .     A
C368   H394    1.082   .     S
C368   C1027   1.400   .     S
C369   O432    1.277   .     A
C369   C375    1.455   .     S
C369   O430    1.281   .     A
C370   C372    1.420   .     A
C370   C371    1.424   .     A
C370   C1025   1.400   1_554 S
C371   C374    1.408   .     A
C371   C391    1.427   .     A
C372   N416    1.435   .     S
C372   C373    1.405   .     A
C373   N418    1.435   .     S
C373   C385    1.400   .     A
C374   C385    1.390   .     A
C374   H396    1.078   .     S
C375   C230    1.335   1_655 S
C375   H265    1.088   1_655 S
C377   N420    1.436   .     S
C377   C384    1.408   .     A
C377   C386    1.404   .     A
C378   C381    1.454   .     S
C378   C598    1.340   .     S
C378   N636    1.439   .     S
C379   C380    1.437   .     S
C380   O433    1.275   .     A
C380   O427    1.275   .     A
C381   O428    1.273   .     A
C381   O434    1.268   .     A
C382   O423    1.272   .     A
C382   C385    1.458   .     S
C382   O425    1.275   .     A
C383   O424    1.283   .     A
C383   O426    1.288   .     A
C383   C384    1.480   .     S
C384   C387    1.400   .     A
C386   C389    1.428   .     A
C386   N419    1.435   .     S
C387   N421    1.442   .     S
C387   C388    1.423   .     A
C388   C389    1.428   .     A
C388   C390    1.425   .     A
C389   C1050   1.420   .     S
C390   C1048   1.414   .     S
C391   C392    1.406   .     A
C391   C1047   1.414   1_554 S
C392   C393    1.395   .     A
C392   H406    1.077   .     S
C393   N415    1.433   .     S
C393   C1046   1.420   1_554 S
H395   C598    1.086   .     S
H397   N418    1.046   .     S
H398   N418    1.046   .     S
H399   N419    1.045   .     S
H400   N419    1.045   .     S
H401   N420    1.046   .     S
H402   N420    1.046   .     S
H403   N421    1.044   .     S
H404   N421    1.045   .     S
H405   N415    1.046   .     S
H408   N415    1.046   .     S
H409   N416    1.045   .     S
H410   N416    1.045   .     S
H412   C230    1.086   1_655 S
H413   N417    1.046   .     S
H414   N417    1.046   .     S
O422   Zn435   1.959   .     S
O422   Zn436   1.938   .     S
O422   Zn437   1.932   .     S
O422   Zn438   1.935   .     S
O423   Zn436   1.927   .     S
O424   Zn438   1.935   .     S
O425   Zn437   1.930   .     S
O426   Zn435   1.923   .     S
O427   Zn435   1.929   .     S
O428   Zn438   1.932   .     S
O429   Zn436   1.928   .     S
O430   Zn437   1.937   .     S
O431   Zn438   1.930   .     S
O432   Zn435   1.923   .     S
O433   Zn436   1.939   .     S
O434   Zn437   1.934   .     S
C439   C449    1.438   .     S
C439   O502    1.270   .     A
C439   O504    1.270   .     A
C440   C441    1.386   .     A
C440   H480    1.077   .     S
C440   C463    1.408   .     A
C441   H467    1.082   .     S
C441   C1100   1.400   .     S
C442   O505    1.277   .     A
C442   C448    1.455   .     S
C442   O503    1.281   .     A
C443   C445    1.420   .     A
C443   C444    1.424   .     A
C443   C1098   1.400   1_554 S
C444   C447    1.408   .     A
C444   C464    1.427   .     A
C445   N489    1.435   .     S
C445   C446    1.405   .     A
C446   N491    1.435   .     S
C446   C458    1.400   .     A
C447   C458    1.390   .     A
C447   H469    1.078   .     S
C448   C522    1.335   .     S
C448   H557    1.088   .     S
C449   C594    1.335   1_455 S
C449   H631    1.086   1_455 S
C450   N493    1.436   .     S
C450   C457    1.408   .     A
C450   C459    1.404   .     A
C451   C454    1.454   .     S
C451   C14     1.340   1_565 S
C451   N52     1.439   1_565 S
C452   C453    1.437   .     S
C453   O506    1.275   .     A
C453   O500    1.275   .     A
C454   O501    1.273   .     A
C454   O507    1.268   .     A
C455   O496    1.272   .     A
C455   C458    1.458   .     S
C455   O498    1.275   .     A
C456   O497    1.283   .     A
C456   O499    1.288   .     A
C456   C457    1.480   .     S
C457   C460    1.400   .     A
C459   C462    1.428   .     A
C459   N492    1.435   .     S
C460   N494    1.442   .     S
C460   C461    1.423   .     A
C461   C462    1.428   .     A
C461   C463    1.425   .     A
C462   C1123   1.420   .     S
C463   C1121   1.414   .     S
C464   C465    1.406   .     A
C464   C1120   1.414   1_554 S
C465   C466    1.395   .     A
C465   H479    1.077   .     S
C466   N488    1.433   .     S
C466   C1119   1.420   1_554 S
H468   C14     1.086   1_565 S
H470   N491    1.046   .     S
H471   N491    1.046   .     S
H472   N492    1.045   .     S
H473   N492    1.045   .     S
H474   N493    1.046   .     S
H475   N493    1.046   .     S
H476   N494    1.044   .     S
H477   N494    1.045   .     S
H478   N488    1.046   .     S
H481   N488    1.046   .     S
H482   N489    1.045   .     S
H483   N489    1.045   .     S
H484   C594    1.088   1_455 S
H485   C522    1.086   .     S
H486   N490    1.046   .     S
H487   N490    1.046   .     S
O495   Zn508   1.959   .     S
O495   Zn509   1.938   .     S
O495   Zn510   1.932   .     S
O495   Zn511   1.935   .     S
O496   Zn509   1.927   .     S
O497   Zn511   1.935   .     S
O498   Zn510   1.930   .     S
O499   Zn508   1.923   .     S
O500   Zn508   1.929   .     S
O501   Zn511   1.932   .     S
O502   Zn509   1.928   .     S
O503   Zn510   1.937   .     S
O504   Zn511   1.930   .     S
O505   Zn508   1.923   .     S
O506   Zn509   1.939   .     S
O507   Zn510   1.934   .     S
C512   C522    1.438   .     S
C512   O575    1.270   .     A
C512   O577    1.270   .     A
C513   C514    1.386   .     A
C513   H553    1.077   .     S
C513   C536    1.408   .     A
C514   H540    1.082   .     S
C514   C1173   1.400   .     S
C515   O578    1.277   .     A
C515   C521    1.455   .     S
C515   O576    1.281   .     A
C516   C518    1.420   .     A
C516   C517    1.424   .     A
C516   C1171   1.400   1_554 S
C517   C520    1.408   .     A
C517   C537    1.427   .     A
C518   N562    1.435   .     S
C518   C519    1.405   .     A
C519   N564    1.435   .     S
C519   C531    1.400   .     A
C520   C531    1.390   .     A
C520   H542    1.078   .     S
C521   C595    1.335   .     S
C521   H630    1.088   .     S
C523   N566    1.436   .     S
C523   C530    1.408   .     A
C523   C532    1.404   .     A
C524   C527    1.454   .     S
C524   C87     1.340   1_565 S
C524   N125    1.439   1_565 S
C525   C526    1.437   .     S
C526   O579    1.275   .     A
C526   O573    1.275   .     A
C527   O574    1.273   .     A
C527   O580    1.268   .     A
C528   O569    1.272   .     A
C528   C531    1.458   .     S
C528   O571    1.275   .     A
C529   O570    1.283   .     A
C529   O572    1.288   .     A
C529   C530    1.480   .     S
C530   C533    1.400   .     A
C532   C535    1.428   .     A
C532   N565    1.435   .     S
C533   N567    1.442   .     S
C533   C534    1.423   .     A
C534   C535    1.428   .     A
C534   C536    1.425   .     A
C535   C1196   1.420   .     S
C536   C1194   1.414   .     S
C537   C538    1.406   .     A
C537   C1193   1.414   1_554 S
C538   C539    1.395   .     A
C538   H552    1.077   .     S
C539   N561    1.433   .     S
C539   C1192   1.420   1_554 S
H541   C87     1.086   1_565 S
H543   N564    1.046   .     S
H544   N564    1.046   .     S
H545   N565    1.045   .     S
H546   N565    1.045   .     S
H547   N566    1.046   .     S
H548   N566    1.046   .     S
H549   N567    1.044   .     S
H550   N567    1.045   .     S
H551   N561    1.046   .     S
H554   N561    1.046   .     S
H555   N562    1.045   .     S
H556   N562    1.045   .     S
H558   C595    1.086   .     S
H559   N563    1.046   .     S
H560   N563    1.046   .     S
O568   Zn581   1.959   .     S
O568   Zn582   1.938   .     S
O568   Zn583   1.932   .     S
O568   Zn584   1.935   .     S
O569   Zn582   1.927   .     S
O570   Zn584   1.935   .     S
O571   Zn583   1.930   .     S
O572   Zn581   1.923   .     S
O573   Zn581   1.929   .     S
O574   Zn584   1.932   .     S
O575   Zn582   1.928   .     S
O576   Zn583   1.937   .     S
O577   Zn584   1.930   .     S
O578   Zn581   1.923   .     S
O579   Zn582   1.939   .     S
O580   Zn583   1.934   .     S
C585   C595    1.438   .     S
C585   O648    1.270   .     A
C585   O650    1.270   .     A
C586   C587    1.386   .     A
C586   H626    1.077   .     S
C586   C609    1.408   .     A
C587   H613    1.082   .     S
C587   C1246   1.400   .     S
C588   O651    1.277   .     A
C588   C594    1.455   .     S
C588   O649    1.281   .     A
C589   C591    1.420   .     A
C589   C590    1.424   .     A
C589   C1244   1.400   1_554 S
C590   C593    1.408   .     A
C590   C610    1.427   .     A
C591   N635    1.435   .     S
C591   C592    1.405   .     A
C592   N637    1.435   .     S
C592   C604    1.400   .     A
C593   C604    1.390   .     A
C593   H615    1.078   .     S
C594   C449    1.335   1_655 S
C594   H484    1.088   1_655 S
C596   N639    1.436   .     S
C596   C603    1.408   .     A
C596   C605    1.404   .     A
C597   C600    1.454   .     S
C597   C160    1.340   1_565 S
C597   N198    1.439   1_565 S
C598   C599    1.437   .     S
C599   O652    1.275   .     A
C599   O646    1.275   .     A
C600   O647    1.273   .     A
C600   O653    1.268   .     A
C601   O642    1.272   .     A
C601   C604    1.458   .     S
C601   O644    1.275   .     A
C602   O643    1.283   .     A
C602   O645    1.288   .     A
C602   C603    1.480   .     S
C603   C606    1.400   .     A
C605   C608    1.428   .     A
C605   N638    1.435   .     S
C606   N640    1.442   .     S
C606   C607    1.423   .     A
C607   C608    1.428   .     A
C607   C609    1.425   .     A
C608   C1269   1.420   .     S
C609   C1267   1.414   .     S
C610   C611    1.406   .     A
C610   C1266   1.414   1_554 S
C611   C612    1.395   .     A
C611   H625    1.077   .     S
C612   N634    1.433   .     S
C612   C1265   1.420   1_554 S
H614   C160    1.086   1_565 S
H616   N637    1.046   .     S
H617   N637    1.046   .     S
H618   N638    1.045   .     S
H619   N638    1.045   .     S
H620   N639    1.046   .     S
H621   N639    1.046   .     S
H622   N640    1.044   .     S
H623   N640    1.045   .     S
H624   N634    1.046   .     S
H627   N634    1.046   .     S
H628   N635    1.045   .     S
H629   N635    1.045   .     S
H631   C449    1.086   1_655 S
H632   N636    1.046   .     S
H633   N636    1.046   .     S
O641   Zn654   1.959   .     S
O641   Zn655   1.938   .     S
O641   Zn656   1.932   .     S
O641   Zn657   1.935   .     S
O642   Zn655   1.927   .     S
O643   Zn657   1.935   .     S
O644   Zn656   1.930   .     S
O645   Zn654   1.923   .     S
O646   Zn654   1.929   .     S
O647   Zn657   1.932   .     S
O648   Zn655   1.928   .     S
O649   Zn656   1.937   .     S
O650   Zn657   1.930   .     S
O651   Zn654   1.923   .     S
O652   Zn655   1.939   .     S
O653   Zn656   1.934   .     S
C658   C668    1.438   .     S
C658   O721    1.270   .     A
C658   O723    1.270   .     A
C659   C660    1.386   .     A
C659   H699    1.077   .     S
C659   C682    1.408   .     A
C660   H686    1.082   .     S
C660   C5      1.400   1_556 S
C661   O724    1.277   .     A
C661   C667    1.455   .     S
C661   O722    1.281   .     A
C662   C664    1.420   .     A
C662   C663    1.424   .     A
C663   C666    1.408   .     A
C663   C683    1.427   .     A
C664   N708    1.435   .     S
C664   C665    1.405   .     A
C665   N710    1.435   .     S
C665   C677    1.400   .     A
C666   C677    1.390   .     A
C666   H688    1.078   .     S
C667   C741    1.335   .     S
C667   H776    1.088   .     S
C668   C813    1.335   1_455 S
C668   H850    1.086   1_455 S
C669   N712    1.436   .     S
C669   C676    1.408   .     A
C669   C678    1.404   .     A
C670   C673    1.454   .     S
C670   C890    1.340   .     S
C670   N928    1.439   .     S
C671   C672    1.437   .     S
C671   C1108   1.340   1_545 S
C671   H1125   1.086   1_545 S
C672   O725    1.275   .     A
C672   O719    1.275   .     A
C673   O720    1.273   .     A
C673   O726    1.268   .     A
C674   O715    1.272   .     A
C674   C677    1.458   .     S
C674   O717    1.275   .     A
C675   O716    1.283   .     A
C675   O718    1.288   .     A
C675   C676    1.480   .     S
C676   C679    1.400   .     A
C678   C681    1.428   .     A
C678   N711    1.435   .     S
C679   N713    1.442   .     S
C679   C680    1.423   .     A
C680   C681    1.428   .     A
C680   C682    1.425   .     A
C681   C28     1.420   1_556 S
C682   C26     1.414   1_556 S
C683   C684    1.406   .     A
C684   C685    1.395   .     A
C684   H698    1.077   .     S
C685   N707    1.433   .     S
H687   C890    1.086   .     S
H689   N710    1.046   .     S
H690   N710    1.046   .     S
H691   N711    1.045   .     S
H692   N711    1.045   .     S
H693   N712    1.046   .     S
H694   N712    1.046   .     S
H695   N713    1.044   .     S
H696   N713    1.045   .     S
H697   N707    1.046   .     S
H700   N707    1.046   .     S
H701   N708    1.045   .     S
H702   N708    1.045   .     S
H703   C813    1.088   1_455 S
H704   C741    1.086   .     S
H705   N709    1.046   .     S
H706   N709    1.046   .     S
N709   C1108   1.439   1_545 S
O714   Zn727   1.959   .     S
O714   Zn728   1.938   .     S
O714   Zn729   1.932   .     S
O714   Zn730   1.935   .     S
O715   Zn728   1.927   .     S
O716   Zn730   1.935   .     S
O717   Zn729   1.930   .     S
O718   Zn727   1.923   .     S
O719   Zn727   1.929   .     S
O720   Zn730   1.932   .     S
O721   Zn728   1.928   .     S
O722   Zn729   1.937   .     S
O723   Zn730   1.930   .     S
O724   Zn727   1.923   .     S
O725   Zn728   1.939   .     S
O726   Zn729   1.934   .     S
C731   C741    1.438   .     S
C731   O794    1.270   .     A
C731   O796    1.270   .     A
C732   C733    1.386   .     A
C732   H772    1.077   .     S
C732   C755    1.408   .     A
C733   H759    1.082   .     S
C733   C78     1.400   1_556 S
C734   O797    1.277   .     A
C734   C740    1.455   .     S
C734   O795    1.281   .     A
C735   C737    1.420   .     A
C735   C736    1.424   .     A
C736   C739    1.408   .     A
C736   C756    1.427   .     A
C737   N781    1.435   .     S
C737   C738    1.405   .     A
C738   N783    1.435   .     S
C738   C750    1.400   .     A
C739   C750    1.390   .     A
C739   H761    1.078   .     S
C740   C814    1.335   .     S
C740   H849    1.088   .     S
C742   N785    1.436   .     S
C742   C749    1.408   .     A
C742   C751    1.404   .     A
C743   C746    1.454   .     S
C743   C963    1.340   .     S
C743   N1001   1.439   .     S
C744   C745    1.437   .     S
C744   C1181   1.340   1_545 S
C744   H1198   1.086   1_545 S
C745   O798    1.275   .     A
C745   O792    1.275   .     A
C746   O793    1.273   .     A
C746   O799    1.268   .     A
C747   O788    1.272   .     A
C747   C750    1.458   .     S
C747   O790    1.275   .     A
C748   O789    1.283   .     A
C748   O791    1.288   .     A
C748   C749    1.480   .     S
C749   C752    1.400   .     A
C751   C754    1.428   .     A
C751   N784    1.435   .     S
C752   N786    1.442   .     S
C752   C753    1.423   .     A
C753   C754    1.428   .     A
C753   C755    1.425   .     A
C754   C101    1.420   1_556 S
C755   C99     1.414   1_556 S
C756   C757    1.406   .     A
C757   C758    1.395   .     A
C757   H771    1.077   .     S
C758   N780    1.433   .     S
H760   C963    1.086   .     S
H762   N783    1.046   .     S
H763   N783    1.046   .     S
H764   N784    1.045   .     S
H765   N784    1.045   .     S
H766   N785    1.046   .     S
H767   N785    1.046   .     S
H768   N786    1.044   .     S
H769   N786    1.045   .     S
H770   N780    1.046   .     S
H773   N780    1.046   .     S
H774   N781    1.045   .     S
H775   N781    1.045   .     S
H777   C814    1.086   .     S
H778   N782    1.046   .     S
H779   N782    1.046   .     S
N782   C1181   1.439   1_545 S
O787   Zn800   1.959   .     S
O787   Zn801   1.938   .     S
O787   Zn802   1.932   .     S
O787   Zn803   1.935   .     S
O788   Zn801   1.927   .     S
O789   Zn803   1.935   .     S
O790   Zn802   1.930   .     S
O791   Zn800   1.923   .     S
O792   Zn800   1.929   .     S
O793   Zn803   1.932   .     S
O794   Zn801   1.928   .     S
O795   Zn802   1.937   .     S
O796   Zn803   1.930   .     S
O797   Zn800   1.923   .     S
O798   Zn801   1.939   .     S
O799   Zn802   1.934   .     S
C804   C814    1.438   .     S
C804   O867    1.270   .     A
C804   O869    1.270   .     A
C805   C806    1.386   .     A
C805   H845    1.077   .     S
C805   C828    1.408   .     A
C806   H832    1.082   .     S
C806   C151    1.400   1_556 S
C807   O870    1.277   .     A
C807   C813    1.455   .     S
C807   O868    1.281   .     A
C808   C810    1.420   .     A
C808   C809    1.424   .     A
C809   C812    1.408   .     A
C809   C829    1.427   .     A
C810   N854    1.435   .     S
C810   C811    1.405   .     A
C811   N856    1.435   .     S
C811   C823    1.400   .     A
C812   C823    1.390   .     A
C812   H834    1.078   .     S
C813   C668    1.335   1_655 S
C813   H703    1.088   1_655 S
C815   N858    1.436   .     S
C815   C822    1.408   .     A
C815   C824    1.404   .     A
C816   C819    1.454   .     S
C816   C1036   1.340   .     S
C816   N1074   1.439   .     S
C817   C818    1.437   .     S
C817   C1254   1.340   1_545 S
C817   H1271   1.086   1_545 S
C818   O871    1.275   .     A
C818   O865    1.275   .     A
C819   O866    1.273   .     A
C819   O872    1.268   .     A
C820   O861    1.272   .     A
C820   C823    1.458   .     S
C820   O863    1.275   .     A
C821   O862    1.283   .     A
C821   O864    1.288   .     A
C821   C822    1.480   .     S
C822   C825    1.400   .     A
C824   C827    1.428   .     A
C824   N857    1.435   .     S
C825   N859    1.442   .     S
C825   C826    1.423   .     A
C826   C827    1.428   .     A
C826   C828    1.425   .     A
C827   C174    1.420   1_556 S
C828   C172    1.414   1_556 S
C829   C830    1.406   .     A
C830   C831    1.395   .     A
C830   H844    1.077   .     S
C831   N853    1.433   .     S
H833   C1036   1.086   .     S
H835   N856    1.046   .     S
H836   N856    1.046   .     S
H837   N857    1.045   .     S
H838   N857    1.045   .     S
H839   N858    1.046   .     S
H840   N858    1.046   .     S
H841   N859    1.044   .     S
H842   N859    1.045   .     S
H843   N853    1.046   .     S
H846   N853    1.046   .     S
H847   N854    1.045   .     S
H848   N854    1.045   .     S
H850   C668    1.086   1_655 S
H851   N855    1.046   .     S
H852   N855    1.046   .     S
N855   C1254   1.439   1_545 S
O860   Zn873   1.959   .     S
O860   Zn874   1.938   .     S
O860   Zn875   1.932   .     S
O860   Zn876   1.935   .     S
O861   Zn874   1.927   .     S
O862   Zn876   1.935   .     S
O863   Zn875   1.930   .     S
O864   Zn873   1.923   .     S
O865   Zn873   1.929   .     S
O866   Zn876   1.932   .     S
O867   Zn874   1.928   .     S
O868   Zn875   1.937   .     S
O869   Zn876   1.930   .     S
O870   Zn873   1.923   .     S
O871   Zn874   1.939   .     S
O872   Zn875   1.934   .     S
C877   C887    1.438   .     S
C877   O940    1.270   .     A
C877   O942    1.270   .     A
C878   C879    1.386   .     A
C878   H918    1.077   .     S
C878   C901    1.408   .     A
C879   H905    1.082   .     S
C879   C224    1.400   1_556 S
C880   O943    1.277   .     A
C880   C886    1.455   .     S
C880   O941    1.281   .     A
C881   C883    1.420   .     A
C881   C882    1.424   .     A
C882   C885    1.408   .     A
C882   C902    1.427   .     A
C883   N927    1.435   .     S
C883   C884    1.405   .     A
C884   N929    1.435   .     S
C884   C896    1.400   .     A
C885   C896    1.390   .     A
C885   H907    1.078   .     S
C886   C960    1.335   .     S
C886   H995    1.088   .     S
C887   C1032   1.335   1_455 S
C887   H1069   1.086   1_455 S
C888   N931    1.436   .     S
C888   C895    1.408   .     A
C888   C897    1.404   .     A
C889   C892    1.454   .     S
C889   C1109   1.340   .     S
C889   N1147   1.439   .     S
C890   C891    1.437   .     S
C891   O944    1.275   .     A
C891   O938    1.275   .     A
C892   O939    1.273   .     A
C892   O945    1.268   .     A
C893   O934    1.272   .     A
C893   C896    1.458   .     S
C893   O936    1.275   .     A
C894   O935    1.283   .     A
C894   O937    1.288   .     A
C894   C895    1.480   .     S
C895   C898    1.400   .     A
C897   C900    1.428   .     A
C897   N930    1.435   .     S
C898   N932    1.442   .     S
C898   C899    1.423   .     A
C899   C900    1.428   .     A
C899   C901    1.425   .     A
C900   C247    1.420   1_556 S
C901   C245    1.414   1_556 S
C902   C903    1.406   .     A
C903   C904    1.395   .     A
C903   H917    1.077   .     S
C904   N926    1.433   .     S
H906   C1109   1.086   .     S
H908   N929    1.046   .     S
H909   N929    1.046   .     S
H910   N930    1.045   .     S
H911   N930    1.045   .     S
H912   N931    1.046   .     S
H913   N931    1.046   .     S
H914   N932    1.044   .     S
H915   N932    1.045   .     S
H916   N926    1.046   .     S
H919   N926    1.046   .     S
H920   N927    1.045   .     S
H921   N927    1.045   .     S
H922   C1032   1.088   1_455 S
H923   C960    1.086   .     S
H924   N928    1.046   .     S
H925   N928    1.046   .     S
O933   Zn946   1.959   .     S
O933   Zn947   1.938   .     S
O933   Zn948   1.932   .     S
O933   Zn949   1.935   .     S
O934   Zn947   1.927   .     S
O935   Zn949   1.935   .     S
O936   Zn948   1.930   .     S
O937   Zn946   1.923   .     S
O938   Zn946   1.929   .     S
O939   Zn949   1.932   .     S
O940   Zn947   1.928   .     S
O941   Zn948   1.937   .     S
O942   Zn949   1.930   .     S
O943   Zn946   1.923   .     S
O944   Zn947   1.939   .     S
O945   Zn948   1.934   .     S
C950   C960    1.438   .     S
C950   O1013   1.270   .     A
C950   O1015   1.270   .     A
C951   C952    1.386   .     A
C951   H991    1.077   .     S
C951   C974    1.408   .     A
C952   H978    1.082   .     S
C952   C297    1.400   1_556 S
C953   O1016   1.277   .     A
C953   C959    1.455   .     S
C953   O1014   1.281   .     A
C954   C956    1.420   .     A
C954   C955    1.424   .     A
C955   C958    1.408   .     A
C955   C975    1.427   .     A
C956   N1000   1.435   .     S
C956   C957    1.405   .     A
C957   N1002   1.435   .     S
C957   C969    1.400   .     A
C958   C969    1.390   .     A
C958   H980    1.078   .     S
C959   C1033   1.335   .     S
C959   H1068   1.088   .     S
C961   N1004   1.436   .     S
C961   C968    1.408   .     A
C961   C970    1.404   .     A
C962   C965    1.454   .     S
C962   C1182   1.340   .     S
C962   N1220   1.439   .     S
C963   C964    1.437   .     S
C964   O1017   1.275   .     A
C964   O1011   1.275   .     A
C965   O1012   1.273   .     A
C965   O1018   1.268   .     A
C966   O1007   1.272   .     A
C966   C969    1.458   .     S
C966   O1009   1.275   .     A
C967   O1008   1.283   .     A
C967   O1010   1.288   .     A
C967   C968    1.480   .     S
C968   C971    1.400   .     A
C970   C973    1.428   .     A
C970   N1003   1.435   .     S
C971   N1005   1.442   .     S
C971   C972    1.423   .     A
C972   C973    1.428   .     A
C972   C974    1.425   .     A
C973   C320    1.420   1_556 S
C974   C318    1.414   1_556 S
C975   C976    1.406   .     A
C976   C977    1.395   .     A
C976   H990    1.077   .     S
C977   N999    1.433   .     S
H979   C1182   1.086   .     S
H981   N1002   1.046   .     S
H982   N1002   1.046   .     S
H983   N1003   1.045   .     S
H984   N1003   1.045   .     S
H985   N1004   1.046   .     S
H986   N1004   1.046   .     S
H987   N1005   1.044   .     S
H988   N1005   1.045   .     S
H989   N999    1.046   .     S
H992   N999    1.046   .     S
H993   N1000   1.045   .     S
H994   N1000   1.045   .     S
H996   C1033   1.086   .     S
H997   N1001   1.046   .     S
H998   N1001   1.046   .     S
O1006  Zn1019  1.959   .     S
O1006  Zn1020  1.938   .     S
O1006  Zn1021  1.932   .     S
O1006  Zn1022  1.935   .     S
O1007  Zn1020  1.927   .     S
O1008  Zn1022  1.935   .     S
O1009  Zn1021  1.930   .     S
O1010  Zn1019  1.923   .     S
O1011  Zn1019  1.929   .     S
O1012  Zn1022  1.932   .     S
O1013  Zn1020  1.928   .     S
O1014  Zn1021  1.937   .     S
O1015  Zn1022  1.930   .     S
O1016  Zn1019  1.923   .     S
O1017  Zn1020  1.939   .     S
O1018  Zn1021  1.934   .     S
C1023  C1033   1.438   .     S
C1023  O1086   1.270   .     A
C1023  O1088   1.270   .     A
C1024  C1025   1.386   .     A
C1024  H1064   1.077   .     S
C1024  C1047   1.408   .     A
C1025  H1051   1.082   .     S
C1025  C370    1.400   1_556 S
C1026  O1089   1.277   .     A
C1026  C1032   1.455   .     S
C1026  O1087   1.281   .     A
C1027  C1029   1.420   .     A
C1027  C1028   1.424   .     A
C1028  C1031   1.408   .     A
C1028  C1048   1.427   .     A
C1029  N1073   1.435   .     S
C1029  C1030   1.405   .     A
C1030  N1075   1.435   .     S
C1030  C1042   1.400   .     A
C1031  C1042   1.390   .     A
C1031  H1053   1.078   .     S
C1032  C887    1.335   1_655 S
C1032  H922    1.088   1_655 S
C1034  N1077   1.436   .     S
C1034  C1041   1.408   .     A
C1034  C1043   1.404   .     A
C1035  C1038   1.454   .     S
C1035  C1255   1.340   .     S
C1035  N1293   1.439   .     S
C1036  C1037   1.437   .     S
C1037  O1090   1.275   .     A
C1037  O1084   1.275   .     A
C1038  O1085   1.273   .     A
C1038  O1091   1.268   .     A
C1039  O1080   1.272   .     A
C1039  C1042   1.458   .     S
C1039  O1082   1.275   .     A
C1040  O1081   1.283   .     A
C1040  O1083   1.288   .     A
C1040  C1041   1.480   .     S
C1041  C1044   1.400   .     A
C1043  C1046   1.428   .     A
C1043  N1076   1.435   .     S
C1044  N1078   1.442   .     S
C1044  C1045   1.423   .     A
C1045  C1046   1.428   .     A
C1045  C1047   1.425   .     A
C1046  C393    1.420   1_556 S
C1047  C391    1.414   1_556 S
C1048  C1049   1.406   .     A
C1049  C1050   1.395   .     A
C1049  H1063   1.077   .     S
C1050  N1072   1.433   .     S
H1052  C1255   1.086   .     S
H1054  N1075   1.046   .     S
H1055  N1075   1.046   .     S
H1056  N1076   1.045   .     S
H1057  N1076   1.045   .     S
H1058  N1077   1.046   .     S
H1059  N1077   1.046   .     S
H1060  N1078   1.044   .     S
H1061  N1078   1.045   .     S
H1062  N1072   1.046   .     S
H1065  N1072   1.046   .     S
H1066  N1073   1.045   .     S
H1067  N1073   1.045   .     S
H1069  C887    1.086   1_655 S
H1070  N1074   1.046   .     S
H1071  N1074   1.046   .     S
O1079  Zn1092  1.959   .     S
O1079  Zn1093  1.938   .     S
O1079  Zn1094  1.932   .     S
O1079  Zn1095  1.935   .     S
O1080  Zn1093  1.927   .     S
O1081  Zn1095  1.935   .     S
O1082  Zn1094  1.930   .     S
O1083  Zn1092  1.923   .     S
O1084  Zn1092  1.929   .     S
O1085  Zn1095  1.932   .     S
O1086  Zn1093  1.928   .     S
O1087  Zn1094  1.937   .     S
O1088  Zn1095  1.930   .     S
O1089  Zn1092  1.923   .     S
O1090  Zn1093  1.939   .     S
O1091  Zn1094  1.934   .     S
C1096  C1106   1.438   .     S
C1096  O1159   1.270   .     A
C1096  O1161   1.270   .     A
C1097  C1098   1.386   .     A
C1097  H1137   1.077   .     S
C1097  C1120   1.408   .     A
C1098  H1124   1.082   .     S
C1098  C443    1.400   1_556 S
C1099  O1162   1.277   .     A
C1099  C1105   1.455   .     S
C1099  O1160   1.281   .     A
C1100  C1102   1.420   .     A
C1100  C1101   1.424   .     A
C1101  C1104   1.408   .     A
C1101  C1121   1.427   .     A
C1102  N1146   1.435   .     S
C1102  C1103   1.405   .     A
C1103  N1148   1.435   .     S
C1103  C1115   1.400   .     A
C1104  C1115   1.390   .     A
C1104  H1126   1.078   .     S
C1105  C1179   1.335   .     S
C1105  H1214   1.088   .     S
C1106  C1251   1.335   1_455 S
C1106  H1288   1.086   1_455 S
C1107  N1150   1.436   .     S
C1107  C1114   1.408   .     A
C1107  C1116   1.404   .     A
C1108  C1111   1.454   .     S
C1108  C671    1.340   1_565 S
C1108  N709    1.439   1_565 S
C1109  C1110   1.437   .     S
C1110  O1163   1.275   .     A
C1110  O1157   1.275   .     A
C1111  O1158   1.273   .     A
C1111  O1164   1.268   .     A
C1112  O1153   1.272   .     A
C1112  C1115   1.458   .     S
C1112  O1155   1.275   .     A
C1113  O1154   1.283   .     A
C1113  O1156   1.288   .     A
C1113  C1114   1.480   .     S
C1114  C1117   1.400   .     A
C1116  C1119   1.428   .     A
C1116  N1149   1.435   .     S
C1117  N1151   1.442   .     S
C1117  C1118   1.423   .     A
C1118  C1119   1.428   .     A
C1118  C1120   1.425   .     A
C1119  C466    1.420   1_556 S
C1120  C464    1.414   1_556 S
C1121  C1122   1.406   .     A
C1122  C1123   1.395   .     A
C1122  H1136   1.077   .     S
C1123  N1145   1.433   .     S
H1125  C671    1.086   1_565 S
H1127  N1148   1.046   .     S
H1128  N1148   1.046   .     S
H1129  N1149   1.045   .     S
H1130  N1149   1.045   .     S
H1131  N1150   1.046   .     S
H1132  N1150   1.046   .     S
H1133  N1151   1.044   .     S
H1134  N1151   1.045   .     S
H1135  N1145   1.046   .     S
H1138  N1145   1.046   .     S
H1139  N1146   1.045   .     S
H1140  N1146   1.045   .     S
H1141  C1251   1.088   1_455 S
H1142  C1179   1.086   .     S
H1143  N1147   1.046   .     S
H1144  N1147   1.046   .     S
O1152  Zn1165  1.959   .     S
O1152  Zn1166  1.938   .     S
O1152  Zn1167  1.932   .     S
O1152  Zn1168  1.935   .     S
O1153  Zn1166  1.927   .     S
O1154  Zn1168  1.935   .     S
O1155  Zn1167  1.930   .     S
O1156  Zn1165  1.923   .     S
O1157  Zn1165  1.929   .     S
O1158  Zn1168  1.932   .     S
O1159  Zn1166  1.928   .     S
O1160  Zn1167  1.937   .     S
O1161  Zn1168  1.930   .     S
O1162  Zn1165  1.923   .     S
O1163  Zn1166  1.939   .     S
O1164  Zn1167  1.934   .     S
C1169  C1179   1.438   .     S
C1169  O1232   1.270   .     A
C1169  O1234   1.270   .     A
C1170  C1171   1.386   .     A
C1170  H1210   1.077   .     S
C1170  C1193   1.408   .     A
C1171  H1197   1.082   .     S
C1171  C516    1.400   1_556 S
C1172  O1235   1.277   .     A
C1172  C1178   1.455   .     S
C1172  O1233   1.281   .     A
C1173  C1175   1.420   .     A
C1173  C1174   1.424   .     A
C1174  C1177   1.408   .     A
C1174  C1194   1.427   .     A
C1175  N1219   1.435   .     S
C1175  C1176   1.405   .     A
C1176  N1221   1.435   .     S
C1176  C1188   1.400   .     A
C1177  C1188   1.390   .     A
C1177  H1199   1.078   .     S
C1178  C1252   1.335   .     S
C1178  H1287   1.088   .     S
C1180  N1223   1.436   .     S
C1180  C1187   1.408   .     A
C1180  C1189   1.404   .     A
C1181  C1184   1.454   .     S
C1181  C744    1.340   1_565 S
C1181  N782    1.439   1_565 S
C1182  C1183   1.437   .     S
C1183  O1236   1.275   .     A
C1183  O1230   1.275   .     A
C1184  O1231   1.273   .     A
C1184  O1237   1.268   .     A
C1185  O1226   1.272   .     A
C1185  C1188   1.458   .     S
C1185  O1228   1.275   .     A
C1186  O1227   1.283   .     A
C1186  O1229   1.288   .     A
C1186  C1187   1.480   .     S
C1187  C1190   1.400   .     A
C1189  C1192   1.428   .     A
C1189  N1222   1.435   .     S
C1190  N1224   1.442   .     S
C1190  C1191   1.423   .     A
C1191  C1192   1.428   .     A
C1191  C1193   1.425   .     A
C1192  C539    1.420   1_556 S
C1193  C537    1.414   1_556 S
C1194  C1195   1.406   .     A
C1195  C1196   1.395   .     A
C1195  H1209   1.077   .     S
C1196  N1218   1.433   .     S
H1198  C744    1.086   1_565 S
H1200  N1221   1.046   .     S
H1201  N1221   1.046   .     S
H1202  N1222   1.045   .     S
H1203  N1222   1.045   .     S
H1204  N1223   1.046   .     S
H1205  N1223   1.046   .     S
H1206  N1224   1.044   .     S
H1207  N1224   1.045   .     S
H1208  N1218   1.046   .     S
H1211  N1218   1.046   .     S
H1212  N1219   1.045   .     S
H1213  N1219   1.045   .     S
H1215  C1252   1.086   .     S
H1216  N1220   1.046   .     S
H1217  N1220   1.046   .     S
O1225  Zn1238  1.959   .     S
O1225  Zn1239  1.938   .     S
O1225  Zn1240  1.932   .     S
O1225  Zn1241  1.935   .     S
O1226  Zn1239  1.927   .     S
O1227  Zn1241  1.935   .     S
O1228  Zn1240  1.930   .     S
O1229  Zn1238  1.923   .     S
O1230  Zn1238  1.929   .     S
O1231  Zn1241  1.932   .     S
O1232  Zn1239  1.928   .     S
O1233  Zn1240  1.937   .     S
O1234  Zn1241  1.930   .     S
O1235  Zn1238  1.923   .     S
O1236  Zn1239  1.939   .     S
O1237  Zn1240  1.934   .     S
C1242  C1252   1.438   .     S
C1242  O1305   1.270   .     A
C1242  O1307   1.270   .     A
C1243  C1244   1.386   .     A
C1243  H1283   1.077   .     S
C1243  C1266   1.408   .     A
C1244  H1270   1.082   .     S
C1244  C589    1.400   1_556 S
C1245  O1308   1.277   .     A
C1245  C1251   1.455   .     S
C1245  O1306   1.281   .     A
C1246  C1248   1.420   .     A
C1246  C1247   1.424   .     A
C1247  C1250   1.408   .     A
C1247  C1267   1.427   .     A
C1248  N1292   1.435   .     S
C1248  C1249   1.405   .     A
C1249  N1294   1.435   .     S
C1249  C1261   1.400   .     A
C1250  C1261   1.390   .     A
C1250  H1272   1.078   .     S
C1251  C1106   1.335   1_655 S
C1251  H1141   1.088   1_655 S
C1253  N1296   1.436   .     S
C1253  C1260   1.408   .     A
C1253  C1262   1.404   .     A
C1254  C1257   1.454   .     S
C1254  C817    1.340   1_565 S
C1254  N855    1.439   1_565 S
C1255  C1256   1.437   .     S
C1256  O1309   1.275   .     A
C1256  O1303   1.275   .     A
C1257  O1304   1.273   .     A
C1257  O1310   1.268   .     A
C1258  O1299   1.272   .     A
C1258  C1261   1.458   .     S
C1258  O1301   1.275   .     A
C1259  O1300   1.283   .     A
C1259  O1302   1.288   .     A
C1259  C1260   1.480   .     S
C1260  C1263   1.400   .     A
C1262  C1265   1.428   .     A
C1262  N1295   1.435   .     S
C1263  N1297   1.442   .     S
C1263  C1264   1.423   .     A
C1264  C1265   1.428   .     A
C1264  C1266   1.425   .     A
C1265  C612    1.420   1_556 S
C1266  C610    1.414   1_556 S
C1267  C1268   1.406   .     A
C1268  C1269   1.395   .     A
C1268  H1282   1.077   .     S
C1269  N1291   1.433   .     S
H1271  C817    1.086   1_565 S
H1273  N1294   1.046   .     S
H1274  N1294   1.046   .     S
H1275  N1295   1.045   .     S
H1276  N1295   1.045   .     S
H1277  N1296   1.046   .     S
H1278  N1296   1.046   .     S
H1279  N1297   1.044   .     S
H1280  N1297   1.045   .     S
H1281  N1291   1.046   .     S
H1284  N1291   1.046   .     S
H1285  N1292   1.045   .     S
H1286  N1292   1.045   .     S
H1288  C1106   1.086   1_655 S
H1289  N1293   1.046   .     S
H1290  N1293   1.046   .     S
O1298  Zn1311  1.959   .     S
O1298  Zn1312  1.938   .     S
O1298  Zn1313  1.932   .     S
O1298  Zn1314  1.935   .     S
O1299  Zn1312  1.927   .     S
O1300  Zn1314  1.935   .     S
O1301  Zn1313  1.930   .     S
O1302  Zn1311  1.923   .     S
O1303  Zn1311  1.929   .     S
O1304  Zn1314  1.932   .     S
O1305  Zn1312  1.928   .     S
O1306  Zn1313  1.937   .     S
O1307  Zn1314  1.930   .     S
O1308  Zn1311  1.923   .     S
O1309  Zn1312  1.939   .     S
O1310  Zn1313  1.934   .     S
