data_str_m1_o1_o17_pcu_sym.108
_audit_creation_date              2020-01-03
_audit_creation_method            'Materials Studio'
_symmetry_space_group_name_H-M    'P1'
_symmetry_Int_Tables_number       1
_symmetry_cell_setting            triclinic
loop_
_symmetry_equiv_pos_as_xyz
  x,y,z
_cell_length_a                    36.6326
_cell_length_b                    36.6316
_cell_length_c                    34.4793
_cell_angle_alpha                 90.0003
_cell_angle_beta                  89.9999
_cell_angle_gamma                 90.0000
loop_
_atom_site_label
_atom_site_type_symbol
_atom_site_fract_x
_atom_site_fract_y
_atom_site_fract_z
_atom_site_U_iso_or_equiv
_atom_site_adp_type
_atom_site_occupancy
C1     C     0.03135   0.23835   0.41955   0.00000  Uiso   1.00
C2     C     0.26954   0.47273   0.08067   0.00000  Uiso   1.00
C3     C     0.25237   0.46672   0.54060   0.00000  Uiso   1.00
C4     C     0.03324   0.24708   0.45936   0.00000  Uiso   1.00
C5     C     0.46675   0.24721   0.54063   0.00000  Uiso   1.00
C6     C     0.24668   0.46679   0.45933   0.00000  Uiso   1.00
C7     C     0.24754   0.03327   0.54060   0.00000  Uiso   1.00
C8     C     0.26210   0.46871   0.95849   0.00000  Uiso   1.00
C9     C     0.23665   0.03067   0.04031   0.00000  Uiso   1.00
C10    C     0.03128   0.26213   0.95849   0.00000  Uiso   1.00
C11    C     0.46934   0.23663   0.04031   0.00000  Uiso   1.00
C12    C     0.23790   0.03129   0.95849   0.00000  Uiso   1.00
C13    C     0.46699   0.24422   0.91805   0.00000  Uiso   1.00
C14    C     0.26334   0.46933   0.04031   0.00000  Uiso   1.00
C15    C     0.46872   0.23787   0.95849   0.00000  Uiso   1.00
C16    C     0.03066   0.26337   0.04031   0.00000  Uiso   1.00
C17    C     0.09812   0.34813   0.25000   0.00000  Uiso   1.00
C18    C     0.40188   0.15187   0.74998   0.00000  Uiso   1.00
C19    C     0.15187   0.09812   0.25000   0.00000  Uiso   1.00
C20    C     0.34813   0.40188   0.74998   0.00000  Uiso   1.00
C21    C     0.40188   0.15187   0.25000   0.00000  Uiso   1.00
C22    C     0.09812   0.34813   0.74998   0.00000  Uiso   1.00
C23    C     0.34813   0.40188   0.25000   0.00000  Uiso   1.00
C24    C     0.02725   0.26957   0.08067   0.00000  Uiso   1.00
C25    C     0.15187   0.09812   0.74998   0.00000  Uiso   1.00
C26    C     0.09815   0.15189   0.75002   0.00000  Uiso   1.00
C27    C     0.40191   0.34816   0.25004   0.00000  Uiso   1.00
C28    C     0.15189   0.40185   0.75002   0.00000  Uiso   1.00
C29    C     0.34816   0.09809   0.25004   0.00000  Uiso   1.00
C30    C     0.40185   0.34811   0.75002   0.00000  Uiso   1.00
C31    C     0.09809   0.15184   0.25004   0.00000  Uiso   1.00
C32    C     0.34811   0.09815   0.75002   0.00000  Uiso   1.00
C33    C     0.15184   0.40191   0.25005   0.00000  Uiso   1.00
C34    C    -0.00000   0.25000   0.47974   0.00000  Uiso   1.00
C35    C     0.25576   0.46699   0.91805   0.00000  Uiso   1.00
C36    C     0.00000   0.25000   0.52025   0.00000  Uiso   1.00
C37    C     0.24996  -0.00000   0.47971   0.00000  Uiso   1.00
C38    C     0.24996  -0.00000   0.52022   0.00000  Uiso   1.00
C39    C     0.25000  -0.00000   0.97894   0.00000  Uiso   1.00
C40    C     0.25000  -0.00000   0.01985   0.00000  Uiso   1.00
C41    C     0.00000   0.25000   0.97893   0.00000  Uiso   1.00
C42    C     0.00000   0.25000   0.01985   0.00000  Uiso   1.00
C43    C     0.40034   0.23524   0.45846   0.00000  Uiso   1.00
C44    C     0.09960   0.23487   0.54153   0.00000  Uiso   1.00
C45    C     0.23627   0.09982   0.45846   0.00000  Uiso   1.00
C46    C     0.23046   0.02727   0.08067   0.00000  Uiso   1.00
C47    C     0.23364   0.40060   0.54151   0.00000  Uiso   1.00
C48    C     0.09966   0.26476   0.45846   0.00000  Uiso   1.00
C49    C     0.40040   0.26514   0.54153   0.00000  Uiso   1.00
C50    C     0.26357   0.40016   0.45845   0.00000  Uiso   1.00
C51    C     0.26618   0.09943   0.54152   0.00000  Uiso   1.00
C52    C     0.30876   0.41831   0.96179   0.00000  Uiso   1.00
C53    C     0.23529   0.09928   0.03720   0.00000  Uiso   1.00
C54    C     0.08164   0.30882   0.96179   0.00000  Uiso   1.00
C55    C     0.40074   0.23521   0.03720   0.00000  Uiso   1.00
C56    C     0.19124   0.08169   0.96179   0.00000  Uiso   1.00
C57    C     0.03301   0.25579   0.91805   0.00000  Uiso   1.00
C58    C     0.26471   0.40072   0.03720   0.00000  Uiso   1.00
C59    C     0.41836   0.19118   0.96179   0.00000  Uiso   1.00
C60    C     0.09926   0.26479   0.03720   0.00000  Uiso   1.00
C61    C     0.05925   0.21179   0.40226   0.00000  Uiso   1.00
C62    C     0.04140   0.17634   0.38841   0.00000  Uiso   1.00
C63    C     0.44061   0.21201   0.59772   0.00000  Uiso   1.00
C64    C     0.45831   0.17649   0.61155   0.00000  Uiso   1.00
C65    C     0.21119   0.44114   0.40216   0.00000  Uiso   1.00
C66    C     0.17594   0.45933   0.38824   0.00000  Uiso   1.00
C67    C     0.21256   0.05977   0.59765   0.00000  Uiso   1.00
C68    C     0.47275   0.23043   0.08067   0.00000  Uiso   1.00
C69    C     0.17686   0.04241   0.61146   0.00000  Uiso   1.00
C70    C     0.44075   0.28821   0.40226   0.00000  Uiso   1.00
C71    C     0.45860   0.32366   0.38840   0.00000  Uiso   1.00
C72    C     0.05939   0.28799   0.59772   0.00000  Uiso   1.00
C73    C     0.04169   0.32351   0.61156   0.00000  Uiso   1.00
C74    C     0.28874   0.05888   0.40219   0.00000  Uiso   1.00
C75    C     0.32401   0.04072   0.38830   0.00000  Uiso   1.00
C76    C     0.28734   0.44018   0.59763   0.00000  Uiso   1.00
C77    C     0.32308   0.45750   0.61141   0.00000  Uiso   1.00
C78    C     0.25030   0.06943   0.89725   0.00000  Uiso   1.00
C79    C    -0.00000   0.25000   0.39868   0.00000  Uiso   1.00
C80    C     0.29092   0.07639   0.89022   0.00000  Uiso   1.00
C81    C     0.30065   0.45168   0.10012   0.00000  Uiso   1.00
C82    C     0.33534   0.47489   0.10155   0.00000  Uiso   1.00
C83    C     0.43057   0.25024   0.89725   0.00000  Uiso   1.00
C84    C     0.42358   0.29086   0.89020   0.00000  Uiso   1.00
C85    C     0.04828   0.30069   0.10011   0.00000  Uiso   1.00
C86    C     0.02503   0.33536   0.10155   0.00000  Uiso   1.00
C87    C     0.24970   0.43057   0.89725   0.00000  Uiso   1.00
C88    C     0.20908   0.42361   0.89022   0.00000  Uiso   1.00
C89    C     0.19935   0.04832   0.10012   0.00000  Uiso   1.00
C90    C     0.00000   0.25000   0.60131   0.00000  Uiso   1.00
C91    C     0.16466   0.02511   0.10154   0.00000  Uiso   1.00
C92    C     0.06943   0.24976   0.89725   0.00000  Uiso   1.00
C93    C     0.07642   0.20914   0.89020   0.00000  Uiso   1.00
C94    C     0.45172   0.19931   0.10011   0.00000  Uiso   1.00
C95    C     0.47497   0.16464   0.10155   0.00000  Uiso   1.00
C96    C     0.24998   0.00000   0.39866   0.00000  Uiso   1.00
C97    C     0.46860   0.23847   0.58043   0.00000  Uiso   1.00
C98    C     0.24998  -0.00000   0.60129   0.00000  Uiso   1.00
C99    C     0.25000   0.00000   0.89793   0.00000  Uiso   1.00
C100   C     0.25000  -0.00000   0.10126   0.00000  Uiso   1.00
C101   C     0.00000   0.25000   0.89793   0.00000  Uiso   1.00
C102   C     0.00000   0.25000   0.10126   0.00000  Uiso   1.00
C103   C     0.43327   0.24906   0.47954   0.00000  Uiso   1.00
C104   C     0.06673   0.24881   0.52045   0.00000  Uiso   1.00
C105   C     0.24975   0.06674   0.47952   0.00000  Uiso   1.00
C106   C     0.24799   0.43329   0.52043   0.00000  Uiso   1.00
C107   C     0.06673   0.25094   0.47954   0.00000  Uiso   1.00
C108   C     0.23800   0.46877   0.41952   0.00000  Uiso   1.00
C109   C     0.43327   0.25120   0.52045   0.00000  Uiso   1.00
C110   C     0.25013   0.43325   0.47951   0.00000  Uiso   1.00
C111   C     0.25189   0.06671   0.52043   0.00000  Uiso   1.00
C112   C     0.27826   0.43970   0.97939   0.00000  Uiso   1.00
C113   C     0.22807   0.06279   0.01948   0.00000  Uiso   1.00
C114   C     0.06028   0.27831   0.97938   0.00000  Uiso   1.00
C115   C     0.43723   0.22802   0.01948   0.00000  Uiso   1.00
C116   C     0.22174   0.06030   0.97939   0.00000  Uiso   1.00
C117   C     0.27193   0.43721   0.01948   0.00000  Uiso   1.00
C118   C     0.43972   0.22169   0.97938   0.00000  Uiso   1.00
C119   C     0.23877   0.03151   0.58041   0.00000  Uiso   1.00
C120   C     0.06277   0.27198   0.01948   0.00000  Uiso   1.00
C121   C     0.25000   0.00000   0.35601   0.00000  Uiso   1.00
C122   C     0.25000  -0.00000   0.64397   0.00000  Uiso   1.00
C123   C    -0.00000   0.25000   0.35602   0.00000  Uiso   1.00
C124   C     0.00000   0.25000   0.64398   0.00000  Uiso   1.00
C125   C    -0.00000   0.25000   0.85571   0.00000  Uiso   1.00
C126   C     0.00000   0.25000   0.14398   0.00000  Uiso   1.00
C127   C     0.25000   0.00000   0.85571   0.00000  Uiso   1.00
C128   C     0.25000  -0.00000   0.14398   0.00000  Uiso   1.00
C129   C     0.17994   0.07006   0.24999   0.00000  Uiso   1.00
C130   C     0.46865   0.26165   0.41955   0.00000  Uiso   1.00
C131   C     0.32006   0.42995   0.74999   0.00000  Uiso   1.00
C132   C     0.42994   0.17994   0.24999   0.00000  Uiso   1.00
C133   C     0.07005   0.32007   0.74999   0.00000  Uiso   1.00
C134   C     0.32005   0.42994   0.24999   0.00000  Uiso   1.00
C135   C     0.17993   0.07005   0.74999   0.00000  Uiso   1.00
C136   C     0.07006   0.32006   0.24999   0.00000  Uiso   1.00
C137   C     0.42995   0.17993   0.74999   0.00000  Uiso   1.00
C138   C     0.17995   0.42993   0.75002   0.00000  Uiso   1.00
C139   C     0.32007   0.07004   0.25002   0.00000  Uiso   1.00
C140   C     0.42993   0.32005   0.75001   0.00000  Uiso   1.00
C141   C     0.03140   0.26153   0.58043   0.00000  Uiso   1.00
C142   C     0.07004   0.17993   0.25002   0.00000  Uiso   1.00
C143   C     0.32005   0.07007   0.75001   0.00000  Uiso   1.00
C144   C     0.17993   0.42996   0.25002   0.00000  Uiso   1.00
C145   C     0.07007   0.17995   0.75001   0.00000  Uiso   1.00
C146   C     0.42996   0.32007   0.25002   0.00000  Uiso   1.00
C147   C     0.12280   0.40394   0.22366   0.00000  Uiso   1.00
C148   C     0.37716   0.09610   0.77638   0.00000  Uiso   1.00
C149   C     0.09606   0.12281   0.22365   0.00000  Uiso   1.00
C150   C     0.40390   0.37715   0.77639   0.00000  Uiso   1.00
C151   C     0.37720   0.09606   0.22366   0.00000  Uiso   1.00
C152   C     0.26194   0.03124   0.41953   0.00000  Uiso   1.00
C153   C     0.12284   0.40390   0.77638   0.00000  Uiso   1.00
C154   C     0.40393   0.37719   0.22365   0.00000  Uiso   1.00
C155   C     0.09610   0.12285   0.77639   0.00000  Uiso   1.00
C156   C     0.12283   0.09608   0.77636   0.00000  Uiso   1.00
C157   C     0.37717   0.40392   0.22362   0.00000  Uiso   1.00
C158   C     0.09608   0.37717   0.77636   0.00000  Uiso   1.00
C159   C     0.40392   0.12283   0.22363   0.00000  Uiso   1.00
C160   C     0.37717   0.40392   0.77636   0.00000  Uiso   1.00
C161   C     0.12283   0.09608   0.22362   0.00000  Uiso   1.00
C162   C     0.40392   0.12283   0.77636   0.00000  Uiso   1.00
C163   C     0.26117   0.46847   0.58040   0.00000  Uiso   1.00
C164   C     0.09608   0.37717   0.22363   0.00000  Uiso   1.00
C165   C     0.37284   0.15391   0.72361   0.00000  Uiso   1.00
C166   C     0.12715   0.34611   0.27640   0.00000  Uiso   1.00
C167   C     0.34609   0.37284   0.72361   0.00000  Uiso   1.00
C168   C     0.15388   0.12714   0.27641   0.00000  Uiso   1.00
C169   C     0.12716   0.34609   0.72361   0.00000  Uiso   1.00
C170   C     0.37285   0.15389   0.27640   0.00000  Uiso   1.00
C171   C     0.15391   0.12716   0.72361   0.00000  Uiso   1.00
C172   C     0.34611   0.37286   0.27641   0.00000  Uiso   1.00
C173   C     0.37288   0.34613   0.27644   0.00000  Uiso   1.00
C174   C     0.24424   0.03301   0.91805   0.00000  Uiso   1.00
C175   C     0.12719   0.15393   0.72364   0.00000  Uiso   1.00
C176   C     0.34613   0.12712   0.27643   0.00000  Uiso   1.00
C177   C     0.15393   0.37281   0.72364   0.00000  Uiso   1.00
C178   C     0.12712   0.15387   0.27644   0.00000  Uiso   1.00
C179   C     0.37281   0.34607   0.72364   0.00000  Uiso   1.00
C180   C     0.15387   0.37288   0.27643   0.00000  Uiso   1.00
C181   C     0.34607   0.12719   0.72364   0.00000  Uiso   1.00
C182   C     0.46676   0.25292   0.45936   0.00000  Uiso   1.00
C183   C     0.03325   0.25279   0.54063   0.00000  Uiso   1.00
C184   C     0.25324   0.03321   0.45934   0.00000  Uiso   1.00
H185   H     0.12074   0.42611   0.20299   0.00000  Uiso   1.00
H186   H     0.37921   0.42607   0.20292   0.00000  Uiso   1.00
H187   H     0.44485   0.30319   0.87157   0.00000  Uiso   1.00
H188   H     0.39679   0.29443   0.87560   0.00000  Uiso   1.00
H189   H     0.42990   0.23506   0.86937   0.00000  Uiso   1.00
H190   H     0.40681   0.24085   0.91422   0.00000  Uiso   1.00
H191   H     0.49788   0.33032   0.11469   0.00000  Uiso   1.00
H192   H     0.03933   0.35658   0.11883   0.00000  Uiso   1.00
H193   H     0.02079   0.34595   0.07168   0.00000  Uiso   1.00
H194   H     0.05774   0.29279   0.12950   0.00000  Uiso   1.00
H195   H     0.07328   0.30866   0.08442   0.00000  Uiso   1.00
H196   H     0.19424   0.42293   0.91832   0.00000  Uiso   1.00
H197   H     0.07390   0.37924   0.79702   0.00000  Uiso   1.00
H198   H     0.19675   0.44489   0.87160   0.00000  Uiso   1.00
H199   H     0.20548   0.39683   0.87561   0.00000  Uiso   1.00
H200   H     0.26487   0.42989   0.86937   0.00000  Uiso   1.00
H201   H     0.25909   0.40680   0.91421   0.00000  Uiso   1.00
H202   H     0.16968   0.49795   0.11468   0.00000  Uiso   1.00
H203   H     0.14346   0.03943   0.11882   0.00000  Uiso   1.00
H204   H     0.15408   0.02089   0.07168   0.00000  Uiso   1.00
H205   H     0.20726   0.05777   0.12951   0.00000  Uiso   1.00
H206   H     0.19141   0.07333   0.08443   0.00000  Uiso   1.00
H207   H     0.07710   0.19429   0.91829   0.00000  Uiso   1.00
H208   H     0.42608   0.12079   0.20293   0.00000  Uiso   1.00
H209   H     0.05515   0.19681   0.87157   0.00000  Uiso   1.00
H210   H     0.10320   0.20557   0.87560   0.00000  Uiso   1.00
H211   H     0.07010   0.26494   0.86937   0.00000  Uiso   1.00
H212   H     0.09319   0.25915   0.91422   0.00000  Uiso   1.00
H213   H     0.47921   0.15405   0.07168   0.00000  Uiso   1.00
H214   H     0.00212   0.16968   0.11469   0.00000  Uiso   1.00
H215   H     0.46067   0.14342   0.11883   0.00000  Uiso   1.00
H216   H     0.44226   0.20721   0.12950   0.00000  Uiso   1.00
H217   H     0.42673   0.19134   0.08442   0.00000  Uiso   1.00
H218   H     0.37924   0.42609   0.79702   0.00000  Uiso   1.00
H219   H     0.12079   0.07393   0.20292   0.00000  Uiso   1.00
H220   H     0.42610   0.12076   0.79702   0.00000  Uiso   1.00
H221   H     0.07392   0.37921   0.20293   0.00000  Uiso   1.00
H222   H     0.37079   0.17608   0.70293   0.00000  Uiso   1.00
H223   H     0.12921   0.32394   0.29707   0.00000  Uiso   1.00
H224   H     0.32393   0.37080   0.70292   0.00000  Uiso   1.00
H225   H     0.37921   0.07393   0.79706   0.00000  Uiso   1.00
H226   H     0.17605   0.12920   0.29708   0.00000  Uiso   1.00
H227   H     0.12921   0.32392   0.70293   0.00000  Uiso   1.00
H228   H     0.37079   0.17606   0.29707   0.00000  Uiso   1.00
H229   H     0.17607   0.12920   0.70292   0.00000  Uiso   1.00
H230   H     0.32394   0.37080   0.29708   0.00000  Uiso   1.00
H231   H     0.37085   0.32398   0.29714   0.00000  Uiso   1.00
H232   H     0.12925   0.17611   0.70298   0.00000  Uiso   1.00
H233   H     0.32397   0.12916   0.29713   0.00000  Uiso   1.00
H234   H     0.17611   0.37074   0.70299   0.00000  Uiso   1.00
H235   H     0.12915   0.17602   0.29714   0.00000  Uiso   1.00
H236   H     0.07390   0.12075   0.20298   0.00000  Uiso   1.00
H237   H     0.37075   0.32389   0.70298   0.00000  Uiso   1.00
H238   H     0.17602   0.37084   0.29713   0.00000  Uiso   1.00
H239   H     0.32389   0.12926   0.70299   0.00000  Uiso   1.00
H240   H     0.39973   0.23421   0.42709   0.00000  Uiso   1.00
H241   H     0.10019   0.23380   0.57290   0.00000  Uiso   1.00
H242   H     0.23515   0.10041   0.42709   0.00000  Uiso   1.00
H243   H     0.23269   0.39996   0.57288   0.00000  Uiso   1.00
H244   H     0.10027   0.26578   0.42709   0.00000  Uiso   1.00
H245   H     0.39981   0.26620   0.57290   0.00000  Uiso   1.00
H246   H     0.26478   0.39960   0.42709   0.00000  Uiso   1.00
H247   H     0.42606   0.37921   0.79707   0.00000  Uiso   1.00
H248   H     0.26717   0.10004   0.57289   0.00000  Uiso   1.00
H249   H     0.31691   0.42319   0.93198   0.00000  Uiso   1.00
H250   H     0.24442   0.10129   0.06706   0.00000  Uiso   1.00
H251   H     0.07676   0.31697   0.93198   0.00000  Uiso   1.00
H252   H     0.39871   0.24433   0.06706   0.00000  Uiso   1.00
H253   H     0.18309   0.07681   0.93199   0.00000  Uiso   1.00
H254   H     0.25558   0.39871   0.06706   0.00000  Uiso   1.00
H255   H     0.42324   0.18303   0.93198   0.00000  Uiso   1.00
H256   H     0.10129   0.25567   0.06706   0.00000  Uiso   1.00
H257   H     0.02313   0.18107   0.36329   0.00000  Uiso   1.00
H258   H     0.37926   0.07389   0.20299   0.00000  Uiso   1.00
H259   H     0.06291   0.15679   0.37923   0.00000  Uiso   1.00
H260   H     0.02544   0.16379   0.41235   0.00000  Uiso   1.00
H261   H     0.07519   0.22453   0.37854   0.00000  Uiso   1.00
H262   H     0.07953   0.20329   0.42440   0.00000  Uiso   1.00
H263   H     0.47419   0.16387   0.58759   0.00000  Uiso   1.00
H264   H     0.47664   0.18114   0.63664   0.00000  Uiso   1.00
H265   H     0.43673   0.15704   0.62077   0.00000  Uiso   1.00
H266   H     0.42471   0.22481   0.62143   0.00000  Uiso   1.00
H267   H     0.42029   0.20359   0.57557   0.00000  Uiso   1.00
H268   H     0.18089   0.47753   0.36311   0.00000  Uiso   1.00
H269   H     0.12079   0.42607   0.79706   0.00000  Uiso   1.00
H270   H     0.15619   0.43802   0.37906   0.00000  Uiso   1.00
H271   H     0.16353   0.47544   0.41215   0.00000  Uiso   1.00
H272   H     0.22382   0.42509   0.37846   0.00000  Uiso   1.00
H273   H     0.20245   0.42093   0.42428   0.00000  Uiso   1.00
H274   H     0.16410   0.02666   0.58749   0.00000  Uiso   1.00
H275   H     0.18132   0.02402   0.63654   0.00000  Uiso   1.00
H276   H     0.15762   0.06417   0.62067   0.00000  Uiso   1.00
H277   H     0.22550   0.07556   0.62136   0.00000  Uiso   1.00
H278   H     0.20436   0.08015   0.57549   0.00000  Uiso   1.00
H279   H     0.47687   0.31893   0.36329   0.00000  Uiso   1.00
H280   H     0.42610   0.37925   0.20298   0.00000  Uiso   1.00
H281   H     0.43709   0.34321   0.37922   0.00000  Uiso   1.00
H282   H     0.47456   0.33621   0.41234   0.00000  Uiso   1.00
H283   H     0.42481   0.27547   0.37854   0.00000  Uiso   1.00
H284   H     0.42047   0.29671   0.42440   0.00000  Uiso   1.00
H285   H     0.02581   0.33614   0.58760   0.00000  Uiso   1.00
H286   H     0.02336   0.31886   0.63664   0.00000  Uiso   1.00
H287   H     0.06327   0.34296   0.62078   0.00000  Uiso   1.00
H288   H     0.07529   0.27519   0.62143   0.00000  Uiso   1.00
H289   H     0.07971   0.29641   0.57558   0.00000  Uiso   1.00
H290   H     0.31909   0.02251   0.36317   0.00000  Uiso   1.00
H291   H     0.07394   0.12079   0.79706   0.00000  Uiso   1.00
H292   H     0.34376   0.06204   0.37912   0.00000  Uiso   1.00
H293   H     0.33643   0.02462   0.41222   0.00000  Uiso   1.00
H294   H     0.27612   0.07492   0.37847   0.00000  Uiso   1.00
H295   H     0.29745   0.07910   0.42431   0.00000  Uiso   1.00
H296   H     0.31866   0.47594   0.63645   0.00000  Uiso   1.00
H297   H     0.34228   0.43571   0.62067   0.00000  Uiso   1.00
H298   H     0.33588   0.47317   0.58740   0.00000  Uiso   1.00
H299   H     0.27440   0.42441   0.62135   0.00000  Uiso   1.00
H300   H     0.29550   0.41978   0.57546   0.00000  Uiso   1.00
H301   H     0.30576   0.07707   0.91832   0.00000  Uiso   1.00
H302   H     0.12076   0.07391   0.79702   0.00000  Uiso   1.00
H303   H     0.30325   0.05511   0.87160   0.00000  Uiso   1.00
H304   H     0.29452   0.10317   0.87561   0.00000  Uiso   1.00
H305   H     0.23513   0.07011   0.86937   0.00000  Uiso   1.00
H306   H     0.24091   0.09320   0.91421   0.00000  Uiso   1.00
H307   H     0.33032   0.00205   0.11468   0.00000  Uiso   1.00
H308   H     0.35654   0.46057   0.11882   0.00000  Uiso   1.00
H309   H     0.34592   0.47911   0.07168   0.00000  Uiso   1.00
H310   H     0.29274   0.44223   0.12951   0.00000  Uiso   1.00
H311   H     0.30859   0.42667   0.08443   0.00000  Uiso   1.00
H312   H     0.42290   0.30571   0.91829   0.00000  Uiso   1.00
O313   O     0.25000   0.00000   0.25000   0.00000  Uiso   1.00
O314   O     0.25000   0.46964   0.66245   0.00000  Uiso   1.00
O315   O     0.46963   0.25000   0.33755   0.00000  Uiso   1.00
O316   O     0.03036   0.25000   0.66245   0.00000  Uiso   1.00
O317   O    -0.00000   0.21963   0.83755   0.00000  Uiso   1.00
O318   O     0.00000   0.28037   0.16245   0.00000  Uiso   1.00
O319   O     0.28036  -0.00000   0.83755   0.00000  Uiso   1.00
O320   O     0.21963   0.00000   0.16245   0.00000  Uiso   1.00
O321   O    -0.00000   0.28036   0.83755   0.00000  Uiso   1.00
O322   O     0.00000   0.21964   0.16245   0.00000  Uiso   1.00
O323   O     0.21963  -0.00000   0.83755   0.00000  Uiso   1.00
O324   O     0.25000  -0.00000   0.75000   0.00000  Uiso   1.00
O325   O     0.28036   0.00000   0.16245   0.00000  Uiso   1.00
O326   O     0.20724   0.07307   0.27302   0.00000  Uiso   1.00
O327   O     0.29275   0.42693   0.72698   0.00000  Uiso   1.00
O328   O     0.42692   0.20724   0.27302   0.00000  Uiso   1.00
O329   O     0.07307   0.29276   0.72698   0.00000  Uiso   1.00
O330   O     0.29275   0.42693   0.27302   0.00000  Uiso   1.00
O331   O     0.20724   0.07307   0.72698   0.00000  Uiso   1.00
O332   O     0.07307   0.29276   0.27302   0.00000  Uiso   1.00
O333   O     0.42692   0.20724   0.72698   0.00000  Uiso   1.00
O334   O     0.20724   0.42693   0.72698   0.00000  Uiso   1.00
O335   O     0.00000   0.25000   0.25000   0.00000  Uiso   1.00
O336   O     0.29275   0.07307   0.27302   0.00000  Uiso   1.00
O337   O     0.42692   0.29275   0.72698   0.00000  Uiso   1.00
O338   O     0.07307   0.20725   0.27302   0.00000  Uiso   1.00
O339   O     0.29275   0.07307   0.72698   0.00000  Uiso   1.00
O340   O     0.20724   0.42693   0.27302   0.00000  Uiso   1.00
O341   O     0.07307   0.20725   0.72698   0.00000  Uiso   1.00
O342   O     0.42692   0.29275   0.27302   0.00000  Uiso   1.00
O343   O     0.45724   0.32307   0.77302   0.00000  Uiso   1.00
O344   O     0.04275   0.17693   0.22698   0.00000  Uiso   1.00
O345   O     0.17692   0.45725   0.77302   0.00000  Uiso   1.00
O346   O    -0.00000   0.25000   0.75000   0.00000  Uiso   1.00
O347   O     0.32307   0.04275   0.22698   0.00000  Uiso   1.00
O348   O     0.04275   0.17693   0.77302   0.00000  Uiso   1.00
O349   O     0.45724   0.32307   0.22698   0.00000  Uiso   1.00
O350   O     0.32307   0.04275   0.77302   0.00000  Uiso   1.00
O351   O     0.17692   0.45725   0.22698   0.00000  Uiso   1.00
O352   O     0.45724   0.17692   0.22698   0.00000  Uiso   1.00
O353   O     0.04275   0.32308   0.77302   0.00000  Uiso   1.00
O354   O     0.17692   0.04275   0.22698   0.00000  Uiso   1.00
O355   O     0.32307   0.45725   0.77302   0.00000  Uiso   1.00
O356   O     0.04275   0.32308   0.22698   0.00000  Uiso   1.00
O357   O     0.25000   0.46964   0.33755   0.00000  Uiso   1.00
O358   O     0.45724   0.17692   0.77302   0.00000  Uiso   1.00
O359   O     0.32307   0.45725   0.22698   0.00000  Uiso   1.00
O360   O     0.17692   0.04275   0.77302   0.00000  Uiso   1.00
O361   O     0.37447   0.22204   0.47583   0.00000  Uiso   1.00
O362   O     0.12545   0.22161   0.52416   0.00000  Uiso   1.00
O363   O     0.22344   0.12588   0.47584   0.00000  Uiso   1.00
O364   O     0.21992   0.37499   0.52415   0.00000  Uiso   1.00
O365   O     0.12553   0.27797   0.47583   0.00000  Uiso   1.00
O366   O     0.37456   0.27841   0.52416   0.00000  Uiso   1.00
O367   O     0.27627   0.37404   0.47584   0.00000  Uiso   1.00
O368   O     0.25000   0.03036   0.66245   0.00000  Uiso   1.00
O369   O     0.27981   0.12508   0.52416   0.00000  Uiso   1.00
O370   O     0.32669   0.39670   0.98087   0.00000  Uiso   1.00
O371   O     0.23341   0.12733   0.01818   0.00000  Uiso   1.00
O372   O     0.10324   0.32677   0.98087   0.00000  Uiso   1.00
O373   O     0.37268   0.23331   0.01818   0.00000  Uiso   1.00
O374   O     0.17331   0.10330   0.98087   0.00000  Uiso   1.00
O375   O     0.26659   0.37267   0.01818   0.00000  Uiso   1.00
O376   O     0.39676   0.17323   0.98087   0.00000  Uiso   1.00
O377   O     0.12732   0.26669   0.01818   0.00000  Uiso   1.00
O378   O     0.03036   0.25000   0.33755   0.00000  Uiso   1.00
O379   O     0.46963   0.25000   0.66245   0.00000  Uiso   1.00
O380   O     0.25000   0.03036   0.33755   0.00000  Uiso   1.00
Zn381  Zn    0.20659  -0.00000   0.21735   0.00000  Uiso   1.00
Zn382  Zn    0.04340   0.25000   0.28265   0.00000  Uiso   1.00
Zn383  Zn    0.25000   0.45660   0.71735   0.00000  Uiso   1.00
Zn384  Zn    0.25000   0.04340   0.28265   0.00000  Uiso   1.00
Zn385  Zn    0.04340   0.25000   0.71735   0.00000  Uiso   1.00
Zn386  Zn    0.45659   0.25000   0.28265   0.00000  Uiso   1.00
Zn387  Zn    0.25000   0.04340   0.71735   0.00000  Uiso   1.00
Zn388  Zn    0.25000   0.45660   0.28265   0.00000  Uiso   1.00
Zn389  Zn    0.29340   0.00000   0.78265   0.00000  Uiso   1.00
Zn390  Zn    0.00000   0.20660   0.21735   0.00000  Uiso   1.00
Zn391  Zn    0.00000   0.29341   0.78265   0.00000  Uiso   1.00
Zn392  Zn    0.29340  -0.00000   0.21735   0.00000  Uiso   1.00
Zn393  Zn    0.20659   0.00000   0.78265   0.00000  Uiso   1.00
Zn394  Zn   -0.00000   0.29340   0.21735   0.00000  Uiso   1.00
Zn395  Zn   -0.00000   0.20659   0.78265   0.00000  Uiso   1.00
Zn396  Zn    0.45659   0.25000   0.71735   0.00000  Uiso   1.00
C397   C     0.53135   0.23835   0.41955   0.00000  Uiso   1.00
C398   C     0.76954   0.47273   0.08067   0.00000  Uiso   1.00
C399   C     0.75237   0.46672   0.54060   0.00000  Uiso   1.00
C400   C     0.53324   0.24708   0.45936   0.00000  Uiso   1.00
C401   C     0.96675   0.24721   0.54063   0.00000  Uiso   1.00
C402   C     0.74668   0.46679   0.45933   0.00000  Uiso   1.00
C403   C     0.74754   0.03327   0.54060   0.00000  Uiso   1.00
C404   C     0.76210   0.46871   0.95849   0.00000  Uiso   1.00
C405   C     0.73665   0.03067   0.04031   0.00000  Uiso   1.00
C406   C     0.53128   0.26213   0.95849   0.00000  Uiso   1.00
C407   C     0.96934   0.23663   0.04031   0.00000  Uiso   1.00
C408   C     0.73790   0.03129   0.95849   0.00000  Uiso   1.00
C409   C     0.96699   0.24422   0.91805   0.00000  Uiso   1.00
C410   C     0.76334   0.46933   0.04031   0.00000  Uiso   1.00
C411   C     0.96872   0.23787   0.95849   0.00000  Uiso   1.00
C412   C     0.53066   0.26337   0.04031   0.00000  Uiso   1.00
C413   C     0.59812   0.34813   0.25000   0.00000  Uiso   1.00
C414   C     0.90188   0.15187   0.74998   0.00000  Uiso   1.00
C415   C     0.65187   0.09812   0.25000   0.00000  Uiso   1.00
C416   C     0.84813   0.40188   0.74998   0.00000  Uiso   1.00
C417   C     0.90188   0.15187   0.25000   0.00000  Uiso   1.00
C418   C     0.59812   0.34813   0.74998   0.00000  Uiso   1.00
C419   C     0.84813   0.40188   0.25000   0.00000  Uiso   1.00
C420   C     0.52725   0.26957   0.08067   0.00000  Uiso   1.00
C421   C     0.65187   0.09812   0.74998   0.00000  Uiso   1.00
C422   C     0.59815   0.15189   0.75002   0.00000  Uiso   1.00
C423   C     0.90191   0.34816   0.25004   0.00000  Uiso   1.00
C424   C     0.65189   0.40185   0.75002   0.00000  Uiso   1.00
C425   C     0.84816   0.09809   0.25004   0.00000  Uiso   1.00
C426   C     0.90185   0.34811   0.75002   0.00000  Uiso   1.00
C427   C     0.59809   0.15184   0.25004   0.00000  Uiso   1.00
C428   C     0.84811   0.09815   0.75002   0.00000  Uiso   1.00
C429   C     0.65184   0.40191   0.25005   0.00000  Uiso   1.00
C430   C     0.50000   0.25000   0.47974   0.00000  Uiso   1.00
C431   C     0.75576   0.46699   0.91805   0.00000  Uiso   1.00
C432   C     0.50000   0.25000   0.52025   0.00000  Uiso   1.00
C433   C     0.74996  -0.00000   0.47971   0.00000  Uiso   1.00
C434   C     0.74996  -0.00000   0.52022   0.00000  Uiso   1.00
C435   C     0.75000  -0.00000   0.97894   0.00000  Uiso   1.00
C436   C     0.75000  -0.00000   0.01985   0.00000  Uiso   1.00
C437   C     0.50000   0.25000   0.97893   0.00000  Uiso   1.00
C438   C     0.50000   0.25000   0.01985   0.00000  Uiso   1.00
C439   C     0.90034   0.23524   0.45846   0.00000  Uiso   1.00
C440   C     0.59960   0.23487   0.54153   0.00000  Uiso   1.00
C441   C     0.73627   0.09982   0.45846   0.00000  Uiso   1.00
C442   C     0.73046   0.02727   0.08067   0.00000  Uiso   1.00
C443   C     0.73364   0.40060   0.54151   0.00000  Uiso   1.00
C444   C     0.59966   0.26476   0.45846   0.00000  Uiso   1.00
C445   C     0.90040   0.26514   0.54153   0.00000  Uiso   1.00
C446   C     0.76357   0.40016   0.45845   0.00000  Uiso   1.00
C447   C     0.76618   0.09943   0.54152   0.00000  Uiso   1.00
C448   C     0.80876   0.41831   0.96179   0.00000  Uiso   1.00
C449   C     0.73529   0.09928   0.03720   0.00000  Uiso   1.00
C450   C     0.58164   0.30882   0.96179   0.00000  Uiso   1.00
C451   C     0.90074   0.23521   0.03720   0.00000  Uiso   1.00
C452   C     0.69124   0.08169   0.96179   0.00000  Uiso   1.00
C453   C     0.53301   0.25579   0.91805   0.00000  Uiso   1.00
C454   C     0.76471   0.40072   0.03720   0.00000  Uiso   1.00
C455   C     0.91836   0.19118   0.96179   0.00000  Uiso   1.00
C456   C     0.59926   0.26479   0.03720   0.00000  Uiso   1.00
C457   C     0.55925   0.21179   0.40226   0.00000  Uiso   1.00
C458   C     0.54140   0.17634   0.38841   0.00000  Uiso   1.00
C459   C     0.94061   0.21201   0.59772   0.00000  Uiso   1.00
C460   C     0.95831   0.17649   0.61155   0.00000  Uiso   1.00
C461   C     0.71119   0.44114   0.40216   0.00000  Uiso   1.00
C462   C     0.67594   0.45933   0.38824   0.00000  Uiso   1.00
C463   C     0.71256   0.05977   0.59765   0.00000  Uiso   1.00
C464   C     0.97275   0.23043   0.08067   0.00000  Uiso   1.00
C465   C     0.67686   0.04241   0.61146   0.00000  Uiso   1.00
C466   C     0.94075   0.28821   0.40226   0.00000  Uiso   1.00
C467   C     0.95860   0.32366   0.38840   0.00000  Uiso   1.00
C468   C     0.55939   0.28799   0.59772   0.00000  Uiso   1.00
C469   C     0.54169   0.32351   0.61156   0.00000  Uiso   1.00
C470   C     0.78874   0.05888   0.40219   0.00000  Uiso   1.00
C471   C     0.82401   0.04072   0.38830   0.00000  Uiso   1.00
C472   C     0.78734   0.44018   0.59763   0.00000  Uiso   1.00
C473   C     0.82308   0.45750   0.61141   0.00000  Uiso   1.00
C474   C     0.75030   0.06943   0.89725   0.00000  Uiso   1.00
C475   C     0.50000   0.25000   0.39868   0.00000  Uiso   1.00
C476   C     0.79092   0.07639   0.89022   0.00000  Uiso   1.00
C477   C     0.80065   0.45168   0.10012   0.00000  Uiso   1.00
C478   C     0.83534   0.47489   0.10155   0.00000  Uiso   1.00
C479   C     0.93057   0.25024   0.89725   0.00000  Uiso   1.00
C480   C     0.92358   0.29086   0.89020   0.00000  Uiso   1.00
C481   C     0.54828   0.30069   0.10011   0.00000  Uiso   1.00
C482   C     0.52503   0.33536   0.10155   0.00000  Uiso   1.00
C483   C     0.74970   0.43057   0.89725   0.00000  Uiso   1.00
C484   C     0.70908   0.42361   0.89022   0.00000  Uiso   1.00
C485   C     0.69935   0.04832   0.10012   0.00000  Uiso   1.00
C486   C     0.50000   0.25000   0.60131   0.00000  Uiso   1.00
C487   C     0.66466   0.02511   0.10154   0.00000  Uiso   1.00
C488   C     0.56943   0.24976   0.89725   0.00000  Uiso   1.00
C489   C     0.57642   0.20914   0.89020   0.00000  Uiso   1.00
C490   C     0.95172   0.19931   0.10011   0.00000  Uiso   1.00
C491   C     0.97497   0.16464   0.10155   0.00000  Uiso   1.00
C492   C     0.74998   0.00000   0.39866   0.00000  Uiso   1.00
C493   C     0.96860   0.23847   0.58043   0.00000  Uiso   1.00
C494   C     0.74998  -0.00000   0.60129   0.00000  Uiso   1.00
C495   C     0.75000   0.00000   0.89793   0.00000  Uiso   1.00
C496   C     0.75000  -0.00000   0.10126   0.00000  Uiso   1.00
C497   C     0.50000   0.25000   0.89793   0.00000  Uiso   1.00
C498   C     0.50000   0.25000   0.10126   0.00000  Uiso   1.00
C499   C     0.93327   0.24906   0.47954   0.00000  Uiso   1.00
C500   C     0.56673   0.24881   0.52045   0.00000  Uiso   1.00
C501   C     0.74975   0.06674   0.47952   0.00000  Uiso   1.00
C502   C     0.74799   0.43329   0.52043   0.00000  Uiso   1.00
C503   C     0.56673   0.25094   0.47954   0.00000  Uiso   1.00
C504   C     0.73800   0.46877   0.41952   0.00000  Uiso   1.00
C505   C     0.93327   0.25120   0.52045   0.00000  Uiso   1.00
C506   C     0.75013   0.43325   0.47951   0.00000  Uiso   1.00
C507   C     0.75189   0.06671   0.52043   0.00000  Uiso   1.00
C508   C     0.77826   0.43970   0.97939   0.00000  Uiso   1.00
C509   C     0.72807   0.06279   0.01948   0.00000  Uiso   1.00
C510   C     0.56028   0.27831   0.97938   0.00000  Uiso   1.00
C511   C     0.93723   0.22802   0.01948   0.00000  Uiso   1.00
C512   C     0.72174   0.06030   0.97939   0.00000  Uiso   1.00
C513   C     0.77193   0.43721   0.01948   0.00000  Uiso   1.00
C514   C     0.93972   0.22169   0.97938   0.00000  Uiso   1.00
C515   C     0.73877   0.03151   0.58041   0.00000  Uiso   1.00
C516   C     0.56277   0.27198   0.01948   0.00000  Uiso   1.00
C517   C     0.75000   0.00000   0.35601   0.00000  Uiso   1.00
C518   C     0.75000  -0.00000   0.64397   0.00000  Uiso   1.00
C519   C     0.50000   0.25000   0.35602   0.00000  Uiso   1.00
C520   C     0.50000   0.25000   0.64398   0.00000  Uiso   1.00
C521   C     0.50000   0.25000   0.85571   0.00000  Uiso   1.00
C522   C     0.50000   0.25000   0.14398   0.00000  Uiso   1.00
C523   C     0.75000   0.00000   0.85571   0.00000  Uiso   1.00
C524   C     0.75000  -0.00000   0.14398   0.00000  Uiso   1.00
C525   C     0.67994   0.07006   0.24999   0.00000  Uiso   1.00
C526   C     0.96865   0.26165   0.41955   0.00000  Uiso   1.00
C527   C     0.82006   0.42995   0.74999   0.00000  Uiso   1.00
C528   C     0.92994   0.17994   0.24999   0.00000  Uiso   1.00
C529   C     0.57005   0.32007   0.74999   0.00000  Uiso   1.00
C530   C     0.82005   0.42994   0.24999   0.00000  Uiso   1.00
C531   C     0.67993   0.07005   0.74999   0.00000  Uiso   1.00
C532   C     0.57006   0.32006   0.24999   0.00000  Uiso   1.00
C533   C     0.92995   0.17993   0.74999   0.00000  Uiso   1.00
C534   C     0.67995   0.42993   0.75002   0.00000  Uiso   1.00
C535   C     0.82007   0.07004   0.25002   0.00000  Uiso   1.00
C536   C     0.92993   0.32005   0.75001   0.00000  Uiso   1.00
C537   C     0.53140   0.26153   0.58043   0.00000  Uiso   1.00
C538   C     0.57004   0.17993   0.25002   0.00000  Uiso   1.00
C539   C     0.82005   0.07007   0.75001   0.00000  Uiso   1.00
C540   C     0.67993   0.42996   0.25002   0.00000  Uiso   1.00
C541   C     0.57007   0.17995   0.75001   0.00000  Uiso   1.00
C542   C     0.92996   0.32007   0.25002   0.00000  Uiso   1.00
C543   C     0.62280   0.40394   0.22366   0.00000  Uiso   1.00
C544   C     0.87716   0.09610   0.77638   0.00000  Uiso   1.00
C545   C     0.59606   0.12281   0.22365   0.00000  Uiso   1.00
C546   C     0.90390   0.37715   0.77639   0.00000  Uiso   1.00
C547   C     0.87720   0.09606   0.22366   0.00000  Uiso   1.00
C548   C     0.76194   0.03124   0.41953   0.00000  Uiso   1.00
C549   C     0.62284   0.40390   0.77638   0.00000  Uiso   1.00
C550   C     0.90393   0.37719   0.22365   0.00000  Uiso   1.00
C551   C     0.59610   0.12285   0.77639   0.00000  Uiso   1.00
C552   C     0.62283   0.09608   0.77636   0.00000  Uiso   1.00
C553   C     0.87717   0.40392   0.22362   0.00000  Uiso   1.00
C554   C     0.59608   0.37717   0.77636   0.00000  Uiso   1.00
C555   C     0.90392   0.12283   0.22363   0.00000  Uiso   1.00
C556   C     0.87717   0.40392   0.77636   0.00000  Uiso   1.00
C557   C     0.62283   0.09608   0.22362   0.00000  Uiso   1.00
C558   C     0.90392   0.12283   0.77636   0.00000  Uiso   1.00
C559   C     0.76117   0.46847   0.58040   0.00000  Uiso   1.00
C560   C     0.59608   0.37717   0.22363   0.00000  Uiso   1.00
C561   C     0.87284   0.15391   0.72361   0.00000  Uiso   1.00
C562   C     0.62715   0.34611   0.27640   0.00000  Uiso   1.00
C563   C     0.84609   0.37284   0.72361   0.00000  Uiso   1.00
C564   C     0.65388   0.12714   0.27641   0.00000  Uiso   1.00
C565   C     0.62716   0.34609   0.72361   0.00000  Uiso   1.00
C566   C     0.87285   0.15389   0.27640   0.00000  Uiso   1.00
C567   C     0.65391   0.12716   0.72361   0.00000  Uiso   1.00
C568   C     0.84611   0.37286   0.27641   0.00000  Uiso   1.00
C569   C     0.87288   0.34613   0.27644   0.00000  Uiso   1.00
C570   C     0.74424   0.03301   0.91805   0.00000  Uiso   1.00
C571   C     0.62719   0.15393   0.72364   0.00000  Uiso   1.00
C572   C     0.84613   0.12712   0.27643   0.00000  Uiso   1.00
C573   C     0.65393   0.37281   0.72364   0.00000  Uiso   1.00
C574   C     0.62712   0.15387   0.27644   0.00000  Uiso   1.00
C575   C     0.87281   0.34607   0.72364   0.00000  Uiso   1.00
C576   C     0.65387   0.37288   0.27643   0.00000  Uiso   1.00
C577   C     0.84607   0.12719   0.72364   0.00000  Uiso   1.00
C578   C     0.96676   0.25292   0.45936   0.00000  Uiso   1.00
C579   C     0.53325   0.25279   0.54063   0.00000  Uiso   1.00
C580   C     0.75324   0.03321   0.45934   0.00000  Uiso   1.00
H581   H     0.62074   0.42611   0.20299   0.00000  Uiso   1.00
H582   H     0.87921   0.42607   0.20292   0.00000  Uiso   1.00
H583   H     0.94485   0.30319   0.87157   0.00000  Uiso   1.00
H584   H     0.89679   0.29443   0.87560   0.00000  Uiso   1.00
H585   H     0.92990   0.23506   0.86937   0.00000  Uiso   1.00
H586   H     0.90681   0.24085   0.91422   0.00000  Uiso   1.00
H587   H     0.99788   0.33032   0.11469   0.00000  Uiso   1.00
H588   H     0.53933   0.35658   0.11883   0.00000  Uiso   1.00
H589   H     0.52079   0.34595   0.07168   0.00000  Uiso   1.00
H590   H     0.55774   0.29279   0.12950   0.00000  Uiso   1.00
H591   H     0.57328   0.30866   0.08442   0.00000  Uiso   1.00
H592   H     0.69424   0.42293   0.91832   0.00000  Uiso   1.00
H593   H     0.57390   0.37924   0.79702   0.00000  Uiso   1.00
H594   H     0.69675   0.44489   0.87160   0.00000  Uiso   1.00
H595   H     0.70548   0.39683   0.87561   0.00000  Uiso   1.00
H596   H     0.76487   0.42989   0.86937   0.00000  Uiso   1.00
H597   H     0.75909   0.40680   0.91421   0.00000  Uiso   1.00
H598   H     0.66968   0.49795   0.11468   0.00000  Uiso   1.00
H599   H     0.64346   0.03943   0.11882   0.00000  Uiso   1.00
H600   H     0.65408   0.02089   0.07168   0.00000  Uiso   1.00
H601   H     0.70726   0.05777   0.12951   0.00000  Uiso   1.00
H602   H     0.69141   0.07333   0.08443   0.00000  Uiso   1.00
H603   H     0.57710   0.19429   0.91829   0.00000  Uiso   1.00
H604   H     0.92608   0.12079   0.20293   0.00000  Uiso   1.00
H605   H     0.55515   0.19681   0.87157   0.00000  Uiso   1.00
H606   H     0.60320   0.20557   0.87560   0.00000  Uiso   1.00
H607   H     0.57010   0.26494   0.86937   0.00000  Uiso   1.00
H608   H     0.59319   0.25915   0.91422   0.00000  Uiso   1.00
H609   H     0.97921   0.15405   0.07168   0.00000  Uiso   1.00
H610   H     0.50212   0.16968   0.11469   0.00000  Uiso   1.00
H611   H     0.96067   0.14342   0.11883   0.00000  Uiso   1.00
H612   H     0.94226   0.20721   0.12950   0.00000  Uiso   1.00
H613   H     0.92673   0.19134   0.08442   0.00000  Uiso   1.00
H614   H     0.87924   0.42609   0.79702   0.00000  Uiso   1.00
H615   H     0.62079   0.07393   0.20292   0.00000  Uiso   1.00
H616   H     0.92610   0.12076   0.79702   0.00000  Uiso   1.00
H617   H     0.57392   0.37921   0.20293   0.00000  Uiso   1.00
H618   H     0.87079   0.17608   0.70293   0.00000  Uiso   1.00
H619   H     0.62921   0.32394   0.29707   0.00000  Uiso   1.00
H620   H     0.82393   0.37080   0.70292   0.00000  Uiso   1.00
H621   H     0.87921   0.07393   0.79706   0.00000  Uiso   1.00
H622   H     0.67605   0.12920   0.29708   0.00000  Uiso   1.00
H623   H     0.62921   0.32392   0.70293   0.00000  Uiso   1.00
H624   H     0.87079   0.17606   0.29707   0.00000  Uiso   1.00
H625   H     0.67607   0.12920   0.70292   0.00000  Uiso   1.00
H626   H     0.82394   0.37080   0.29708   0.00000  Uiso   1.00
H627   H     0.87085   0.32398   0.29714   0.00000  Uiso   1.00
H628   H     0.62925   0.17611   0.70298   0.00000  Uiso   1.00
H629   H     0.82397   0.12916   0.29713   0.00000  Uiso   1.00
H630   H     0.67611   0.37074   0.70299   0.00000  Uiso   1.00
H631   H     0.62915   0.17602   0.29714   0.00000  Uiso   1.00
H632   H     0.57390   0.12075   0.20298   0.00000  Uiso   1.00
H633   H     0.87075   0.32389   0.70298   0.00000  Uiso   1.00
H634   H     0.67602   0.37084   0.29713   0.00000  Uiso   1.00
H635   H     0.82389   0.12926   0.70299   0.00000  Uiso   1.00
H636   H     0.89973   0.23421   0.42709   0.00000  Uiso   1.00
H637   H     0.60019   0.23380   0.57290   0.00000  Uiso   1.00
H638   H     0.73515   0.10041   0.42709   0.00000  Uiso   1.00
H639   H     0.73269   0.39996   0.57288   0.00000  Uiso   1.00
H640   H     0.60027   0.26578   0.42709   0.00000  Uiso   1.00
H641   H     0.89981   0.26620   0.57290   0.00000  Uiso   1.00
H642   H     0.76478   0.39960   0.42709   0.00000  Uiso   1.00
H643   H     0.92606   0.37921   0.79707   0.00000  Uiso   1.00
H644   H     0.76717   0.10004   0.57289   0.00000  Uiso   1.00
H645   H     0.81691   0.42319   0.93198   0.00000  Uiso   1.00
H646   H     0.74442   0.10129   0.06706   0.00000  Uiso   1.00
H647   H     0.57676   0.31697   0.93198   0.00000  Uiso   1.00
H648   H     0.89871   0.24433   0.06706   0.00000  Uiso   1.00
H649   H     0.68309   0.07681   0.93199   0.00000  Uiso   1.00
H650   H     0.75558   0.39871   0.06706   0.00000  Uiso   1.00
H651   H     0.92324   0.18303   0.93198   0.00000  Uiso   1.00
H652   H     0.60129   0.25567   0.06706   0.00000  Uiso   1.00
H653   H     0.52313   0.18107   0.36329   0.00000  Uiso   1.00
H654   H     0.87926   0.07389   0.20299   0.00000  Uiso   1.00
H655   H     0.56291   0.15679   0.37923   0.00000  Uiso   1.00
H656   H     0.52544   0.16379   0.41235   0.00000  Uiso   1.00
H657   H     0.57519   0.22453   0.37854   0.00000  Uiso   1.00
H658   H     0.57953   0.20329   0.42440   0.00000  Uiso   1.00
H659   H     0.97419   0.16387   0.58759   0.00000  Uiso   1.00
H660   H     0.97664   0.18114   0.63664   0.00000  Uiso   1.00
H661   H     0.93673   0.15704   0.62077   0.00000  Uiso   1.00
H662   H     0.92471   0.22481   0.62143   0.00000  Uiso   1.00
H663   H     0.92029   0.20359   0.57557   0.00000  Uiso   1.00
H664   H     0.68089   0.47753   0.36311   0.00000  Uiso   1.00
H665   H     0.62079   0.42607   0.79706   0.00000  Uiso   1.00
H666   H     0.65619   0.43802   0.37906   0.00000  Uiso   1.00
H667   H     0.66353   0.47544   0.41215   0.00000  Uiso   1.00
H668   H     0.72382   0.42509   0.37846   0.00000  Uiso   1.00
H669   H     0.70245   0.42093   0.42428   0.00000  Uiso   1.00
H670   H     0.66410   0.02666   0.58749   0.00000  Uiso   1.00
H671   H     0.68132   0.02402   0.63654   0.00000  Uiso   1.00
H672   H     0.65762   0.06417   0.62067   0.00000  Uiso   1.00
H673   H     0.72550   0.07556   0.62136   0.00000  Uiso   1.00
H674   H     0.70436   0.08015   0.57549   0.00000  Uiso   1.00
H675   H     0.97687   0.31893   0.36329   0.00000  Uiso   1.00
H676   H     0.92610   0.37925   0.20298   0.00000  Uiso   1.00
H677   H     0.93709   0.34321   0.37922   0.00000  Uiso   1.00
H678   H     0.97456   0.33621   0.41234   0.00000  Uiso   1.00
H679   H     0.92481   0.27547   0.37854   0.00000  Uiso   1.00
H680   H     0.92047   0.29671   0.42440   0.00000  Uiso   1.00
H681   H     0.52581   0.33614   0.58760   0.00000  Uiso   1.00
H682   H     0.52336   0.31886   0.63664   0.00000  Uiso   1.00
H683   H     0.56327   0.34296   0.62078   0.00000  Uiso   1.00
H684   H     0.57529   0.27519   0.62143   0.00000  Uiso   1.00
H685   H     0.57971   0.29641   0.57558   0.00000  Uiso   1.00
H686   H     0.81909   0.02251   0.36317   0.00000  Uiso   1.00
H687   H     0.57394   0.12079   0.79706   0.00000  Uiso   1.00
H688   H     0.84376   0.06204   0.37912   0.00000  Uiso   1.00
H689   H     0.83643   0.02462   0.41222   0.00000  Uiso   1.00
H690   H     0.77612   0.07492   0.37847   0.00000  Uiso   1.00
H691   H     0.79745   0.07910   0.42431   0.00000  Uiso   1.00
H692   H     0.81866   0.47594   0.63645   0.00000  Uiso   1.00
H693   H     0.84228   0.43571   0.62067   0.00000  Uiso   1.00
H694   H     0.83588   0.47317   0.58740   0.00000  Uiso   1.00
H695   H     0.77440   0.42441   0.62135   0.00000  Uiso   1.00
H696   H     0.79550   0.41978   0.57546   0.00000  Uiso   1.00
H697   H     0.80576   0.07707   0.91832   0.00000  Uiso   1.00
H698   H     0.62076   0.07391   0.79702   0.00000  Uiso   1.00
H699   H     0.80325   0.05511   0.87160   0.00000  Uiso   1.00
H700   H     0.79452   0.10317   0.87561   0.00000  Uiso   1.00
H701   H     0.73513   0.07011   0.86937   0.00000  Uiso   1.00
H702   H     0.74091   0.09320   0.91421   0.00000  Uiso   1.00
H703   H     0.83032   0.00205   0.11468   0.00000  Uiso   1.00
H704   H     0.85654   0.46057   0.11882   0.00000  Uiso   1.00
H705   H     0.84592   0.47911   0.07168   0.00000  Uiso   1.00
H706   H     0.79274   0.44223   0.12951   0.00000  Uiso   1.00
H707   H     0.80859   0.42667   0.08443   0.00000  Uiso   1.00
H708   H     0.92290   0.30571   0.91829   0.00000  Uiso   1.00
O709   O     0.75000   0.00000   0.25000   0.00000  Uiso   1.00
O710   O     0.75000   0.46964   0.66245   0.00000  Uiso   1.00
O711   O     0.96963   0.25000   0.33755   0.00000  Uiso   1.00
O712   O     0.53036   0.25000   0.66245   0.00000  Uiso   1.00
O713   O     0.50000   0.21963   0.83755   0.00000  Uiso   1.00
O714   O     0.50000   0.28037   0.16245   0.00000  Uiso   1.00
O715   O     0.78036  -0.00000   0.83755   0.00000  Uiso   1.00
O716   O     0.71963   0.00000   0.16245   0.00000  Uiso   1.00
O717   O     0.50000   0.28036   0.83755   0.00000  Uiso   1.00
O718   O     0.50000   0.21964   0.16245   0.00000  Uiso   1.00
O719   O     0.71963  -0.00000   0.83755   0.00000  Uiso   1.00
O720   O     0.75000  -0.00000   0.75000   0.00000  Uiso   1.00
O721   O     0.78036   0.00000   0.16245   0.00000  Uiso   1.00
O722   O     0.70724   0.07307   0.27302   0.00000  Uiso   1.00
O723   O     0.79275   0.42693   0.72698   0.00000  Uiso   1.00
O724   O     0.92692   0.20724   0.27302   0.00000  Uiso   1.00
O725   O     0.57307   0.29276   0.72698   0.00000  Uiso   1.00
O726   O     0.79275   0.42693   0.27302   0.00000  Uiso   1.00
O727   O     0.70724   0.07307   0.72698   0.00000  Uiso   1.00
O728   O     0.57307   0.29276   0.27302   0.00000  Uiso   1.00
O729   O     0.92692   0.20724   0.72698   0.00000  Uiso   1.00
O730   O     0.70724   0.42693   0.72698   0.00000  Uiso   1.00
O731   O     0.50000   0.25000   0.25000   0.00000  Uiso   1.00
O732   O     0.79275   0.07307   0.27302   0.00000  Uiso   1.00
O733   O     0.92692   0.29275   0.72698   0.00000  Uiso   1.00
O734   O     0.57307   0.20725   0.27302   0.00000  Uiso   1.00
O735   O     0.79275   0.07307   0.72698   0.00000  Uiso   1.00
O736   O     0.70724   0.42693   0.27302   0.00000  Uiso   1.00
O737   O     0.57307   0.20725   0.72698   0.00000  Uiso   1.00
O738   O     0.92692   0.29275   0.27302   0.00000  Uiso   1.00
O739   O     0.95724   0.32307   0.77302   0.00000  Uiso   1.00
O740   O     0.54275   0.17693   0.22698   0.00000  Uiso   1.00
O741   O     0.67692   0.45725   0.77302   0.00000  Uiso   1.00
O742   O     0.50000   0.25000   0.75000   0.00000  Uiso   1.00
O743   O     0.82307   0.04275   0.22698   0.00000  Uiso   1.00
O744   O     0.54275   0.17693   0.77302   0.00000  Uiso   1.00
O745   O     0.95724   0.32307   0.22698   0.00000  Uiso   1.00
O746   O     0.82307   0.04275   0.77302   0.00000  Uiso   1.00
O747   O     0.67692   0.45725   0.22698   0.00000  Uiso   1.00
O748   O     0.95724   0.17692   0.22698   0.00000  Uiso   1.00
O749   O     0.54275   0.32308   0.77302   0.00000  Uiso   1.00
O750   O     0.67692   0.04275   0.22698   0.00000  Uiso   1.00
O751   O     0.82307   0.45725   0.77302   0.00000  Uiso   1.00
O752   O     0.54275   0.32308   0.22698   0.00000  Uiso   1.00
O753   O     0.75000   0.46964   0.33755   0.00000  Uiso   1.00
O754   O     0.95724   0.17692   0.77302   0.00000  Uiso   1.00
O755   O     0.82307   0.45725   0.22698   0.00000  Uiso   1.00
O756   O     0.67692   0.04275   0.77302   0.00000  Uiso   1.00
O757   O     0.87447   0.22204   0.47583   0.00000  Uiso   1.00
O758   O     0.62545   0.22161   0.52416   0.00000  Uiso   1.00
O759   O     0.72344   0.12588   0.47584   0.00000  Uiso   1.00
O760   O     0.71992   0.37499   0.52415   0.00000  Uiso   1.00
O761   O     0.62553   0.27797   0.47583   0.00000  Uiso   1.00
O762   O     0.87456   0.27841   0.52416   0.00000  Uiso   1.00
O763   O     0.77627   0.37404   0.47584   0.00000  Uiso   1.00
O764   O     0.75000   0.03036   0.66245   0.00000  Uiso   1.00
O765   O     0.77981   0.12508   0.52416   0.00000  Uiso   1.00
O766   O     0.82669   0.39670   0.98087   0.00000  Uiso   1.00
O767   O     0.73341   0.12733   0.01818   0.00000  Uiso   1.00
O768   O     0.60324   0.32677   0.98087   0.00000  Uiso   1.00
O769   O     0.87268   0.23331   0.01818   0.00000  Uiso   1.00
O770   O     0.67331   0.10330   0.98087   0.00000  Uiso   1.00
O771   O     0.76659   0.37267   0.01818   0.00000  Uiso   1.00
O772   O     0.89676   0.17323   0.98087   0.00000  Uiso   1.00
O773   O     0.62732   0.26669   0.01818   0.00000  Uiso   1.00
O774   O     0.53036   0.25000   0.33755   0.00000  Uiso   1.00
O775   O     0.96963   0.25000   0.66245   0.00000  Uiso   1.00
O776   O     0.75000   0.03036   0.33755   0.00000  Uiso   1.00
Zn777  Zn    0.70659  -0.00000   0.21735   0.00000  Uiso   1.00
Zn778  Zn    0.54340   0.25000   0.28265   0.00000  Uiso   1.00
Zn779  Zn    0.75000   0.45660   0.71735   0.00000  Uiso   1.00
Zn780  Zn    0.75000   0.04340   0.28265   0.00000  Uiso   1.00
Zn781  Zn    0.54340   0.25000   0.71735   0.00000  Uiso   1.00
Zn782  Zn    0.95659   0.25000   0.28265   0.00000  Uiso   1.00
Zn783  Zn    0.75000   0.04340   0.71735   0.00000  Uiso   1.00
Zn784  Zn    0.75000   0.45660   0.28265   0.00000  Uiso   1.00
Zn785  Zn    0.79340   0.00000   0.78265   0.00000  Uiso   1.00
Zn786  Zn    0.50000   0.20660   0.21735   0.00000  Uiso   1.00
Zn787  Zn    0.50000   0.29341   0.78265   0.00000  Uiso   1.00
Zn788  Zn    0.79340  -0.00000   0.21735   0.00000  Uiso   1.00
Zn789  Zn    0.70659   0.00000   0.78265   0.00000  Uiso   1.00
Zn790  Zn    0.50000   0.29340   0.21735   0.00000  Uiso   1.00
Zn791  Zn    0.50000   0.20659   0.78265   0.00000  Uiso   1.00
Zn792  Zn    0.95659   0.25000   0.71735   0.00000  Uiso   1.00
C793   C     0.03135   0.73835   0.41955   0.00000  Uiso   1.00
C794   C     0.26954   0.97273   0.08067   0.00000  Uiso   1.00
C795   C     0.25237   0.96672   0.54060   0.00000  Uiso   1.00
C796   C     0.03324   0.74708   0.45936   0.00000  Uiso   1.00
C797   C     0.46675   0.74721   0.54063   0.00000  Uiso   1.00
C798   C     0.24668   0.96679   0.45933   0.00000  Uiso   1.00
C799   C     0.24754   0.53327   0.54060   0.00000  Uiso   1.00
C800   C     0.26210   0.96871   0.95849   0.00000  Uiso   1.00
C801   C     0.23665   0.53067   0.04031   0.00000  Uiso   1.00
C802   C     0.03128   0.76213   0.95849   0.00000  Uiso   1.00
C803   C     0.46934   0.73663   0.04031   0.00000  Uiso   1.00
C804   C     0.23790   0.53129   0.95849   0.00000  Uiso   1.00
C805   C     0.46699   0.74422   0.91805   0.00000  Uiso   1.00
C806   C     0.26334   0.96933   0.04031   0.00000  Uiso   1.00
C807   C     0.46872   0.73787   0.95849   0.00000  Uiso   1.00
C808   C     0.03066   0.76337   0.04031   0.00000  Uiso   1.00
C809   C     0.09812   0.84813   0.25000   0.00000  Uiso   1.00
C810   C     0.40188   0.65187   0.74998   0.00000  Uiso   1.00
C811   C     0.15187   0.59812   0.25000   0.00000  Uiso   1.00
C812   C     0.34813   0.90188   0.74998   0.00000  Uiso   1.00
C813   C     0.40188   0.65187   0.25000   0.00000  Uiso   1.00
C814   C     0.09812   0.84813   0.74998   0.00000  Uiso   1.00
C815   C     0.34813   0.90188   0.25000   0.00000  Uiso   1.00
C816   C     0.02725   0.76957   0.08067   0.00000  Uiso   1.00
C817   C     0.15187   0.59812   0.74998   0.00000  Uiso   1.00
C818   C     0.09815   0.65189   0.75002   0.00000  Uiso   1.00
C819   C     0.40191   0.84816   0.25004   0.00000  Uiso   1.00
C820   C     0.15189   0.90185   0.75002   0.00000  Uiso   1.00
C821   C     0.34816   0.59809   0.25004   0.00000  Uiso   1.00
C822   C     0.40185   0.84811   0.75002   0.00000  Uiso   1.00
C823   C     0.09809   0.65184   0.25004   0.00000  Uiso   1.00
C824   C     0.34811   0.59815   0.75002   0.00000  Uiso   1.00
C825   C     0.15184   0.90191   0.25005   0.00000  Uiso   1.00
C826   C    -0.00000   0.75000   0.47974   0.00000  Uiso   1.00
C827   C     0.25576   0.96699   0.91805   0.00000  Uiso   1.00
C828   C     0.00000   0.75000   0.52025   0.00000  Uiso   1.00
C829   C     0.24996   0.50000   0.47971   0.00000  Uiso   1.00
C830   C     0.24996   0.50000   0.52022   0.00000  Uiso   1.00
C831   C     0.25000   0.50000   0.97894   0.00000  Uiso   1.00
C832   C     0.25000   0.50000   0.01985   0.00000  Uiso   1.00
C833   C     0.00000   0.75000   0.97893   0.00000  Uiso   1.00
C834   C     0.00000   0.75000   0.01985   0.00000  Uiso   1.00
C835   C     0.40034   0.73524   0.45846   0.00000  Uiso   1.00
C836   C     0.09960   0.73487   0.54153   0.00000  Uiso   1.00
C837   C     0.23627   0.59982   0.45846   0.00000  Uiso   1.00
C838   C     0.23046   0.52727   0.08067   0.00000  Uiso   1.00
C839   C     0.23364   0.90060   0.54151   0.00000  Uiso   1.00
C840   C     0.09966   0.76476   0.45846   0.00000  Uiso   1.00
C841   C     0.40040   0.76514   0.54153   0.00000  Uiso   1.00
C842   C     0.26357   0.90016   0.45845   0.00000  Uiso   1.00
C843   C     0.26618   0.59943   0.54152   0.00000  Uiso   1.00
C844   C     0.30876   0.91831   0.96179   0.00000  Uiso   1.00
C845   C     0.23529   0.59928   0.03720   0.00000  Uiso   1.00
C846   C     0.08164   0.80882   0.96179   0.00000  Uiso   1.00
C847   C     0.40074   0.73521   0.03720   0.00000  Uiso   1.00
C848   C     0.19124   0.58169   0.96179   0.00000  Uiso   1.00
C849   C     0.03301   0.75579   0.91805   0.00000  Uiso   1.00
C850   C     0.26471   0.90072   0.03720   0.00000  Uiso   1.00
C851   C     0.41836   0.69118   0.96179   0.00000  Uiso   1.00
C852   C     0.09926   0.76479   0.03720   0.00000  Uiso   1.00
C853   C     0.05925   0.71179   0.40226   0.00000  Uiso   1.00
C854   C     0.04140   0.67634   0.38841   0.00000  Uiso   1.00
C855   C     0.44061   0.71201   0.59772   0.00000  Uiso   1.00
C856   C     0.45831   0.67649   0.61155   0.00000  Uiso   1.00
C857   C     0.21119   0.94114   0.40216   0.00000  Uiso   1.00
C858   C     0.17594   0.95933   0.38824   0.00000  Uiso   1.00
C859   C     0.21256   0.55977   0.59765   0.00000  Uiso   1.00
C860   C     0.47275   0.73043   0.08067   0.00000  Uiso   1.00
C861   C     0.17686   0.54241   0.61146   0.00000  Uiso   1.00
C862   C     0.44075   0.78821   0.40226   0.00000  Uiso   1.00
C863   C     0.45860   0.82366   0.38840   0.00000  Uiso   1.00
C864   C     0.05939   0.78799   0.59772   0.00000  Uiso   1.00
C865   C     0.04169   0.82351   0.61156   0.00000  Uiso   1.00
C866   C     0.28874   0.55888   0.40219   0.00000  Uiso   1.00
C867   C     0.32401   0.54072   0.38830   0.00000  Uiso   1.00
C868   C     0.28734   0.94018   0.59763   0.00000  Uiso   1.00
C869   C     0.32308   0.95750   0.61141   0.00000  Uiso   1.00
C870   C     0.25030   0.56943   0.89725   0.00000  Uiso   1.00
C871   C    -0.00000   0.75000   0.39868   0.00000  Uiso   1.00
C872   C     0.29092   0.57639   0.89022   0.00000  Uiso   1.00
C873   C     0.30065   0.95168   0.10012   0.00000  Uiso   1.00
C874   C     0.33534   0.97489   0.10155   0.00000  Uiso   1.00
C875   C     0.43057   0.75024   0.89725   0.00000  Uiso   1.00
C876   C     0.42358   0.79086   0.89020   0.00000  Uiso   1.00
C877   C     0.04828   0.80069   0.10011   0.00000  Uiso   1.00
C878   C     0.02503   0.83536   0.10155   0.00000  Uiso   1.00
C879   C     0.24970   0.93057   0.89725   0.00000  Uiso   1.00
C880   C     0.20908   0.92361   0.89022   0.00000  Uiso   1.00
C881   C     0.19935   0.54832   0.10012   0.00000  Uiso   1.00
C882   C     0.00000   0.75000   0.60131   0.00000  Uiso   1.00
C883   C     0.16466   0.52511   0.10154   0.00000  Uiso   1.00
C884   C     0.06943   0.74976   0.89725   0.00000  Uiso   1.00
C885   C     0.07642   0.70914   0.89020   0.00000  Uiso   1.00
C886   C     0.45172   0.69931   0.10011   0.00000  Uiso   1.00
C887   C     0.47497   0.66464   0.10155   0.00000  Uiso   1.00
C888   C     0.24998   0.50000   0.39866   0.00000  Uiso   1.00
C889   C     0.46860   0.73847   0.58043   0.00000  Uiso   1.00
C890   C     0.24998   0.50000   0.60129   0.00000  Uiso   1.00
C891   C     0.25000   0.50000   0.89793   0.00000  Uiso   1.00
C892   C     0.25000   0.50000   0.10126   0.00000  Uiso   1.00
C893   C     0.00000   0.75000   0.89793   0.00000  Uiso   1.00
C894   C     0.00000   0.75000   0.10126   0.00000  Uiso   1.00
C895   C     0.43327   0.74906   0.47954   0.00000  Uiso   1.00
C896   C     0.06673   0.74881   0.52045   0.00000  Uiso   1.00
C897   C     0.24975   0.56674   0.47952   0.00000  Uiso   1.00
C898   C     0.24799   0.93329   0.52043   0.00000  Uiso   1.00
C899   C     0.06673   0.75094   0.47954   0.00000  Uiso   1.00
C900   C     0.23800   0.96877   0.41952   0.00000  Uiso   1.00
C901   C     0.43327   0.75120   0.52045   0.00000  Uiso   1.00
C902   C     0.25013   0.93325   0.47951   0.00000  Uiso   1.00
C903   C     0.25189   0.56671   0.52043   0.00000  Uiso   1.00
C904   C     0.27826   0.93970   0.97939   0.00000  Uiso   1.00
C905   C     0.22807   0.56279   0.01948   0.00000  Uiso   1.00
C906   C     0.06028   0.77831   0.97938   0.00000  Uiso   1.00
C907   C     0.43723   0.72802   0.01948   0.00000  Uiso   1.00
C908   C     0.22174   0.56030   0.97939   0.00000  Uiso   1.00
C909   C     0.27193   0.93721   0.01948   0.00000  Uiso   1.00
C910   C     0.43972   0.72169   0.97938   0.00000  Uiso   1.00
C911   C     0.23877   0.53151   0.58041   0.00000  Uiso   1.00
C912   C     0.06277   0.77198   0.01948   0.00000  Uiso   1.00
C913   C     0.25000   0.50000   0.35601   0.00000  Uiso   1.00
C914   C     0.25000   0.50000   0.64397   0.00000  Uiso   1.00
C915   C    -0.00000   0.75000   0.35602   0.00000  Uiso   1.00
C916   C     0.00000   0.75000   0.64398   0.00000  Uiso   1.00
C917   C    -0.00000   0.75000   0.85571   0.00000  Uiso   1.00
C918   C     0.00000   0.75000   0.14398   0.00000  Uiso   1.00
C919   C     0.25000   0.50000   0.85571   0.00000  Uiso   1.00
C920   C     0.25000   0.50000   0.14398   0.00000  Uiso   1.00
C921   C     0.17994   0.57006   0.24999   0.00000  Uiso   1.00
C922   C     0.46865   0.76165   0.41955   0.00000  Uiso   1.00
C923   C     0.32006   0.92995   0.74999   0.00000  Uiso   1.00
C924   C     0.42994   0.67994   0.24999   0.00000  Uiso   1.00
C925   C     0.07005   0.82007   0.74999   0.00000  Uiso   1.00
C926   C     0.32005   0.92994   0.24999   0.00000  Uiso   1.00
C927   C     0.17993   0.57005   0.74999   0.00000  Uiso   1.00
C928   C     0.07006   0.82006   0.24999   0.00000  Uiso   1.00
C929   C     0.42995   0.67993   0.74999   0.00000  Uiso   1.00
C930   C     0.17995   0.92993   0.75002   0.00000  Uiso   1.00
C931   C     0.32007   0.57004   0.25002   0.00000  Uiso   1.00
C932   C     0.42993   0.82005   0.75001   0.00000  Uiso   1.00
C933   C     0.03140   0.76153   0.58043   0.00000  Uiso   1.00
C934   C     0.07004   0.67993   0.25002   0.00000  Uiso   1.00
C935   C     0.32005   0.57007   0.75001   0.00000  Uiso   1.00
C936   C     0.17993   0.92996   0.25002   0.00000  Uiso   1.00
C937   C     0.07007   0.67995   0.75001   0.00000  Uiso   1.00
C938   C     0.42996   0.82007   0.25002   0.00000  Uiso   1.00
C939   C     0.12280   0.90394   0.22366   0.00000  Uiso   1.00
C940   C     0.37716   0.59610   0.77638   0.00000  Uiso   1.00
C941   C     0.09606   0.62281   0.22365   0.00000  Uiso   1.00
C942   C     0.40390   0.87715   0.77639   0.00000  Uiso   1.00
C943   C     0.37720   0.59606   0.22366   0.00000  Uiso   1.00
C944   C     0.26194   0.53124   0.41953   0.00000  Uiso   1.00
C945   C     0.12284   0.90390   0.77638   0.00000  Uiso   1.00
C946   C     0.40393   0.87719   0.22365   0.00000  Uiso   1.00
C947   C     0.09610   0.62285   0.77639   0.00000  Uiso   1.00
C948   C     0.12283   0.59608   0.77636   0.00000  Uiso   1.00
C949   C     0.37717   0.90392   0.22362   0.00000  Uiso   1.00
C950   C     0.09608   0.87717   0.77636   0.00000  Uiso   1.00
C951   C     0.40392   0.62283   0.22363   0.00000  Uiso   1.00
C952   C     0.37717   0.90392   0.77636   0.00000  Uiso   1.00
C953   C     0.12283   0.59608   0.22362   0.00000  Uiso   1.00
C954   C     0.40392   0.62283   0.77636   0.00000  Uiso   1.00
C955   C     0.26117   0.96847   0.58040   0.00000  Uiso   1.00
C956   C     0.09608   0.87717   0.22363   0.00000  Uiso   1.00
C957   C     0.37284   0.65391   0.72361   0.00000  Uiso   1.00
C958   C     0.12715   0.84611   0.27640   0.00000  Uiso   1.00
C959   C     0.34609   0.87284   0.72361   0.00000  Uiso   1.00
C960   C     0.15388   0.62714   0.27641   0.00000  Uiso   1.00
C961   C     0.12716   0.84609   0.72361   0.00000  Uiso   1.00
C962   C     0.37285   0.65389   0.27640   0.00000  Uiso   1.00
C963   C     0.15391   0.62716   0.72361   0.00000  Uiso   1.00
C964   C     0.34611   0.87286   0.27641   0.00000  Uiso   1.00
C965   C     0.37288   0.84613   0.27644   0.00000  Uiso   1.00
C966   C     0.24424   0.53301   0.91805   0.00000  Uiso   1.00
C967   C     0.12719   0.65393   0.72364   0.00000  Uiso   1.00
C968   C     0.34613   0.62712   0.27643   0.00000  Uiso   1.00
C969   C     0.15393   0.87281   0.72364   0.00000  Uiso   1.00
C970   C     0.12712   0.65387   0.27644   0.00000  Uiso   1.00
C971   C     0.37281   0.84607   0.72364   0.00000  Uiso   1.00
C972   C     0.15387   0.87288   0.27643   0.00000  Uiso   1.00
C973   C     0.34607   0.62719   0.72364   0.00000  Uiso   1.00
C974   C     0.46676   0.75292   0.45936   0.00000  Uiso   1.00
C975   C     0.03325   0.75279   0.54063   0.00000  Uiso   1.00
C976   C     0.25324   0.53321   0.45934   0.00000  Uiso   1.00
H977   H     0.12074   0.92611   0.20299   0.00000  Uiso   1.00
H978   H     0.37921   0.92607   0.20292   0.00000  Uiso   1.00
H979   H     0.44485   0.80319   0.87157   0.00000  Uiso   1.00
H980   H     0.39679   0.79443   0.87560   0.00000  Uiso   1.00
H981   H     0.42990   0.73506   0.86937   0.00000  Uiso   1.00
H982   H     0.40681   0.74085   0.91422   0.00000  Uiso   1.00
H983   H     0.49788   0.83032   0.11469   0.00000  Uiso   1.00
H984   H     0.03933   0.85658   0.11883   0.00000  Uiso   1.00
H985   H     0.02079   0.84595   0.07168   0.00000  Uiso   1.00
H986   H     0.05774   0.79279   0.12950   0.00000  Uiso   1.00
H987   H     0.07328   0.80866   0.08442   0.00000  Uiso   1.00
H988   H     0.19424   0.92293   0.91832   0.00000  Uiso   1.00
H989   H     0.07390   0.87924   0.79702   0.00000  Uiso   1.00
H990   H     0.19675   0.94489   0.87160   0.00000  Uiso   1.00
H991   H     0.20548   0.89683   0.87561   0.00000  Uiso   1.00
H992   H     0.26487   0.92989   0.86937   0.00000  Uiso   1.00
H993   H     0.25909   0.90680   0.91421   0.00000  Uiso   1.00
H994   H     0.16968   0.99795   0.11468   0.00000  Uiso   1.00
H995   H     0.14346   0.53943   0.11882   0.00000  Uiso   1.00
H996   H     0.15408   0.52089   0.07168   0.00000  Uiso   1.00
H997   H     0.20726   0.55777   0.12951   0.00000  Uiso   1.00
H998   H     0.19141   0.57333   0.08443   0.00000  Uiso   1.00
H999   H     0.07710   0.69429   0.91829   0.00000  Uiso   1.00
H1000  H     0.42608   0.62079   0.20293   0.00000  Uiso   1.00
H1001  H     0.05515   0.69681   0.87157   0.00000  Uiso   1.00
H1002  H     0.10320   0.70557   0.87560   0.00000  Uiso   1.00
H1003  H     0.07010   0.76494   0.86937   0.00000  Uiso   1.00
H1004  H     0.09319   0.75915   0.91422   0.00000  Uiso   1.00
H1005  H     0.47921   0.65405   0.07168   0.00000  Uiso   1.00
H1006  H     0.00212   0.66968   0.11469   0.00000  Uiso   1.00
H1007  H     0.46067   0.64342   0.11883   0.00000  Uiso   1.00
H1008  H     0.44226   0.70721   0.12950   0.00000  Uiso   1.00
H1009  H     0.42673   0.69134   0.08442   0.00000  Uiso   1.00
H1010  H     0.37924   0.92609   0.79702   0.00000  Uiso   1.00
H1011  H     0.12079   0.57393   0.20292   0.00000  Uiso   1.00
H1012  H     0.42610   0.62076   0.79702   0.00000  Uiso   1.00
H1013  H     0.07392   0.87921   0.20293   0.00000  Uiso   1.00
H1014  H     0.37079   0.67608   0.70293   0.00000  Uiso   1.00
H1015  H     0.12921   0.82394   0.29707   0.00000  Uiso   1.00
H1016  H     0.32393   0.87080   0.70292   0.00000  Uiso   1.00
H1017  H     0.37921   0.57393   0.79706   0.00000  Uiso   1.00
H1018  H     0.17605   0.62920   0.29708   0.00000  Uiso   1.00
H1019  H     0.12921   0.82392   0.70293   0.00000  Uiso   1.00
H1020  H     0.37079   0.67606   0.29707   0.00000  Uiso   1.00
H1021  H     0.17607   0.62920   0.70292   0.00000  Uiso   1.00
H1022  H     0.32394   0.87080   0.29708   0.00000  Uiso   1.00
H1023  H     0.37085   0.82398   0.29714   0.00000  Uiso   1.00
H1024  H     0.12925   0.67611   0.70298   0.00000  Uiso   1.00
H1025  H     0.32397   0.62916   0.29713   0.00000  Uiso   1.00
H1026  H     0.17611   0.87074   0.70299   0.00000  Uiso   1.00
H1027  H     0.12915   0.67602   0.29714   0.00000  Uiso   1.00
H1028  H     0.07390   0.62075   0.20298   0.00000  Uiso   1.00
H1029  H     0.37075   0.82389   0.70298   0.00000  Uiso   1.00
H1030  H     0.17602   0.87084   0.29713   0.00000  Uiso   1.00
H1031  H     0.32389   0.62926   0.70299   0.00000  Uiso   1.00
H1032  H     0.39973   0.73421   0.42709   0.00000  Uiso   1.00
H1033  H     0.10019   0.73380   0.57290   0.00000  Uiso   1.00
H1034  H     0.23515   0.60041   0.42709   0.00000  Uiso   1.00
H1035  H     0.23269   0.89996   0.57288   0.00000  Uiso   1.00
H1036  H     0.10027   0.76578   0.42709   0.00000  Uiso   1.00
H1037  H     0.39981   0.76620   0.57290   0.00000  Uiso   1.00
H1038  H     0.26478   0.89960   0.42709   0.00000  Uiso   1.00
H1039  H     0.42606   0.87921   0.79707   0.00000  Uiso   1.00
H1040  H     0.26717   0.60004   0.57289   0.00000  Uiso   1.00
H1041  H     0.31691   0.92319   0.93198   0.00000  Uiso   1.00
H1042  H     0.24442   0.60129   0.06706   0.00000  Uiso   1.00
H1043  H     0.07676   0.81697   0.93198   0.00000  Uiso   1.00
H1044  H     0.39871   0.74433   0.06706   0.00000  Uiso   1.00
H1045  H     0.18309   0.57681   0.93199   0.00000  Uiso   1.00
H1046  H     0.25558   0.89871   0.06706   0.00000  Uiso   1.00
H1047  H     0.42324   0.68303   0.93198   0.00000  Uiso   1.00
H1048  H     0.10129   0.75567   0.06706   0.00000  Uiso   1.00
H1049  H     0.02313   0.68107   0.36329   0.00000  Uiso   1.00
H1050  H     0.37926   0.57389   0.20299   0.00000  Uiso   1.00
H1051  H     0.06291   0.65679   0.37923   0.00000  Uiso   1.00
H1052  H     0.02544   0.66379   0.41235   0.00000  Uiso   1.00
H1053  H     0.07519   0.72453   0.37854   0.00000  Uiso   1.00
H1054  H     0.07953   0.70329   0.42440   0.00000  Uiso   1.00
H1055  H     0.47419   0.66387   0.58759   0.00000  Uiso   1.00
H1056  H     0.47664   0.68114   0.63664   0.00000  Uiso   1.00
H1057  H     0.43673   0.65704   0.62077   0.00000  Uiso   1.00
H1058  H     0.42471   0.72481   0.62143   0.00000  Uiso   1.00
H1059  H     0.42029   0.70359   0.57557   0.00000  Uiso   1.00
H1060  H     0.18089   0.97753   0.36311   0.00000  Uiso   1.00
H1061  H     0.12079   0.92607   0.79706   0.00000  Uiso   1.00
H1062  H     0.15619   0.93802   0.37906   0.00000  Uiso   1.00
H1063  H     0.16353   0.97544   0.41215   0.00000  Uiso   1.00
H1064  H     0.22382   0.92509   0.37846   0.00000  Uiso   1.00
H1065  H     0.20245   0.92093   0.42428   0.00000  Uiso   1.00
H1066  H     0.16410   0.52666   0.58749   0.00000  Uiso   1.00
H1067  H     0.18132   0.52402   0.63654   0.00000  Uiso   1.00
H1068  H     0.15762   0.56417   0.62067   0.00000  Uiso   1.00
H1069  H     0.22550   0.57556   0.62136   0.00000  Uiso   1.00
H1070  H     0.20436   0.58015   0.57549   0.00000  Uiso   1.00
H1071  H     0.47687   0.81893   0.36329   0.00000  Uiso   1.00
H1072  H     0.42610   0.87925   0.20298   0.00000  Uiso   1.00
H1073  H     0.43709   0.84321   0.37922   0.00000  Uiso   1.00
H1074  H     0.47456   0.83621   0.41234   0.00000  Uiso   1.00
H1075  H     0.42481   0.77547   0.37854   0.00000  Uiso   1.00
H1076  H     0.42047   0.79671   0.42440   0.00000  Uiso   1.00
H1077  H     0.02581   0.83614   0.58760   0.00000  Uiso   1.00
H1078  H     0.02336   0.81886   0.63664   0.00000  Uiso   1.00
H1079  H     0.06327   0.84296   0.62078   0.00000  Uiso   1.00
H1080  H     0.07529   0.77519   0.62143   0.00000  Uiso   1.00
H1081  H     0.07971   0.79641   0.57558   0.00000  Uiso   1.00
H1082  H     0.31909   0.52251   0.36317   0.00000  Uiso   1.00
H1083  H     0.07394   0.62079   0.79706   0.00000  Uiso   1.00
H1084  H     0.34376   0.56204   0.37912   0.00000  Uiso   1.00
H1085  H     0.33643   0.52462   0.41222   0.00000  Uiso   1.00
H1086  H     0.27612   0.57492   0.37847   0.00000  Uiso   1.00
H1087  H     0.29745   0.57910   0.42431   0.00000  Uiso   1.00
H1088  H     0.31866   0.97594   0.63645   0.00000  Uiso   1.00
H1089  H     0.34228   0.93571   0.62067   0.00000  Uiso   1.00
H1090  H     0.33588   0.97317   0.58740   0.00000  Uiso   1.00
H1091  H     0.27440   0.92441   0.62135   0.00000  Uiso   1.00
H1092  H     0.29550   0.91978   0.57546   0.00000  Uiso   1.00
H1093  H     0.30576   0.57707   0.91832   0.00000  Uiso   1.00
H1094  H     0.12076   0.57391   0.79702   0.00000  Uiso   1.00
H1095  H     0.30325   0.55511   0.87160   0.00000  Uiso   1.00
H1096  H     0.29452   0.60317   0.87561   0.00000  Uiso   1.00
H1097  H     0.23513   0.57011   0.86937   0.00000  Uiso   1.00
H1098  H     0.24091   0.59320   0.91421   0.00000  Uiso   1.00
H1099  H     0.33032   0.50205   0.11468   0.00000  Uiso   1.00
H1100  H     0.35654   0.96057   0.11882   0.00000  Uiso   1.00
H1101  H     0.34592   0.97911   0.07168   0.00000  Uiso   1.00
H1102  H     0.29274   0.94223   0.12951   0.00000  Uiso   1.00
H1103  H     0.30859   0.92667   0.08443   0.00000  Uiso   1.00
H1104  H     0.42290   0.80571   0.91829   0.00000  Uiso   1.00
O1105  O     0.25000   0.50000   0.25000   0.00000  Uiso   1.00
O1106  O     0.25000   0.96964   0.66245   0.00000  Uiso   1.00
O1107  O     0.46963   0.75000   0.33755   0.00000  Uiso   1.00
O1108  O     0.03036   0.75000   0.66245   0.00000  Uiso   1.00
O1109  O    -0.00000   0.71963   0.83755   0.00000  Uiso   1.00
O1110  O     0.00000   0.78037   0.16245   0.00000  Uiso   1.00
O1111  O     0.28036   0.50000   0.83755   0.00000  Uiso   1.00
O1112  O     0.21963   0.50000   0.16245   0.00000  Uiso   1.00
O1113  O    -0.00000   0.78036   0.83755   0.00000  Uiso   1.00
O1114  O     0.00000   0.71964   0.16245   0.00000  Uiso   1.00
O1115  O     0.21963   0.50000   0.83755   0.00000  Uiso   1.00
O1116  O     0.25000   0.50000   0.75000   0.00000  Uiso   1.00
O1117  O     0.28036   0.50000   0.16245   0.00000  Uiso   1.00
O1118  O     0.20724   0.57307   0.27302   0.00000  Uiso   1.00
O1119  O     0.29275   0.92693   0.72698   0.00000  Uiso   1.00
O1120  O     0.42692   0.70724   0.27302   0.00000  Uiso   1.00
O1121  O     0.07307   0.79276   0.72698   0.00000  Uiso   1.00
O1122  O     0.29275   0.92693   0.27302   0.00000  Uiso   1.00
O1123  O     0.20724   0.57307   0.72698   0.00000  Uiso   1.00
O1124  O     0.07307   0.79276   0.27302   0.00000  Uiso   1.00
O1125  O     0.42692   0.70724   0.72698   0.00000  Uiso   1.00
O1126  O     0.20724   0.92693   0.72698   0.00000  Uiso   1.00
O1127  O     0.00000   0.75000   0.25000   0.00000  Uiso   1.00
O1128  O     0.29275   0.57307   0.27302   0.00000  Uiso   1.00
O1129  O     0.42692   0.79275   0.72698   0.00000  Uiso   1.00
O1130  O     0.07307   0.70725   0.27302   0.00000  Uiso   1.00
O1131  O     0.29275   0.57307   0.72698   0.00000  Uiso   1.00
O1132  O     0.20724   0.92693   0.27302   0.00000  Uiso   1.00
O1133  O     0.07307   0.70725   0.72698   0.00000  Uiso   1.00
O1134  O     0.42692   0.79275   0.27302   0.00000  Uiso   1.00
O1135  O     0.45724   0.82307   0.77302   0.00000  Uiso   1.00
O1136  O     0.04275   0.67693   0.22698   0.00000  Uiso   1.00
O1137  O     0.17692   0.95725   0.77302   0.00000  Uiso   1.00
O1138  O    -0.00000   0.75000   0.75000   0.00000  Uiso   1.00
O1139  O     0.32307   0.54275   0.22698   0.00000  Uiso   1.00
O1140  O     0.04275   0.67693   0.77302   0.00000  Uiso   1.00
O1141  O     0.45724   0.82307   0.22698   0.00000  Uiso   1.00
O1142  O     0.32307   0.54275   0.77302   0.00000  Uiso   1.00
O1143  O     0.17692   0.95725   0.22698   0.00000  Uiso   1.00
O1144  O     0.45724   0.67692   0.22698   0.00000  Uiso   1.00
O1145  O     0.04275   0.82308   0.77302   0.00000  Uiso   1.00
O1146  O     0.17692   0.54275   0.22698   0.00000  Uiso   1.00
O1147  O     0.32307   0.95725   0.77302   0.00000  Uiso   1.00
O1148  O     0.04275   0.82308   0.22698   0.00000  Uiso   1.00
O1149  O     0.25000   0.96964   0.33755   0.00000  Uiso   1.00
O1150  O     0.45724   0.67692   0.77302   0.00000  Uiso   1.00
O1151  O     0.32307   0.95725   0.22698   0.00000  Uiso   1.00
O1152  O     0.17692   0.54275   0.77302   0.00000  Uiso   1.00
O1153  O     0.37447   0.72204   0.47583   0.00000  Uiso   1.00
O1154  O     0.12545   0.72161   0.52416   0.00000  Uiso   1.00
O1155  O     0.22344   0.62588   0.47584   0.00000  Uiso   1.00
O1156  O     0.21992   0.87499   0.52415   0.00000  Uiso   1.00
O1157  O     0.12553   0.77797   0.47583   0.00000  Uiso   1.00
O1158  O     0.37456   0.77841   0.52416   0.00000  Uiso   1.00
O1159  O     0.27627   0.87404   0.47584   0.00000  Uiso   1.00
O1160  O     0.25000   0.53036   0.66245   0.00000  Uiso   1.00
O1161  O     0.27981   0.62508   0.52416   0.00000  Uiso   1.00
O1162  O     0.32669   0.89670   0.98087   0.00000  Uiso   1.00
O1163  O     0.23341   0.62733   0.01818   0.00000  Uiso   1.00
O1164  O     0.10324   0.82677   0.98087   0.00000  Uiso   1.00
O1165  O     0.37268   0.73331   0.01818   0.00000  Uiso   1.00
O1166  O     0.17331   0.60330   0.98087   0.00000  Uiso   1.00
O1167  O     0.26659   0.87267   0.01818   0.00000  Uiso   1.00
O1168  O     0.39676   0.67323   0.98087   0.00000  Uiso   1.00
O1169  O     0.12732   0.76669   0.01818   0.00000  Uiso   1.00
O1170  O     0.03036   0.75000   0.33755   0.00000  Uiso   1.00
O1171  O     0.46963   0.75000   0.66245   0.00000  Uiso   1.00
O1172  O     0.25000   0.53036   0.33755   0.00000  Uiso   1.00
Zn1173 Zn    0.20659   0.50000   0.21735   0.00000  Uiso   1.00
Zn1174 Zn    0.04340   0.75000   0.28265   0.00000  Uiso   1.00
Zn1175 Zn    0.25000   0.95660   0.71735   0.00000  Uiso   1.00
Zn1176 Zn    0.25000   0.54340   0.28265   0.00000  Uiso   1.00
Zn1177 Zn    0.04340   0.75000   0.71735   0.00000  Uiso   1.00
Zn1178 Zn    0.45659   0.75000   0.28265   0.00000  Uiso   1.00
Zn1179 Zn    0.25000   0.54340   0.71735   0.00000  Uiso   1.00
Zn1180 Zn    0.25000   0.95660   0.28265   0.00000  Uiso   1.00
Zn1181 Zn    0.29340   0.50000   0.78265   0.00000  Uiso   1.00
Zn1182 Zn    0.00000   0.70660   0.21735   0.00000  Uiso   1.00
Zn1183 Zn    0.00000   0.79341   0.78265   0.00000  Uiso   1.00
Zn1184 Zn    0.29340   0.50000   0.21735   0.00000  Uiso   1.00
Zn1185 Zn    0.20659   0.50000   0.78265   0.00000  Uiso   1.00
Zn1186 Zn   -0.00000   0.79340   0.21735   0.00000  Uiso   1.00
Zn1187 Zn   -0.00000   0.70659   0.78265   0.00000  Uiso   1.00
Zn1188 Zn    0.45659   0.75000   0.71735   0.00000  Uiso   1.00
C1189  C     0.53135   0.73835   0.41955   0.00000  Uiso   1.00
C1190  C     0.76954   0.97273   0.08067   0.00000  Uiso   1.00
C1191  C     0.75237   0.96672   0.54060   0.00000  Uiso   1.00
C1192  C     0.53324   0.74708   0.45936   0.00000  Uiso   1.00
C1193  C     0.96675   0.74721   0.54063   0.00000  Uiso   1.00
C1194  C     0.74668   0.96679   0.45933   0.00000  Uiso   1.00
C1195  C     0.74754   0.53327   0.54060   0.00000  Uiso   1.00
C1196  C     0.76210   0.96871   0.95849   0.00000  Uiso   1.00
C1197  C     0.73665   0.53067   0.04031   0.00000  Uiso   1.00
C1198  C     0.53128   0.76213   0.95849   0.00000  Uiso   1.00
C1199  C     0.96934   0.73663   0.04031   0.00000  Uiso   1.00
C1200  C     0.73790   0.53129   0.95849   0.00000  Uiso   1.00
C1201  C     0.96699   0.74422   0.91805   0.00000  Uiso   1.00
C1202  C     0.76334   0.96933   0.04031   0.00000  Uiso   1.00
C1203  C     0.96872   0.73787   0.95849   0.00000  Uiso   1.00
C1204  C     0.53066   0.76337   0.04031   0.00000  Uiso   1.00
C1205  C     0.59812   0.84813   0.25000   0.00000  Uiso   1.00
C1206  C     0.90188   0.65187   0.74998   0.00000  Uiso   1.00
C1207  C     0.65187   0.59812   0.25000   0.00000  Uiso   1.00
C1208  C     0.84813   0.90188   0.74998   0.00000  Uiso   1.00
C1209  C     0.90188   0.65187   0.25000   0.00000  Uiso   1.00
C1210  C     0.59812   0.84813   0.74998   0.00000  Uiso   1.00
C1211  C     0.84813   0.90188   0.25000   0.00000  Uiso   1.00
C1212  C     0.52725   0.76957   0.08067   0.00000  Uiso   1.00
C1213  C     0.65187   0.59812   0.74998   0.00000  Uiso   1.00
C1214  C     0.59815   0.65189   0.75002   0.00000  Uiso   1.00
C1215  C     0.90191   0.84816   0.25004   0.00000  Uiso   1.00
C1216  C     0.65189   0.90185   0.75002   0.00000  Uiso   1.00
C1217  C     0.84816   0.59809   0.25004   0.00000  Uiso   1.00
C1218  C     0.90185   0.84811   0.75002   0.00000  Uiso   1.00
C1219  C     0.59809   0.65184   0.25004   0.00000  Uiso   1.00
C1220  C     0.84811   0.59815   0.75002   0.00000  Uiso   1.00
C1221  C     0.65184   0.90191   0.25005   0.00000  Uiso   1.00
C1222  C     0.50000   0.75000   0.47974   0.00000  Uiso   1.00
C1223  C     0.75576   0.96699   0.91805   0.00000  Uiso   1.00
C1224  C     0.50000   0.75000   0.52025   0.00000  Uiso   1.00
C1225  C     0.74996   0.50000   0.47971   0.00000  Uiso   1.00
C1226  C     0.74996   0.50000   0.52022   0.00000  Uiso   1.00
C1227  C     0.75000   0.50000   0.97894   0.00000  Uiso   1.00
C1228  C     0.75000   0.50000   0.01985   0.00000  Uiso   1.00
C1229  C     0.50000   0.75000   0.97893   0.00000  Uiso   1.00
C1230  C     0.50000   0.75000   0.01985   0.00000  Uiso   1.00
C1231  C     0.90034   0.73524   0.45846   0.00000  Uiso   1.00
C1232  C     0.59960   0.73487   0.54153   0.00000  Uiso   1.00
C1233  C     0.73627   0.59982   0.45846   0.00000  Uiso   1.00
C1234  C     0.73046   0.52727   0.08067   0.00000  Uiso   1.00
C1235  C     0.73364   0.90060   0.54151   0.00000  Uiso   1.00
C1236  C     0.59966   0.76476   0.45846   0.00000  Uiso   1.00
C1237  C     0.90040   0.76514   0.54153   0.00000  Uiso   1.00
C1238  C     0.76357   0.90016   0.45845   0.00000  Uiso   1.00
C1239  C     0.76618   0.59943   0.54152   0.00000  Uiso   1.00
C1240  C     0.80876   0.91831   0.96179   0.00000  Uiso   1.00
C1241  C     0.73529   0.59928   0.03720   0.00000  Uiso   1.00
C1242  C     0.58164   0.80882   0.96179   0.00000  Uiso   1.00
C1243  C     0.90074   0.73521   0.03720   0.00000  Uiso   1.00
C1244  C     0.69124   0.58169   0.96179   0.00000  Uiso   1.00
C1245  C     0.53301   0.75579   0.91805   0.00000  Uiso   1.00
C1246  C     0.76471   0.90072   0.03720   0.00000  Uiso   1.00
C1247  C     0.91836   0.69118   0.96179   0.00000  Uiso   1.00
C1248  C     0.59926   0.76479   0.03720   0.00000  Uiso   1.00
C1249  C     0.55925   0.71179   0.40226   0.00000  Uiso   1.00
C1250  C     0.54140   0.67634   0.38841   0.00000  Uiso   1.00
C1251  C     0.94061   0.71201   0.59772   0.00000  Uiso   1.00
C1252  C     0.95831   0.67649   0.61155   0.00000  Uiso   1.00
C1253  C     0.71119   0.94114   0.40216   0.00000  Uiso   1.00
C1254  C     0.67594   0.95933   0.38824   0.00000  Uiso   1.00
C1255  C     0.71256   0.55977   0.59765   0.00000  Uiso   1.00
C1256  C     0.97275   0.73043   0.08067   0.00000  Uiso   1.00
C1257  C     0.67686   0.54241   0.61146   0.00000  Uiso   1.00
C1258  C     0.94075   0.78821   0.40226   0.00000  Uiso   1.00
C1259  C     0.95860   0.82366   0.38840   0.00000  Uiso   1.00
C1260  C     0.55939   0.78799   0.59772   0.00000  Uiso   1.00
C1261  C     0.54169   0.82351   0.61156   0.00000  Uiso   1.00
C1262  C     0.78874   0.55888   0.40219   0.00000  Uiso   1.00
C1263  C     0.82401   0.54072   0.38830   0.00000  Uiso   1.00
C1264  C     0.78734   0.94018   0.59763   0.00000  Uiso   1.00
C1265  C     0.82308   0.95750   0.61141   0.00000  Uiso   1.00
C1266  C     0.75030   0.56943   0.89725   0.00000  Uiso   1.00
C1267  C     0.50000   0.75000   0.39868   0.00000  Uiso   1.00
C1268  C     0.79092   0.57639   0.89022   0.00000  Uiso   1.00
C1269  C     0.80065   0.95168   0.10012   0.00000  Uiso   1.00
C1270  C     0.83534   0.97489   0.10155   0.00000  Uiso   1.00
C1271  C     0.93057   0.75024   0.89725   0.00000  Uiso   1.00
C1272  C     0.92358   0.79086   0.89020   0.00000  Uiso   1.00
C1273  C     0.54828   0.80069   0.10011   0.00000  Uiso   1.00
C1274  C     0.52503   0.83536   0.10155   0.00000  Uiso   1.00
C1275  C     0.74970   0.93057   0.89725   0.00000  Uiso   1.00
C1276  C     0.70908   0.92361   0.89022   0.00000  Uiso   1.00
C1277  C     0.69935   0.54832   0.10012   0.00000  Uiso   1.00
C1278  C     0.50000   0.75000   0.60131   0.00000  Uiso   1.00
C1279  C     0.66466   0.52511   0.10154   0.00000  Uiso   1.00
C1280  C     0.56943   0.74976   0.89725   0.00000  Uiso   1.00
C1281  C     0.57642   0.70914   0.89020   0.00000  Uiso   1.00
C1282  C     0.95172   0.69931   0.10011   0.00000  Uiso   1.00
C1283  C     0.97497   0.66464   0.10155   0.00000  Uiso   1.00
C1284  C     0.74998   0.50000   0.39866   0.00000  Uiso   1.00
C1285  C     0.96860   0.73847   0.58043   0.00000  Uiso   1.00
C1286  C     0.74998   0.50000   0.60129   0.00000  Uiso   1.00
C1287  C     0.75000   0.50000   0.89793   0.00000  Uiso   1.00
C1288  C     0.75000   0.50000   0.10126   0.00000  Uiso   1.00
C1289  C     0.50000   0.75000   0.89793   0.00000  Uiso   1.00
C1290  C     0.50000   0.75000   0.10126   0.00000  Uiso   1.00
C1291  C     0.93327   0.74906   0.47954   0.00000  Uiso   1.00
C1292  C     0.56673   0.74881   0.52045   0.00000  Uiso   1.00
C1293  C     0.74975   0.56674   0.47952   0.00000  Uiso   1.00
C1294  C     0.74799   0.93329   0.52043   0.00000  Uiso   1.00
C1295  C     0.56673   0.75094   0.47954   0.00000  Uiso   1.00
C1296  C     0.73800   0.96877   0.41952   0.00000  Uiso   1.00
C1297  C     0.93327   0.75120   0.52045   0.00000  Uiso   1.00
C1298  C     0.75013   0.93325   0.47951   0.00000  Uiso   1.00
C1299  C     0.75189   0.56671   0.52043   0.00000  Uiso   1.00
C1300  C     0.77826   0.93970   0.97939   0.00000  Uiso   1.00
C1301  C     0.72807   0.56279   0.01948   0.00000  Uiso   1.00
C1302  C     0.56028   0.77831   0.97938   0.00000  Uiso   1.00
C1303  C     0.93723   0.72802   0.01948   0.00000  Uiso   1.00
C1304  C     0.72174   0.56030   0.97939   0.00000  Uiso   1.00
C1305  C     0.77193   0.93721   0.01948   0.00000  Uiso   1.00
C1306  C     0.93972   0.72169   0.97938   0.00000  Uiso   1.00
C1307  C     0.73877   0.53151   0.58041   0.00000  Uiso   1.00
C1308  C     0.56277   0.77198   0.01948   0.00000  Uiso   1.00
C1309  C     0.75000   0.50000   0.35601   0.00000  Uiso   1.00
C1310  C     0.75000   0.50000   0.64397   0.00000  Uiso   1.00
C1311  C     0.50000   0.75000   0.35602   0.00000  Uiso   1.00
C1312  C     0.50000   0.75000   0.64398   0.00000  Uiso   1.00
C1313  C     0.50000   0.75000   0.85571   0.00000  Uiso   1.00
C1314  C     0.50000   0.75000   0.14398   0.00000  Uiso   1.00
C1315  C     0.75000   0.50000   0.85571   0.00000  Uiso   1.00
C1316  C     0.75000   0.50000   0.14398   0.00000  Uiso   1.00
C1317  C     0.67994   0.57006   0.24999   0.00000  Uiso   1.00
C1318  C     0.96865   0.76165   0.41955   0.00000  Uiso   1.00
C1319  C     0.82006   0.92995   0.74999   0.00000  Uiso   1.00
C1320  C     0.92994   0.67994   0.24999   0.00000  Uiso   1.00
C1321  C     0.57005   0.82007   0.74999   0.00000  Uiso   1.00
C1322  C     0.82005   0.92994   0.24999   0.00000  Uiso   1.00
C1323  C     0.67993   0.57005   0.74999   0.00000  Uiso   1.00
C1324  C     0.57006   0.82006   0.24999   0.00000  Uiso   1.00
C1325  C     0.92995   0.67993   0.74999   0.00000  Uiso   1.00
C1326  C     0.67995   0.92993   0.75002   0.00000  Uiso   1.00
C1327  C     0.82007   0.57004   0.25002   0.00000  Uiso   1.00
C1328  C     0.92993   0.82005   0.75001   0.00000  Uiso   1.00
C1329  C     0.53140   0.76153   0.58043   0.00000  Uiso   1.00
C1330  C     0.57004   0.67993   0.25002   0.00000  Uiso   1.00
C1331  C     0.82005   0.57007   0.75001   0.00000  Uiso   1.00
C1332  C     0.67993   0.92996   0.25002   0.00000  Uiso   1.00
C1333  C     0.57007   0.67995   0.75001   0.00000  Uiso   1.00
C1334  C     0.92996   0.82007   0.25002   0.00000  Uiso   1.00
C1335  C     0.62280   0.90394   0.22366   0.00000  Uiso   1.00
C1336  C     0.87716   0.59610   0.77638   0.00000  Uiso   1.00
C1337  C     0.59606   0.62281   0.22365   0.00000  Uiso   1.00
C1338  C     0.90390   0.87715   0.77639   0.00000  Uiso   1.00
C1339  C     0.87720   0.59606   0.22366   0.00000  Uiso   1.00
C1340  C     0.76194   0.53124   0.41953   0.00000  Uiso   1.00
C1341  C     0.62284   0.90390   0.77638   0.00000  Uiso   1.00
C1342  C     0.90393   0.87719   0.22365   0.00000  Uiso   1.00
C1343  C     0.59610   0.62285   0.77639   0.00000  Uiso   1.00
C1344  C     0.62283   0.59608   0.77636   0.00000  Uiso   1.00
C1345  C     0.87717   0.90392   0.22362   0.00000  Uiso   1.00
C1346  C     0.59608   0.87717   0.77636   0.00000  Uiso   1.00
C1347  C     0.90392   0.62283   0.22363   0.00000  Uiso   1.00
C1348  C     0.87717   0.90392   0.77636   0.00000  Uiso   1.00
C1349  C     0.62283   0.59608   0.22362   0.00000  Uiso   1.00
C1350  C     0.90392   0.62283   0.77636   0.00000  Uiso   1.00
C1351  C     0.76117   0.96847   0.58040   0.00000  Uiso   1.00
C1352  C     0.59608   0.87717   0.22363   0.00000  Uiso   1.00
C1353  C     0.87284   0.65391   0.72361   0.00000  Uiso   1.00
C1354  C     0.62715   0.84611   0.27640   0.00000  Uiso   1.00
C1355  C     0.84609   0.87284   0.72361   0.00000  Uiso   1.00
C1356  C     0.65388   0.62714   0.27641   0.00000  Uiso   1.00
C1357  C     0.62716   0.84609   0.72361   0.00000  Uiso   1.00
C1358  C     0.87285   0.65389   0.27640   0.00000  Uiso   1.00
C1359  C     0.65391   0.62716   0.72361   0.00000  Uiso   1.00
C1360  C     0.84611   0.87286   0.27641   0.00000  Uiso   1.00
C1361  C     0.87288   0.84613   0.27644   0.00000  Uiso   1.00
C1362  C     0.74424   0.53301   0.91805   0.00000  Uiso   1.00
C1363  C     0.62719   0.65393   0.72364   0.00000  Uiso   1.00
C1364  C     0.84613   0.62712   0.27643   0.00000  Uiso   1.00
C1365  C     0.65393   0.87281   0.72364   0.00000  Uiso   1.00
C1366  C     0.62712   0.65387   0.27644   0.00000  Uiso   1.00
C1367  C     0.87281   0.84607   0.72364   0.00000  Uiso   1.00
C1368  C     0.65387   0.87288   0.27643   0.00000  Uiso   1.00
C1369  C     0.84607   0.62719   0.72364   0.00000  Uiso   1.00
C1370  C     0.96676   0.75292   0.45936   0.00000  Uiso   1.00
C1371  C     0.53325   0.75279   0.54063   0.00000  Uiso   1.00
C1372  C     0.75324   0.53321   0.45934   0.00000  Uiso   1.00
H1373  H     0.62074   0.92611   0.20299   0.00000  Uiso   1.00
H1374  H     0.87921   0.92607   0.20292   0.00000  Uiso   1.00
H1375  H     0.94485   0.80319   0.87157   0.00000  Uiso   1.00
H1376  H     0.89679   0.79443   0.87560   0.00000  Uiso   1.00
H1377  H     0.92990   0.73506   0.86937   0.00000  Uiso   1.00
H1378  H     0.90681   0.74085   0.91422   0.00000  Uiso   1.00
H1379  H     0.99788   0.83032   0.11469   0.00000  Uiso   1.00
H1380  H     0.53933   0.85658   0.11883   0.00000  Uiso   1.00
H1381  H     0.52079   0.84595   0.07168   0.00000  Uiso   1.00
H1382  H     0.55774   0.79279   0.12950   0.00000  Uiso   1.00
H1383  H     0.57328   0.80866   0.08442   0.00000  Uiso   1.00
H1384  H     0.69424   0.92293   0.91832   0.00000  Uiso   1.00
H1385  H     0.57390   0.87924   0.79702   0.00000  Uiso   1.00
H1386  H     0.69675   0.94489   0.87160   0.00000  Uiso   1.00
H1387  H     0.70548   0.89683   0.87561   0.00000  Uiso   1.00
H1388  H     0.76487   0.92989   0.86937   0.00000  Uiso   1.00
H1389  H     0.75909   0.90680   0.91421   0.00000  Uiso   1.00
H1390  H     0.66968   0.99795   0.11468   0.00000  Uiso   1.00
H1391  H     0.64346   0.53943   0.11882   0.00000  Uiso   1.00
H1392  H     0.65408   0.52089   0.07168   0.00000  Uiso   1.00
H1393  H     0.70726   0.55777   0.12951   0.00000  Uiso   1.00
H1394  H     0.69141   0.57333   0.08443   0.00000  Uiso   1.00
H1395  H     0.57710   0.69429   0.91829   0.00000  Uiso   1.00
H1396  H     0.92608   0.62079   0.20293   0.00000  Uiso   1.00
H1397  H     0.55515   0.69681   0.87157   0.00000  Uiso   1.00
H1398  H     0.60320   0.70557   0.87560   0.00000  Uiso   1.00
H1399  H     0.57010   0.76494   0.86937   0.00000  Uiso   1.00
H1400  H     0.59319   0.75915   0.91422   0.00000  Uiso   1.00
H1401  H     0.97921   0.65405   0.07168   0.00000  Uiso   1.00
H1402  H     0.50212   0.66968   0.11469   0.00000  Uiso   1.00
H1403  H     0.96067   0.64342   0.11883   0.00000  Uiso   1.00
H1404  H     0.94226   0.70721   0.12950   0.00000  Uiso   1.00
H1405  H     0.92673   0.69134   0.08442   0.00000  Uiso   1.00
H1406  H     0.87924   0.92609   0.79702   0.00000  Uiso   1.00
H1407  H     0.62079   0.57393   0.20292   0.00000  Uiso   1.00
H1408  H     0.92610   0.62076   0.79702   0.00000  Uiso   1.00
H1409  H     0.57392   0.87921   0.20293   0.00000  Uiso   1.00
H1410  H     0.87079   0.67608   0.70293   0.00000  Uiso   1.00
H1411  H     0.62921   0.82394   0.29707   0.00000  Uiso   1.00
H1412  H     0.82393   0.87080   0.70292   0.00000  Uiso   1.00
H1413  H     0.87921   0.57393   0.79706   0.00000  Uiso   1.00
H1414  H     0.67605   0.62920   0.29708   0.00000  Uiso   1.00
H1415  H     0.62921   0.82392   0.70293   0.00000  Uiso   1.00
H1416  H     0.87079   0.67606   0.29707   0.00000  Uiso   1.00
H1417  H     0.67607   0.62920   0.70292   0.00000  Uiso   1.00
H1418  H     0.82394   0.87080   0.29708   0.00000  Uiso   1.00
H1419  H     0.87085   0.82398   0.29714   0.00000  Uiso   1.00
H1420  H     0.62925   0.67611   0.70298   0.00000  Uiso   1.00
H1421  H     0.82397   0.62916   0.29713   0.00000  Uiso   1.00
H1422  H     0.67611   0.87074   0.70299   0.00000  Uiso   1.00
H1423  H     0.62915   0.67602   0.29714   0.00000  Uiso   1.00
H1424  H     0.57390   0.62075   0.20298   0.00000  Uiso   1.00
H1425  H     0.87075   0.82389   0.70298   0.00000  Uiso   1.00
H1426  H     0.67602   0.87084   0.29713   0.00000  Uiso   1.00
H1427  H     0.82389   0.62926   0.70299   0.00000  Uiso   1.00
H1428  H     0.89973   0.73421   0.42709   0.00000  Uiso   1.00
H1429  H     0.60019   0.73380   0.57290   0.00000  Uiso   1.00
H1430  H     0.73515   0.60041   0.42709   0.00000  Uiso   1.00
H1431  H     0.73269   0.89996   0.57288   0.00000  Uiso   1.00
H1432  H     0.60027   0.76578   0.42709   0.00000  Uiso   1.00
H1433  H     0.89981   0.76620   0.57290   0.00000  Uiso   1.00
H1434  H     0.76478   0.89960   0.42709   0.00000  Uiso   1.00
H1435  H     0.92606   0.87921   0.79707   0.00000  Uiso   1.00
H1436  H     0.76717   0.60004   0.57289   0.00000  Uiso   1.00
H1437  H     0.81691   0.92319   0.93198   0.00000  Uiso   1.00
H1438  H     0.74442   0.60129   0.06706   0.00000  Uiso   1.00
H1439  H     0.57676   0.81697   0.93198   0.00000  Uiso   1.00
H1440  H     0.89871   0.74433   0.06706   0.00000  Uiso   1.00
H1441  H     0.68309   0.57681   0.93199   0.00000  Uiso   1.00
H1442  H     0.75558   0.89871   0.06706   0.00000  Uiso   1.00
H1443  H     0.92324   0.68303   0.93198   0.00000  Uiso   1.00
H1444  H     0.60129   0.75567   0.06706   0.00000  Uiso   1.00
H1445  H     0.52313   0.68107   0.36329   0.00000  Uiso   1.00
H1446  H     0.87926   0.57389   0.20299   0.00000  Uiso   1.00
H1447  H     0.56291   0.65679   0.37923   0.00000  Uiso   1.00
H1448  H     0.52544   0.66379   0.41235   0.00000  Uiso   1.00
H1449  H     0.57519   0.72453   0.37854   0.00000  Uiso   1.00
H1450  H     0.57953   0.70329   0.42440   0.00000  Uiso   1.00
H1451  H     0.97419   0.66387   0.58759   0.00000  Uiso   1.00
H1452  H     0.97664   0.68114   0.63664   0.00000  Uiso   1.00
H1453  H     0.93673   0.65704   0.62077   0.00000  Uiso   1.00
H1454  H     0.92471   0.72481   0.62143   0.00000  Uiso   1.00
H1455  H     0.92029   0.70359   0.57557   0.00000  Uiso   1.00
H1456  H     0.68089   0.97753   0.36311   0.00000  Uiso   1.00
H1457  H     0.62079   0.92607   0.79706   0.00000  Uiso   1.00
H1458  H     0.65619   0.93802   0.37906   0.00000  Uiso   1.00
H1459  H     0.66353   0.97544   0.41215   0.00000  Uiso   1.00
H1460  H     0.72382   0.92509   0.37846   0.00000  Uiso   1.00
H1461  H     0.70245   0.92093   0.42428   0.00000  Uiso   1.00
H1462  H     0.66410   0.52666   0.58749   0.00000  Uiso   1.00
H1463  H     0.68132   0.52402   0.63654   0.00000  Uiso   1.00
H1464  H     0.65762   0.56417   0.62067   0.00000  Uiso   1.00
H1465  H     0.72550   0.57556   0.62136   0.00000  Uiso   1.00
H1466  H     0.70436   0.58015   0.57549   0.00000  Uiso   1.00
H1467  H     0.97687   0.81893   0.36329   0.00000  Uiso   1.00
H1468  H     0.92610   0.87925   0.20298   0.00000  Uiso   1.00
H1469  H     0.93709   0.84321   0.37922   0.00000  Uiso   1.00
H1470  H     0.97456   0.83621   0.41234   0.00000  Uiso   1.00
H1471  H     0.92481   0.77547   0.37854   0.00000  Uiso   1.00
H1472  H     0.92047   0.79671   0.42440   0.00000  Uiso   1.00
H1473  H     0.52581   0.83614   0.58760   0.00000  Uiso   1.00
H1474  H     0.52336   0.81886   0.63664   0.00000  Uiso   1.00
H1475  H     0.56327   0.84296   0.62078   0.00000  Uiso   1.00
H1476  H     0.57529   0.77519   0.62143   0.00000  Uiso   1.00
H1477  H     0.57971   0.79641   0.57558   0.00000  Uiso   1.00
H1478  H     0.81909   0.52251   0.36317   0.00000  Uiso   1.00
H1479  H     0.57394   0.62079   0.79706   0.00000  Uiso   1.00
H1480  H     0.84376   0.56204   0.37912   0.00000  Uiso   1.00
H1481  H     0.83643   0.52462   0.41222   0.00000  Uiso   1.00
H1482  H     0.77612   0.57492   0.37847   0.00000  Uiso   1.00
H1483  H     0.79745   0.57910   0.42431   0.00000  Uiso   1.00
H1484  H     0.81866   0.97594   0.63645   0.00000  Uiso   1.00
H1485  H     0.84228   0.93571   0.62067   0.00000  Uiso   1.00
H1486  H     0.83588   0.97317   0.58740   0.00000  Uiso   1.00
H1487  H     0.77440   0.92441   0.62135   0.00000  Uiso   1.00
H1488  H     0.79550   0.91978   0.57546   0.00000  Uiso   1.00
H1489  H     0.80576   0.57707   0.91832   0.00000  Uiso   1.00
H1490  H     0.62076   0.57391   0.79702   0.00000  Uiso   1.00
H1491  H     0.80325   0.55511   0.87160   0.00000  Uiso   1.00
H1492  H     0.79452   0.60317   0.87561   0.00000  Uiso   1.00
H1493  H     0.73513   0.57011   0.86937   0.00000  Uiso   1.00
H1494  H     0.74091   0.59320   0.91421   0.00000  Uiso   1.00
H1495  H     0.83032   0.50205   0.11468   0.00000  Uiso   1.00
H1496  H     0.85654   0.96057   0.11882   0.00000  Uiso   1.00
H1497  H     0.84592   0.97911   0.07168   0.00000  Uiso   1.00
H1498  H     0.79274   0.94223   0.12951   0.00000  Uiso   1.00
H1499  H     0.80859   0.92667   0.08443   0.00000  Uiso   1.00
H1500  H     0.92290   0.80571   0.91829   0.00000  Uiso   1.00
O1501  O     0.75000   0.50000   0.25000   0.00000  Uiso   1.00
O1502  O     0.75000   0.96964   0.66245   0.00000  Uiso   1.00
O1503  O     0.96963   0.75000   0.33755   0.00000  Uiso   1.00
O1504  O     0.53036   0.75000   0.66245   0.00000  Uiso   1.00
O1505  O     0.50000   0.71963   0.83755   0.00000  Uiso   1.00
O1506  O     0.50000   0.78037   0.16245   0.00000  Uiso   1.00
O1507  O     0.78036   0.50000   0.83755   0.00000  Uiso   1.00
O1508  O     0.71963   0.50000   0.16245   0.00000  Uiso   1.00
O1509  O     0.50000   0.78036   0.83755   0.00000  Uiso   1.00
O1510  O     0.50000   0.71964   0.16245   0.00000  Uiso   1.00
O1511  O     0.71963   0.50000   0.83755   0.00000  Uiso   1.00
O1512  O     0.75000   0.50000   0.75000   0.00000  Uiso   1.00
O1513  O     0.78036   0.50000   0.16245   0.00000  Uiso   1.00
O1514  O     0.70724   0.57307   0.27302   0.00000  Uiso   1.00
O1515  O     0.79275   0.92693   0.72698   0.00000  Uiso   1.00
O1516  O     0.92692   0.70724   0.27302   0.00000  Uiso   1.00
O1517  O     0.57307   0.79276   0.72698   0.00000  Uiso   1.00
O1518  O     0.79275   0.92693   0.27302   0.00000  Uiso   1.00
O1519  O     0.70724   0.57307   0.72698   0.00000  Uiso   1.00
O1520  O     0.57307   0.79276   0.27302   0.00000  Uiso   1.00
O1521  O     0.92692   0.70724   0.72698   0.00000  Uiso   1.00
O1522  O     0.70724   0.92693   0.72698   0.00000  Uiso   1.00
O1523  O     0.50000   0.75000   0.25000   0.00000  Uiso   1.00
O1524  O     0.79275   0.57307   0.27302   0.00000  Uiso   1.00
O1525  O     0.92692   0.79275   0.72698   0.00000  Uiso   1.00
O1526  O     0.57307   0.70725   0.27302   0.00000  Uiso   1.00
O1527  O     0.79275   0.57307   0.72698   0.00000  Uiso   1.00
O1528  O     0.70724   0.92693   0.27302   0.00000  Uiso   1.00
O1529  O     0.57307   0.70725   0.72698   0.00000  Uiso   1.00
O1530  O     0.92692   0.79275   0.27302   0.00000  Uiso   1.00
O1531  O     0.95724   0.82307   0.77302   0.00000  Uiso   1.00
O1532  O     0.54275   0.67693   0.22698   0.00000  Uiso   1.00
O1533  O     0.67692   0.95725   0.77302   0.00000  Uiso   1.00
O1534  O     0.50000   0.75000   0.75000   0.00000  Uiso   1.00
O1535  O     0.82307   0.54275   0.22698   0.00000  Uiso   1.00
O1536  O     0.54275   0.67693   0.77302   0.00000  Uiso   1.00
O1537  O     0.95724   0.82307   0.22698   0.00000  Uiso   1.00
O1538  O     0.82307   0.54275   0.77302   0.00000  Uiso   1.00
O1539  O     0.67692   0.95725   0.22698   0.00000  Uiso   1.00
O1540  O     0.95724   0.67692   0.22698   0.00000  Uiso   1.00
O1541  O     0.54275   0.82308   0.77302   0.00000  Uiso   1.00
O1542  O     0.67692   0.54275   0.22698   0.00000  Uiso   1.00
O1543  O     0.82307   0.95725   0.77302   0.00000  Uiso   1.00
O1544  O     0.54275   0.82308   0.22698   0.00000  Uiso   1.00
O1545  O     0.75000   0.96964   0.33755   0.00000  Uiso   1.00
O1546  O     0.95724   0.67692   0.77302   0.00000  Uiso   1.00
O1547  O     0.82307   0.95725   0.22698   0.00000  Uiso   1.00
O1548  O     0.67692   0.54275   0.77302   0.00000  Uiso   1.00
O1549  O     0.87447   0.72204   0.47583   0.00000  Uiso   1.00
O1550  O     0.62545   0.72161   0.52416   0.00000  Uiso   1.00
O1551  O     0.72344   0.62588   0.47584   0.00000  Uiso   1.00
O1552  O     0.71992   0.87499   0.52415   0.00000  Uiso   1.00
O1553  O     0.62553   0.77797   0.47583   0.00000  Uiso   1.00
O1554  O     0.87456   0.77841   0.52416   0.00000  Uiso   1.00
O1555  O     0.77627   0.87404   0.47584   0.00000  Uiso   1.00
O1556  O     0.75000   0.53036   0.66245   0.00000  Uiso   1.00
O1557  O     0.77981   0.62508   0.52416   0.00000  Uiso   1.00
O1558  O     0.82669   0.89670   0.98087   0.00000  Uiso   1.00
O1559  O     0.73341   0.62733   0.01818   0.00000  Uiso   1.00
O1560  O     0.60324   0.82677   0.98087   0.00000  Uiso   1.00
O1561  O     0.87268   0.73331   0.01818   0.00000  Uiso   1.00
O1562  O     0.67331   0.60330   0.98087   0.00000  Uiso   1.00
O1563  O     0.76659   0.87267   0.01818   0.00000  Uiso   1.00
O1564  O     0.89676   0.67323   0.98087   0.00000  Uiso   1.00
O1565  O     0.62732   0.76669   0.01818   0.00000  Uiso   1.00
O1566  O     0.53036   0.75000   0.33755   0.00000  Uiso   1.00
O1567  O     0.96963   0.75000   0.66245   0.00000  Uiso   1.00
O1568  O     0.75000   0.53036   0.33755   0.00000  Uiso   1.00
Zn1569 Zn    0.70659   0.50000   0.21735   0.00000  Uiso   1.00
Zn1570 Zn    0.54340   0.75000   0.28265   0.00000  Uiso   1.00
Zn1571 Zn    0.75000   0.95660   0.71735   0.00000  Uiso   1.00
Zn1572 Zn    0.75000   0.54340   0.28265   0.00000  Uiso   1.00
Zn1573 Zn    0.54340   0.75000   0.71735   0.00000  Uiso   1.00
Zn1574 Zn    0.95659   0.75000   0.28265   0.00000  Uiso   1.00
Zn1575 Zn    0.75000   0.54340   0.71735   0.00000  Uiso   1.00
Zn1576 Zn    0.75000   0.95660   0.28265   0.00000  Uiso   1.00
Zn1577 Zn    0.79340   0.50000   0.78265   0.00000  Uiso   1.00
Zn1578 Zn    0.50000   0.70660   0.21735   0.00000  Uiso   1.00
Zn1579 Zn    0.50000   0.79341   0.78265   0.00000  Uiso   1.00
Zn1580 Zn    0.79340   0.50000   0.21735   0.00000  Uiso   1.00
Zn1581 Zn    0.70659   0.50000   0.78265   0.00000  Uiso   1.00
Zn1582 Zn    0.50000   0.79340   0.21735   0.00000  Uiso   1.00
Zn1583 Zn    0.50000   0.70659   0.78265   0.00000  Uiso   1.00
Zn1584 Zn    0.95659   0.75000   0.71735   0.00000  Uiso   1.00
loop_
_geom_bond_atom_site_label_1
_geom_bond_atom_site_label_2
_geom_bond_distance
_geom_bond_site_symmetry_2
_ccdc_geom_bond_type
C1     C61     1.532   .     S
C1     C4      1.411   .     A
C1     C79     1.421   .     S
C2     C81     1.531   .     S
C2     C14     1.415   .     A
C2     C892    1.419   .     S
C3     C163    1.411   .     A
C3     C106    1.417   .     A
C3     C830    1.410   .     A
C4     C107    1.418   .     A
C4     C34     1.410   .     S
C5     C109    1.418   .     A
C5     C97     1.411   .     A
C5     C432    1.410   .     S
C6     C110    1.418   .     A
C6     C829    1.410   .     A
C6     C108    1.411   .     A
C7     C119    1.411   .     A
C7     C111    1.418   .     A
C7     C38     1.410   .     S
C8     C35     1.415   .     A
C8     C112    1.414   .     A
C8     C831    1.417   .     S
C9     C46     1.415   .     A
C9     C113    1.414   .     A
C9     C40     1.414   .     A
C10    C41     1.417   .     A
C10    C114    1.414   .     A
C10    C57     1.415   .     A
C11    C115    1.414   .     A
C11    C68     1.415   .     A
C11    C438    1.414   .     S
C12    C174    1.415   .     A
C12    C39     1.417   .     A
C12    C116    1.414   .     A
C13    C83     1.531   .     S
C13    C15     1.415   .     A
C13    C497    1.410   .     S
C14    C117    1.414   .     A
C14    C832    1.414   .     S
C15    C118    1.414   .     A
C15    C437    1.417   .     S
C16    C120    1.414   .     A
C16    C24     1.415   .     A
C16    C42     1.414   .     A
C17    C164    1.402   .     A
C17    C166    1.402   .     A
C17    C136    1.454   .     S
C18    C137    1.454   .     S
C18    C165    1.402   .     A
C18    C162    1.402   .     A
C19    C129    1.454   .     S
C19    C161    1.402   .     A
C19    C168    1.402   .     A
C20    C160    1.402   .     A
C20    C167    1.402   .     A
C20    C131    1.454   .     S
C21    C170    1.402   .     A
C21    C159    1.402   .     A
C21    C132    1.454   .     S
C22    C133    1.454   .     S
C22    C158    1.402   .     A
C22    C169    1.402   .     A
C23    C134    1.454   .     S
C23    C157    1.402   .     A
C23    C172    1.402   .     A
C24    C85     1.531   .     S
C24    C102    1.419   .     A
C25    C171    1.402   .     A
C25    C156    1.402   .     A
C25    C135    1.454   .     S
C26    C155    1.401   .     A
C26    C145    1.454   .     S
C26    C175    1.402   .     A
C27    C146    1.454   .     S
C27    C173    1.402   .     A
C27    C154    1.402   .     A
C28    C153    1.401   .     A
C28    C177    1.402   .     A
C28    C138    1.454   .     S
C29    C151    1.402   .     A
C29    C139    1.454   .     S
C29    C176    1.401   .     A
C30    C150    1.401   .     A
C30    C179    1.402   .     A
C30    C140    1.454   .     S
C31    C178    1.401   .     A
C31    C149    1.402   .     A
C31    C142    1.454   .     S
C32    C181    1.402   .     A
C32    C148    1.401   .     A
C32    C143    1.454   .     S
C33    C144    1.454   .     S
C33    C147    1.402   .     A
C33    C180    1.401   .     A
C34    C578    1.410   1_455 A
C34    C36     1.397   .     S
C35    C87     1.531   .     S
C35    C891    1.410   .     A
C36    C183    1.410   .     A
C36    C401    1.410   1_455 S
C37    C38     1.397   .     A
C37    C798    1.410   1_545 A
C37    C184    1.410   .     S
C38    C795    1.410   1_545 A
C39    C800    1.417   1_545 S
C39    C40     1.411   1_556 S
C40    C806    1.414   1_545 S
C40    C39     1.411   1_554 S
C41    C411    1.417   1_455 S
C41    C42     1.411   1_556 S
C42    C407    1.414   1_455 S
C42    C41     1.411   1_554 S
C43    O361    1.221   .     D
C43    C103    1.496   .     S
C43    H240    1.082   .     S
C44    O362    1.221   .     D
C44    C104    1.496   .     S
C44    H241    1.082   .     S
C45    C105    1.496   .     S
C45    H242    1.083   .     S
C45    O363    1.221   .     D
C46    C89     1.531   .     S
C46    C100    1.419   .     A
C47    O364    1.221   .     D
C47    H243    1.082   .     S
C47    C106    1.496   .     S
C48    C107    1.496   .     S
C48    O365    1.221   .     D
C48    H244    1.082   .     S
C49    O366    1.221   .     D
C49    H245    1.082   .     S
C49    C109    1.496   .     S
C50    C110    1.496   .     S
C50    H246    1.083   .     S
C50    O367    1.221   .     D
C51    O369    1.221   .     D
C51    H248    1.082   .     S
C51    C111    1.496   .     S
C52    C112    1.493   .     S
C52    O370    1.221   .     D
C52    H249    1.085   .     S
C53    C113    1.493   .     S
C53    H250    1.085   .     S
C53    O371    1.221   .     D
C54    H251    1.085   .     S
C54    C114    1.493   .     S
C54    O372    1.221   .     D
C55    H252    1.085   .     S
C55    C115    1.493   .     S
C55    O373    1.221   .     D
C56    C116    1.493   .     S
C56    H253    1.085   .     S
C56    O374    1.221   .     D
C57    C92     1.531   .     S
C57    C101    1.410   .     A
C58    H254    1.085   .     S
C58    C117    1.493   .     S
C58    O375    1.221   .     D
C59    H255    1.085   .     S
C59    C118    1.493   .     S
C59    O376    1.221   .     D
C60    H256    1.085   .     S
C60    C120    1.493   .     S
C60    O377    1.221   .     D
C61    H261    1.108   .     S
C61    C62     1.530   .     S
C61    H262    1.110   .     S
C62    H260    1.111   .     S
C62    H257    1.108   .     S
C62    H259    1.111   .     S
C63    C97     1.532   .     S
C63    C64     1.530   .     S
C63    H266    1.108   .     S
C63    H267    1.110   .     S
C64    H265    1.111   .     S
C64    H263    1.111   .     S
C64    H264    1.108   .     S
C65    C108    1.532   .     S
C65    H273    1.110   .     S
C65    H272    1.108   .     S
C65    C66     1.530   .     S
C66    H270    1.111   .     S
C66    H271    1.111   .     S
C66    H268    1.108   .     S
C67    H278    1.110   .     S
C67    C119    1.532   .     S
C67    H277    1.108   .     S
C67    C69     1.530   .     S
C68    C94     1.531   .     S
C68    C498    1.419   .     S
C69    H275    1.108   .     S
C69    H274    1.111   .     S
C69    H276    1.111   .     S
C70    H283    1.108   .     S
C70    C130    1.532   .     S
C70    C71     1.530   .     S
C70    H284    1.110   .     S
C71    H282    1.111   .     S
C71    H279    1.108   .     S
C71    H281    1.111   .     S
C72    C73     1.530   .     S
C72    C141    1.532   .     S
C72    H288    1.108   .     S
C72    H289    1.110   .     S
C73    H286    1.108   .     S
C73    H285    1.111   .     S
C73    H287    1.111   .     S
C74    C152    1.532   .     S
C74    H294    1.108   .     S
C74    H295    1.110   .     S
C74    C75     1.530   .     S
C75    H293    1.111   .     S
C75    H292    1.111   .     S
C75    H290    1.108   .     S
C76    H299    1.108   .     S
C76    C163    1.532   .     S
C76    H300    1.110   .     S
C76    C77     1.530   .     S
C77    H297    1.111   .     S
C77    H296    1.108   .     S
C77    H298    1.111   .     S
C78    C80     1.529   .     S
C78    H305    1.111   .     S
C78    H306    1.104   .     S
C78    C174    1.531   .     S
C79    C526    1.421   1_455 A
C79    C123    1.471   .     S
C80    H301    1.111   .     S
C80    H303    1.106   .     S
C80    H304    1.111   .     S
C81    H310    1.109   .     S
C81    H311    1.103   .     S
C81    C82     1.530   .     S
C82    H308    1.111   .     S
C82    H309    1.111   .     S
C82    H1099   1.108   .     S
C83    H190    1.104   .     S
C83    C84     1.529   .     S
C83    H189    1.111   .     S
C84    H187    1.106   .     S
C84    H188    1.111   .     S
C84    H312    1.111   .     S
C85    H195    1.103   .     S
C85    C86     1.530   .     S
C85    H194    1.109   .     S
C86    H193    1.111   .     S
C86    H192    1.111   .     S
C86    H587    1.108   1_455 S
C87    H200    1.111   .     S
C87    C88     1.529   .     S
C87    H201    1.104   .     S
C88    H196    1.111   .     S
C88    H199    1.111   .     S
C88    H198    1.106   .     S
C89    H205    1.109   .     S
C89    C91     1.530   .     S
C89    H206    1.103   .     S
C90    C141    1.421   .     A
C90    C124    1.471   .     S
C90    C493    1.421   1_455 S
C91    H204    1.111   .     S
C91    H203    1.111   .     S
C91    H994    1.108   1_545 S
C92    H212    1.104   .     S
C92    C93     1.529   .     S
C92    H211    1.111   .     S
C93    H210    1.111   .     S
C93    H209    1.106   .     S
C93    H207    1.111   .     S
C94    H217    1.103   .     S
C94    C95     1.530   .     S
C94    H216    1.109   .     S
C95    H215    1.111   .     S
C95    H213    1.111   .     S
C95    H610    1.108   .     S
C96    C121    1.471   .     S
C96    C152    1.421   .     A
C96    C900    1.421   1_545 S
C97    C486    1.421   .     S
C98    C122    1.472   .     S
C98    C955    1.421   1_545 A
C98    C119    1.421   .     S
C99    C127    1.456   .     S
C99    C827    1.410   1_545 A
C99    C174    1.410   .     S
C100   C128    1.473   .     S
C100   C794    1.419   1_545 S
C101   C409    1.410   1_455 S
C101   C125    1.456   .     S
C102   C126    1.473   .     S
C102   C464    1.419   1_455 S
C103   C109    1.413   .     A
C103   C182    1.418   .     A
C104   C183    1.418   .     A
C104   C107    1.413   .     A
C105   C184    1.418   .     A
C105   C111    1.413   .     A
C106   C110    1.413   .     A
C108   C888    1.421   .     S
C112   C117    1.405   1_556 S
C113   C116    1.405   1_554 S
C114   C120    1.405   1_556 S
C115   C118    1.405   1_554 S
C116   C113    1.405   1_556 S
C117   C112    1.405   1_554 S
C118   C115    1.405   1_556 S
C120   C114    1.405   1_554 S
C121   O380    1.282   .     A
C121   O1149   1.282   1_545 S
C122   O1106   1.282   1_545 A
C122   O368    1.282   .     S
C123   O711    1.282   1_455 A
C123   O378    1.282   .     S
C124   O316    1.282   .     A
C124   O775    1.282   1_455 S
C125   O317    1.276   .     A
C125   O321    1.276   .     A
C126   O322    1.282   .     A
C126   O318    1.282   .     A
C127   O319    1.276   .     S
C127   O323    1.276   .     S
C128   O320    1.282   .     S
C128   O325    1.282   .     S
C129   O326    1.282   .     A
C129   O354    1.282   .     A
C130   C475    1.421   .     A
C130   C182    1.411   .     A
C131   O355    1.282   .     A
C131   O327    1.282   .     A
C132   O352    1.282   .     A
C132   O328    1.282   .     A
C133   O353    1.282   .     A
C133   O329    1.282   .     A
C134   O330    1.282   .     A
C134   O359    1.282   .     A
C135   O331    1.282   .     A
C135   O360    1.282   .     A
C136   O332    1.282   .     A
C136   O356    1.282   .     A
C137   O333    1.282   .     A
C137   O358    1.282   .     A
C138   O345    1.282   .     A
C138   O334    1.282   .     A
C139   O347    1.282   .     A
C139   O336    1.282   .     A
C140   O337    1.282   .     A
C140   O343    1.282   .     A
C141   C183    1.411   .     A
C142   O344    1.282   .     A
C142   O338    1.282   .     A
C143   O350    1.282   .     A
C143   O339    1.282   .     A
C144   O340    1.282   .     A
C144   O351    1.282   .     A
C145   O341    1.282   .     A
C145   O348    1.282   .     A
C146   O349    1.282   .     A
C146   O342    1.282   .     A
C147   C164    1.386   .     A
C147   H185    1.083   .     S
C148   C162    1.386   .     A
C148   H225    1.083   .     S
C149   H236    1.083   .     S
C149   C161    1.386   .     A
C150   C160    1.386   .     A
C150   H247    1.083   .     S
C151   C159    1.386   .     A
C151   H258    1.083   .     S
C152   C184    1.411   .     A
C153   C158    1.386   .     A
C153   H269    1.083   .     S
C154   C157    1.386   .     A
C154   H280    1.083   .     S
C155   C156    1.386   .     A
C155   H291    1.083   .     S
C156   H302    1.083   .     S
C157   H186    1.083   .     S
C158   H197    1.083   .     S
C159   H208    1.083   .     S
C160   H218    1.083   .     S
C161   H219    1.083   .     S
C162   H220    1.083   .     S
C163   C890    1.421   .     A
C164   H221    1.083   .     S
C165   H222    1.083   .     S
C165   C181    1.386   .     A
C166   C180    1.386   .     A
C166   H223    1.083   .     S
C167   H224    1.083   .     S
C167   C179    1.386   .     A
C168   H226    1.083   .     S
C168   C178    1.386   .     A
C169   C177    1.386   .     A
C169   H227    1.083   .     S
C170   C176    1.386   .     A
C170   H228    1.083   .     S
C171   C175    1.386   .     A
C171   H229    1.083   .     S
C172   H230    1.083   .     S
C172   C173    1.386   .     A
C173   H231    1.083   .     S
C175   H232    1.083   .     S
C176   H233    1.083   .     S
C177   H234    1.083   .     S
C178   H235    1.083   .     S
C179   H237    1.083   .     S
C180   H238    1.083   .     S
C181   H239    1.083   .     S
C182   C430    1.410   .     A
H191   C482    1.108   .     S
H202   C883    1.108   .     S
H214   C491    1.108   1_455 S
H307   C874    1.108   1_545 S
O313   Zn1180  1.948   1_545 S
O313   Zn381   1.948   .     S
O313   Zn384   1.948   .     S
O313   Zn392   1.948   .     S
O314   C914    1.282   .     A
O314   Zn383   1.952   .     S
O315   Zn386   1.952   .     S
O315   C519    1.282   .     A
O316   Zn385   1.952   .     S
O317   Zn395   1.952   .     S
O318   Zn394   1.952   .     S
O319   Zn389   1.952   .     S
O320   Zn381   1.952   .     S
O321   Zn391   1.952   .     S
O322   Zn390   1.952   .     S
O323   Zn393   1.952   .     S
O324   Zn387   1.948   .     S
O324   Zn1175  1.948   1_545 S
O324   Zn389   1.948   .     S
O324   Zn393   1.948   .     S
O325   Zn392   1.952   .     S
O326   Zn384   1.935   .     S
O327   Zn383   1.935   .     S
O328   Zn386   1.935   .     S
O329   Zn385   1.935   .     S
O330   Zn388   1.935   .     S
O331   Zn387   1.935   .     S
O332   Zn382   1.935   .     S
O333   Zn396   1.935   .     S
O334   Zn383   1.935   .     S
O335   Zn382   1.948   .     S
O335   Zn390   1.948   .     S
O335   Zn782   1.948   1_455 S
O335   Zn394   1.948   .     S
O336   Zn384   1.935   .     S
O337   Zn396   1.935   .     S
O338   Zn382   1.935   .     S
O339   Zn387   1.935   .     S
O340   Zn388   1.935   .     S
O341   Zn385   1.935   .     S
O342   Zn386   1.935   .     S
O343   Zn787   1.935   .     S
O344   Zn390   1.935   .     S
O345   Zn1185  1.935   .     S
O346   Zn395   1.948   .     S
O346   Zn792   1.948   1_455 S
O346   Zn385   1.948   .     S
O346   Zn391   1.948   .     S
O347   Zn392   1.935   .     S
O348   Zn395   1.935   .     S
O349   Zn790   1.935   .     S
O350   Zn389   1.935   .     S
O351   Zn1173  1.935   .     S
O352   Zn786   1.935   .     S
O353   Zn391   1.935   .     S
O354   Zn381   1.935   .     S
O355   Zn1181  1.935   .     S
O356   Zn394   1.935   .     S
O357   Zn388   1.952   .     S
O357   C913    1.282   .     S
O358   Zn791   1.935   .     S
O359   Zn1184  1.935   .     S
O360   Zn393   1.935   .     S
O368   Zn387   1.952   .     S
O378   Zn382   1.952   .     S
O379   Zn396   1.952   .     S
O379   C520    1.282   .     S
O380   Zn384   1.952   .     S
Zn381  O1143   1.935   1_545 S
Zn383  O1116   1.948   .     S
Zn386  O731    1.948   .     S
Zn388  O1105   1.948   .     S
Zn389  O1147   1.935   1_545 S
Zn390  O748    1.935   1_455 S
Zn391  O739    1.935   1_455 S
Zn392  O1151   1.935   1_545 S
Zn393  O1137   1.935   1_545 S
Zn394  O745    1.935   1_455 S
Zn395  O754    1.935   1_455 S
Zn396  O742    1.948   .     S
C397   C457    1.532   .     S
C397   C400    1.411   .     A
C397   C475    1.421   .     S
C398   C477    1.531   .     S
C398   C410    1.415   .     A
C398   C1288   1.419   .     S
C399   C559    1.411   .     A
C399   C502    1.417   .     A
C399   C1226   1.410   .     A
C400   C503    1.418   .     A
C400   C430    1.410   .     S
C401   C505    1.418   .     A
C401   C493    1.411   .     A
C401   C36     1.410   1_655 S
C402   C506    1.418   .     A
C402   C1225   1.410   .     A
C402   C504    1.411   .     A
C403   C515    1.411   .     A
C403   C507    1.418   .     A
C403   C434    1.410   .     S
C404   C431    1.415   .     A
C404   C508    1.414   .     A
C404   C1227   1.417   .     S
C405   C442    1.415   .     A
C405   C509    1.414   .     A
C405   C436    1.414   .     A
C406   C437    1.417   .     A
C406   C510    1.414   .     A
C406   C453    1.415   .     A
C407   C511    1.414   .     A
C407   C464    1.415   .     A
C407   C42     1.414   1_655 S
C408   C570    1.415   .     A
C408   C435    1.417   .     A
C408   C512    1.414   .     A
C409   C479    1.531   .     S
C409   C411    1.415   .     A
C409   C101    1.410   1_655 S
C410   C513    1.414   .     A
C410   C1228   1.414   .     S
C411   C514    1.414   .     A
C411   C41     1.417   1_655 S
C412   C516    1.414   .     A
C412   C420    1.415   .     A
C412   C438    1.414   .     A
C413   C560    1.402   .     A
C413   C562    1.402   .     A
C413   C532    1.454   .     S
C414   C533    1.454   .     S
C414   C561    1.402   .     A
C414   C558    1.402   .     A
C415   C525    1.454   .     S
C415   C557    1.402   .     A
C415   C564    1.402   .     A
C416   C556    1.402   .     A
C416   C563    1.402   .     A
C416   C527    1.454   .     S
C417   C566    1.402   .     A
C417   C555    1.402   .     A
C417   C528    1.454   .     S
C418   C529    1.454   .     S
C418   C554    1.402   .     A
C418   C565    1.402   .     A
C419   C530    1.454   .     S
C419   C553    1.402   .     A
C419   C568    1.402   .     A
C420   C481    1.531   .     S
C420   C498    1.419   .     A
C421   C567    1.402   .     A
C421   C552    1.402   .     A
C421   C531    1.454   .     S
C422   C551    1.401   .     A
C422   C541    1.454   .     S
C422   C571    1.402   .     A
C423   C542    1.454   .     S
C423   C569    1.402   .     A
C423   C550    1.402   .     A
C424   C549    1.401   .     A
C424   C573    1.402   .     A
C424   C534    1.454   .     S
C425   C547    1.402   .     A
C425   C535    1.454   .     S
C425   C572    1.401   .     A
C426   C546    1.401   .     A
C426   C575    1.402   .     A
C426   C536    1.454   .     S
C427   C574    1.401   .     A
C427   C545    1.402   .     A
C427   C538    1.454   .     S
C428   C577    1.402   .     A
C428   C544    1.401   .     A
C428   C539    1.454   .     S
C429   C540    1.454   .     S
C429   C543    1.402   .     A
C429   C576    1.401   .     A
C430   C432    1.397   .     S
C431   C483    1.531   .     S
C431   C1287   1.410   .     A
C432   C579    1.410   .     A
C433   C434    1.397   .     A
C433   C1194   1.410   1_545 A
C433   C580    1.410   .     S
C434   C1191   1.410   1_545 A
C435   C1196   1.417   1_545 S
C435   C436    1.411   1_556 S
C436   C1202   1.414   1_545 S
C436   C435    1.411   1_554 S
C437   C438    1.411   1_556 S
C438   C437    1.411   1_554 S
C439   O757    1.221   .     D
C439   C499    1.496   .     S
C439   H636    1.082   .     S
C440   O758    1.221   .     D
C440   C500    1.496   .     S
C440   H637    1.082   .     S
C441   C501    1.496   .     S
C441   H638    1.083   .     S
C441   O759    1.221   .     D
C442   C485    1.531   .     S
C442   C496    1.419   .     A
C443   O760    1.221   .     D
C443   H639    1.082   .     S
C443   C502    1.496   .     S
C444   C503    1.496   .     S
C444   O761    1.221   .     D
C444   H640    1.082   .     S
C445   O762    1.221   .     D
C445   H641    1.082   .     S
C445   C505    1.496   .     S
C446   C506    1.496   .     S
C446   H642    1.083   .     S
C446   O763    1.221   .     D
C447   O765    1.221   .     D
C447   H644    1.082   .     S
C447   C507    1.496   .     S
C448   C508    1.493   .     S
C448   O766    1.221   .     D
C448   H645    1.085   .     S
C449   C509    1.493   .     S
C449   H646    1.085   .     S
C449   O767    1.221   .     D
C450   H647    1.085   .     S
C450   C510    1.493   .     S
C450   O768    1.221   .     D
C451   H648    1.085   .     S
C451   C511    1.493   .     S
C451   O769    1.221   .     D
C452   C512    1.493   .     S
C452   H649    1.085   .     S
C452   O770    1.221   .     D
C453   C488    1.531   .     S
C453   C497    1.410   .     A
C454   H650    1.085   .     S
C454   C513    1.493   .     S
C454   O771    1.221   .     D
C455   H651    1.085   .     S
C455   C514    1.493   .     S
C455   O772    1.221   .     D
C456   H652    1.085   .     S
C456   C516    1.493   .     S
C456   O773    1.221   .     D
C457   H657    1.108   .     S
C457   C458    1.530   .     S
C457   H658    1.110   .     S
C458   H656    1.111   .     S
C458   H653    1.108   .     S
C458   H655    1.111   .     S
C459   C493    1.532   .     S
C459   C460    1.530   .     S
C459   H662    1.108   .     S
C459   H663    1.110   .     S
C460   H661    1.111   .     S
C460   H659    1.111   .     S
C460   H660    1.108   .     S
C461   C504    1.532   .     S
C461   H669    1.110   .     S
C461   H668    1.108   .     S
C461   C462    1.530   .     S
C462   H666    1.111   .     S
C462   H667    1.111   .     S
C462   H664    1.108   .     S
C463   H674    1.110   .     S
C463   C515    1.532   .     S
C463   H673    1.108   .     S
C463   C465    1.530   .     S
C464   C490    1.531   .     S
C464   C102    1.419   1_655 S
C465   H671    1.108   .     S
C465   H670    1.111   .     S
C465   H672    1.111   .     S
C466   H679    1.108   .     S
C466   C526    1.532   .     S
C466   C467    1.530   .     S
C466   H680    1.110   .     S
C467   H678    1.111   .     S
C467   H675    1.108   .     S
C467   H677    1.111   .     S
C468   C469    1.530   .     S
C468   C537    1.532   .     S
C468   H684    1.108   .     S
C468   H685    1.110   .     S
C469   H682    1.108   .     S
C469   H681    1.111   .     S
C469   H683    1.111   .     S
C470   C548    1.532   .     S
C470   H690    1.108   .     S
C470   H691    1.110   .     S
C470   C471    1.530   .     S
C471   H689    1.111   .     S
C471   H688    1.111   .     S
C471   H686    1.108   .     S
C472   H695    1.108   .     S
C472   C559    1.532   .     S
C472   H696    1.110   .     S
C472   C473    1.530   .     S
C473   H693    1.111   .     S
C473   H692    1.108   .     S
C473   H694    1.111   .     S
C474   C476    1.529   .     S
C474   H701    1.111   .     S
C474   H702    1.104   .     S
C474   C570    1.531   .     S
C475   C519    1.471   .     S
C476   H697    1.111   .     S
C476   H699    1.106   .     S
C476   H700    1.111   .     S
C477   H706    1.109   .     S
C477   H707    1.103   .     S
C477   C478    1.530   .     S
C478   H704    1.111   .     S
C478   H705    1.111   .     S
C478   H1495   1.108   .     S
C479   H586    1.104   .     S
C479   C480    1.529   .     S
C479   H585    1.111   .     S
C480   H583    1.106   .     S
C480   H584    1.111   .     S
C480   H708    1.111   .     S
C481   H591    1.103   .     S
C481   C482    1.530   .     S
C481   H590    1.109   .     S
C482   H589    1.111   .     S
C482   H588    1.111   .     S
C483   H596    1.111   .     S
C483   C484    1.529   .     S
C483   H597    1.104   .     S
C484   H592    1.111   .     S
C484   H595    1.111   .     S
C484   H594    1.106   .     S
C485   H601    1.109   .     S
C485   C487    1.530   .     S
C485   H602    1.103   .     S
C486   C537    1.421   .     A
C486   C520    1.471   .     S
C487   H600    1.111   .     S
C487   H599    1.111   .     S
C487   H1390   1.108   1_545 S
C488   H608    1.104   .     S
C488   C489    1.529   .     S
C488   H607    1.111   .     S
C489   H606    1.111   .     S
C489   H605    1.106   .     S
C489   H603    1.111   .     S
C490   H613    1.103   .     S
C490   C491    1.530   .     S
C490   H612    1.109   .     S
C491   H611    1.111   .     S
C491   H609    1.111   .     S
C491   H214    1.108   1_655 S
C492   C517    1.471   .     S
C492   C548    1.421   .     A
C492   C1296   1.421   1_545 S
C493   C90     1.421   1_655 S
C494   C518    1.472   .     S
C494   C1351   1.421   1_545 A
C494   C515    1.421   .     S
C495   C523    1.456   .     S
C495   C1223   1.410   1_545 A
C495   C570    1.410   .     S
C496   C524    1.473   .     S
C496   C1190   1.419   1_545 S
C497   C521    1.456   .     S
C498   C522    1.473   .     S
C499   C505    1.413   .     A
C499   C578    1.418   .     A
C500   C579    1.418   .     A
C500   C503    1.413   .     A
C501   C580    1.418   .     A
C501   C507    1.413   .     A
C502   C506    1.413   .     A
C504   C1284   1.421   .     S
C508   C513    1.405   1_556 S
C509   C512    1.405   1_554 S
C510   C516    1.405   1_556 S
C511   C514    1.405   1_554 S
C512   C509    1.405   1_556 S
C513   C508    1.405   1_554 S
C514   C511    1.405   1_556 S
C516   C510    1.405   1_554 S
C517   O776    1.282   .     A
C517   O1545   1.282   1_545 S
C518   O1502   1.282   1_545 A
C518   O764    1.282   .     S
C519   O774    1.282   .     S
C520   O712    1.282   .     A
C521   O713    1.276   .     A
C521   O717    1.276   .     A
C522   O718    1.282   .     A
C522   O714    1.282   .     A
C523   O715    1.276   .     S
C523   O719    1.276   .     S
C524   O716    1.282   .     S
C524   O721    1.282   .     S
C525   O722    1.282   .     A
C525   O750    1.282   .     A
C526   C79     1.421   1_655 A
C526   C578    1.411   .     A
C527   O751    1.282   .     A
C527   O723    1.282   .     A
C528   O748    1.282   .     A
C528   O724    1.282   .     A
C529   O749    1.282   .     A
C529   O725    1.282   .     A
C530   O726    1.282   .     A
C530   O755    1.282   .     A
C531   O727    1.282   .     A
C531   O756    1.282   .     A
C532   O728    1.282   .     A
C532   O752    1.282   .     A
C533   O729    1.282   .     A
C533   O754    1.282   .     A
C534   O741    1.282   .     A
C534   O730    1.282   .     A
C535   O743    1.282   .     A
C535   O732    1.282   .     A
C536   O733    1.282   .     A
C536   O739    1.282   .     A
C537   C579    1.411   .     A
C538   O740    1.282   .     A
C538   O734    1.282   .     A
C539   O746    1.282   .     A
C539   O735    1.282   .     A
C540   O736    1.282   .     A
C540   O747    1.282   .     A
C541   O737    1.282   .     A
C541   O744    1.282   .     A
C542   O745    1.282   .     A
C542   O738    1.282   .     A
C543   C560    1.386   .     A
C543   H581    1.083   .     S
C544   C558    1.386   .     A
C544   H621    1.083   .     S
C545   H632    1.083   .     S
C545   C557    1.386   .     A
C546   C556    1.386   .     A
C546   H643    1.083   .     S
C547   C555    1.386   .     A
C547   H654    1.083   .     S
C548   C580    1.411   .     A
C549   C554    1.386   .     A
C549   H665    1.083   .     S
C550   C553    1.386   .     A
C550   H676    1.083   .     S
C551   C552    1.386   .     A
C551   H687    1.083   .     S
C552   H698    1.083   .     S
C553   H582    1.083   .     S
C554   H593    1.083   .     S
C555   H604    1.083   .     S
C556   H614    1.083   .     S
C557   H615    1.083   .     S
C558   H616    1.083   .     S
C559   C1286   1.421   .     A
C560   H617    1.083   .     S
C561   H618    1.083   .     S
C561   C577    1.386   .     A
C562   C576    1.386   .     A
C562   H619    1.083   .     S
C563   H620    1.083   .     S
C563   C575    1.386   .     A
C564   H622    1.083   .     S
C564   C574    1.386   .     A
C565   C573    1.386   .     A
C565   H623    1.083   .     S
C566   C572    1.386   .     A
C566   H624    1.083   .     S
C567   C571    1.386   .     A
C567   H625    1.083   .     S
C568   H626    1.083   .     S
C568   C569    1.386   .     A
C569   H627    1.083   .     S
C571   H628    1.083   .     S
C572   H629    1.083   .     S
C573   H630    1.083   .     S
C574   H631    1.083   .     S
C575   H633    1.083   .     S
C576   H634    1.083   .     S
C577   H635    1.083   .     S
C578   C34     1.410   1_655 A
H587   C86     1.108   1_655 S
H598   C1279   1.108   .     S
H703   C1270   1.108   1_545 S
O709   Zn1576  1.948   1_545 S
O709   Zn777   1.948   .     S
O709   Zn780   1.948   .     S
O709   Zn788   1.948   .     S
O710   C1310   1.282   .     A
O710   Zn779   1.952   .     S
O711   Zn782   1.952   .     S
O711   C123    1.282   1_655 A
O712   Zn781   1.952   .     S
O713   Zn791   1.952   .     S
O714   Zn790   1.952   .     S
O715   Zn785   1.952   .     S
O716   Zn777   1.952   .     S
O717   Zn787   1.952   .     S
O718   Zn786   1.952   .     S
O719   Zn789   1.952   .     S
O720   Zn783   1.948   .     S
O720   Zn1571  1.948   1_545 S
O720   Zn785   1.948   .     S
O720   Zn789   1.948   .     S
O721   Zn788   1.952   .     S
O722   Zn780   1.935   .     S
O723   Zn779   1.935   .     S
O724   Zn782   1.935   .     S
O725   Zn781   1.935   .     S
O726   Zn784   1.935   .     S
O727   Zn783   1.935   .     S
O728   Zn778   1.935   .     S
O729   Zn792   1.935   .     S
O730   Zn779   1.935   .     S
O731   Zn778   1.948   .     S
O731   Zn786   1.948   .     S
O731   Zn790   1.948   .     S
O732   Zn780   1.935   .     S
O733   Zn792   1.935   .     S
O734   Zn778   1.935   .     S
O735   Zn783   1.935   .     S
O736   Zn784   1.935   .     S
O737   Zn781   1.935   .     S
O738   Zn782   1.935   .     S
O739   Zn391   1.935   1_655 S
O740   Zn786   1.935   .     S
O741   Zn1581  1.935   .     S
O742   Zn791   1.948   .     S
O742   Zn781   1.948   .     S
O742   Zn787   1.948   .     S
O743   Zn788   1.935   .     S
O744   Zn791   1.935   .     S
O745   Zn394   1.935   1_655 S
O746   Zn785   1.935   .     S
O747   Zn1569  1.935   .     S
O748   Zn390   1.935   1_655 S
O749   Zn787   1.935   .     S
O750   Zn777   1.935   .     S
O751   Zn1577  1.935   .     S
O752   Zn790   1.935   .     S
O753   Zn784   1.952   .     S
O753   C1309   1.282   .     S
O754   Zn395   1.935   1_655 S
O755   Zn1580  1.935   .     S
O756   Zn789   1.935   .     S
O764   Zn783   1.952   .     S
O774   Zn778   1.952   .     S
O775   Zn792   1.952   .     S
O775   C124    1.282   1_655 S
O776   Zn780   1.952   .     S
Zn777  O1539   1.935   1_545 S
Zn779  O1512   1.948   .     S
Zn782  O335    1.948   1_655 S
Zn784  O1501   1.948   .     S
Zn785  O1543   1.935   1_545 S
Zn788  O1547   1.935   1_545 S
Zn789  O1533   1.935   1_545 S
Zn792  O346    1.948   1_655 S
C793   C853    1.532   .     S
C793   C796    1.411   .     A
C793   C871    1.421   .     S
C794   C873    1.531   .     S
C794   C806    1.415   .     A
C794   C100    1.419   1_565 S
C795   C955    1.411   .     A
C795   C898    1.417   .     A
C795   C38     1.410   1_565 A
C796   C899    1.418   .     A
C796   C826    1.410   .     S
C797   C901    1.418   .     A
C797   C889    1.411   .     A
C797   C1224   1.410   .     S
C798   C902    1.418   .     A
C798   C37     1.410   1_565 A
C798   C900    1.411   .     A
C799   C911    1.411   .     A
C799   C903    1.418   .     A
C799   C830    1.410   .     S
C800   C827    1.415   .     A
C800   C904    1.414   .     A
C800   C39     1.417   1_565 S
C801   C838    1.415   .     A
C801   C905    1.414   .     A
C801   C832    1.414   .     A
C802   C833    1.417   .     A
C802   C906    1.414   .     A
C802   C849    1.415   .     A
C803   C907    1.414   .     A
C803   C860    1.415   .     A
C803   C1230   1.414   .     S
C804   C966    1.415   .     A
C804   C831    1.417   .     A
C804   C908    1.414   .     A
C805   C875    1.531   .     S
C805   C807    1.415   .     A
C805   C1289   1.410   .     S
C806   C909    1.414   .     A
C806   C40     1.414   1_565 S
C807   C910    1.414   .     A
C807   C1229   1.417   .     S
C808   C912    1.414   .     A
C808   C816    1.415   .     A
C808   C834    1.414   .     A
C809   C956    1.402   .     A
C809   C958    1.402   .     A
C809   C928    1.454   .     S
C810   C929    1.454   .     S
C810   C957    1.402   .     A
C810   C954    1.402   .     A
C811   C921    1.454   .     S
C811   C953    1.402   .     A
C811   C960    1.402   .     A
C812   C952    1.402   .     A
C812   C959    1.402   .     A
C812   C923    1.454   .     S
C813   C962    1.402   .     A
C813   C951    1.402   .     A
C813   C924    1.454   .     S
C814   C925    1.454   .     S
C814   C950    1.402   .     A
C814   C961    1.402   .     A
C815   C926    1.454   .     S
C815   C949    1.402   .     A
C815   C964    1.402   .     A
C816   C877    1.531   .     S
C816   C894    1.419   .     A
C817   C963    1.402   .     A
C817   C948    1.402   .     A
C817   C927    1.454   .     S
C818   C947    1.401   .     A
C818   C937    1.454   .     S
C818   C967    1.402   .     A
C819   C938    1.454   .     S
C819   C965    1.402   .     A
C819   C946    1.402   .     A
C820   C945    1.401   .     A
C820   C969    1.402   .     A
C820   C930    1.454   .     S
C821   C943    1.402   .     A
C821   C931    1.454   .     S
C821   C968    1.401   .     A
C822   C942    1.401   .     A
C822   C971    1.402   .     A
C822   C932    1.454   .     S
C823   C970    1.401   .     A
C823   C941    1.402   .     A
C823   C934    1.454   .     S
C824   C973    1.402   .     A
C824   C940    1.401   .     A
C824   C935    1.454   .     S
C825   C936    1.454   .     S
C825   C939    1.402   .     A
C825   C972    1.401   .     A
C826   C1370   1.410   1_455 A
C826   C828    1.397   .     S
C827   C879    1.531   .     S
C827   C99     1.410   1_565 A
C828   C975    1.410   .     A
C828   C1193   1.410   1_455 S
C829   C830    1.397   .     A
C829   C976    1.410   .     S
C831   C832    1.411   1_556 S
C832   C831    1.411   1_554 S
C833   C1203   1.417   1_455 S
C833   C834    1.411   1_556 S
C834   C1199   1.414   1_455 S
C834   C833    1.411   1_554 S
C835   O1153   1.221   .     D
C835   C895    1.496   .     S
C835   H1032   1.082   .     S
C836   O1154   1.221   .     D
C836   C896    1.496   .     S
C836   H1033   1.082   .     S
C837   C897    1.496   .     S
C837   H1034   1.083   .     S
C837   O1155   1.221   .     D
C838   C881    1.531   .     S
C838   C892    1.419   .     A
C839   O1156   1.221   .     D
C839   H1035   1.082   .     S
C839   C898    1.496   .     S
C840   C899    1.496   .     S
C840   O1157   1.221   .     D
C840   H1036   1.082   .     S
C841   O1158   1.221   .     D
C841   H1037   1.082   .     S
C841   C901    1.496   .     S
C842   C902    1.496   .     S
C842   H1038   1.083   .     S
C842   O1159   1.221   .     D
C843   O1161   1.221   .     D
C843   H1040   1.082   .     S
C843   C903    1.496   .     S
C844   C904    1.493   .     S
C844   O1162   1.221   .     D
C844   H1041   1.085   .     S
C845   C905    1.493   .     S
C845   H1042   1.085   .     S
C845   O1163   1.221   .     D
C846   H1043   1.085   .     S
C846   C906    1.493   .     S
C846   O1164   1.221   .     D
C847   H1044   1.085   .     S
C847   C907    1.493   .     S
C847   O1165   1.221   .     D
C848   C908    1.493   .     S
C848   H1045   1.085   .     S
C848   O1166   1.221   .     D
C849   C884    1.531   .     S
C849   C893    1.410   .     A
C850   H1046   1.085   .     S
C850   C909    1.493   .     S
C850   O1167   1.221   .     D
C851   H1047   1.085   .     S
C851   C910    1.493   .     S
C851   O1168   1.221   .     D
C852   H1048   1.085   .     S
C852   C912    1.493   .     S
C852   O1169   1.221   .     D
C853   H1053   1.108   .     S
C853   C854    1.530   .     S
C853   H1054   1.110   .     S
C854   H1052   1.111   .     S
C854   H1049   1.108   .     S
C854   H1051   1.111   .     S
C855   C889    1.532   .     S
C855   C856    1.530   .     S
C855   H1058   1.108   .     S
C855   H1059   1.110   .     S
C856   H1057   1.111   .     S
C856   H1055   1.111   .     S
C856   H1056   1.108   .     S
C857   C900    1.532   .     S
C857   H1065   1.110   .     S
C857   H1064   1.108   .     S
C857   C858    1.530   .     S
C858   H1062   1.111   .     S
C858   H1063   1.111   .     S
C858   H1060   1.108   .     S
C859   H1070   1.110   .     S
C859   C911    1.532   .     S
C859   H1069   1.108   .     S
C859   C861    1.530   .     S
C860   C886    1.531   .     S
C860   C1290   1.419   .     S
C861   H1067   1.108   .     S
C861   H1066   1.111   .     S
C861   H1068   1.111   .     S
C862   H1075   1.108   .     S
C862   C922    1.532   .     S
C862   C863    1.530   .     S
C862   H1076   1.110   .     S
C863   H1074   1.111   .     S
C863   H1071   1.108   .     S
C863   H1073   1.111   .     S
C864   C865    1.530   .     S
C864   C933    1.532   .     S
C864   H1080   1.108   .     S
C864   H1081   1.110   .     S
C865   H1078   1.108   .     S
C865   H1077   1.111   .     S
C865   H1079   1.111   .     S
C866   C944    1.532   .     S
C866   H1086   1.108   .     S
C866   H1087   1.110   .     S
C866   C867    1.530   .     S
C867   H1085   1.111   .     S
C867   H1084   1.111   .     S
C867   H1082   1.108   .     S
C868   H1091   1.108   .     S
C868   C955    1.532   .     S
C868   H1092   1.110   .     S
C868   C869    1.530   .     S
C869   H1089   1.111   .     S
C869   H1088   1.108   .     S
C869   H1090   1.111   .     S
C870   C872    1.529   .     S
C870   H1097   1.111   .     S
C870   H1098   1.104   .     S
C870   C966    1.531   .     S
C871   C1318   1.421   1_455 A
C871   C915    1.471   .     S
C872   H1093   1.111   .     S
C872   H1095   1.106   .     S
C872   H1096   1.111   .     S
C873   H1102   1.109   .     S
C873   H1103   1.103   .     S
C873   C874    1.530   .     S
C874   H1100   1.111   .     S
C874   H1101   1.111   .     S
C874   H307    1.108   1_565 S
C875   H982    1.104   .     S
C875   C876    1.529   .     S
C875   H981    1.111   .     S
C876   H979    1.106   .     S
C876   H980    1.111   .     S
C876   H1104   1.111   .     S
C877   H987    1.103   .     S
C877   C878    1.530   .     S
C877   H986    1.109   .     S
C878   H985    1.111   .     S
C878   H984    1.111   .     S
C878   H1379   1.108   1_455 S
C879   H992    1.111   .     S
C879   C880    1.529   .     S
C879   H993    1.104   .     S
C880   H988    1.111   .     S
C880   H991    1.111   .     S
C880   H990    1.106   .     S
C881   H997    1.109   .     S
C881   C883    1.530   .     S
C881   H998    1.103   .     S
C882   C933    1.421   .     A
C882   C916    1.471   .     S
C882   C1285   1.421   1_455 S
C883   H996    1.111   .     S
C883   H995    1.111   .     S
C884   H1004   1.104   .     S
C884   C885    1.529   .     S
C884   H1003   1.111   .     S
C885   H1002   1.111   .     S
C885   H1001   1.106   .     S
C885   H999    1.111   .     S
C886   H1009   1.103   .     S
C886   C887    1.530   .     S
C886   H1008   1.109   .     S
C887   H1007   1.111   .     S
C887   H1005   1.111   .     S
C887   H1402   1.108   .     S
C888   C913    1.471   .     S
C888   C944    1.421   .     A
C889   C1278   1.421   .     S
C890   C914    1.472   .     S
C890   C911    1.421   .     S
C891   C919    1.456   .     S
C891   C966    1.410   .     S
C892   C920    1.473   .     S
C893   C1201   1.410   1_455 S
C893   C917    1.456   .     S
C894   C918    1.473   .     S
C894   C1256   1.419   1_455 S
C895   C901    1.413   .     A
C895   C974    1.418   .     A
C896   C975    1.418   .     A
C896   C899    1.413   .     A
C897   C976    1.418   .     A
C897   C903    1.413   .     A
C898   C902    1.413   .     A
C900   C96     1.421   1_565 S
C904   C909    1.405   1_556 S
C905   C908    1.405   1_554 S
C906   C912    1.405   1_556 S
C907   C910    1.405   1_554 S
C908   C905    1.405   1_556 S
C909   C904    1.405   1_554 S
C910   C907    1.405   1_556 S
C912   C906    1.405   1_554 S
C913   O1172   1.282   .     A
C914   O1160   1.282   .     S
C915   O1503   1.282   1_455 A
C915   O1170   1.282   .     S
C916   O1108   1.282   .     A
C916   O1567   1.282   1_455 S
C917   O1109   1.276   .     A
C917   O1113   1.276   .     A
C918   O1114   1.282   .     A
C918   O1110   1.282   .     A
C919   O1111   1.276   .     S
C919   O1115   1.276   .     S
C920   O1112   1.282   .     S
C920   O1117   1.282   .     S
C921   O1118   1.282   .     A
C921   O1146   1.282   .     A
C922   C1267   1.421   .     A
C922   C974    1.411   .     A
C923   O1147   1.282   .     A
C923   O1119   1.282   .     A
C924   O1144   1.282   .     A
C924   O1120   1.282   .     A
C925   O1145   1.282   .     A
C925   O1121   1.282   .     A
C926   O1122   1.282   .     A
C926   O1151   1.282   .     A
C927   O1123   1.282   .     A
C927   O1152   1.282   .     A
C928   O1124   1.282   .     A
C928   O1148   1.282   .     A
C929   O1125   1.282   .     A
C929   O1150   1.282   .     A
C930   O1137   1.282   .     A
C930   O1126   1.282   .     A
C931   O1139   1.282   .     A
C931   O1128   1.282   .     A
C932   O1129   1.282   .     A
C932   O1135   1.282   .     A
C933   C975    1.411   .     A
C934   O1136   1.282   .     A
C934   O1130   1.282   .     A
C935   O1142   1.282   .     A
C935   O1131   1.282   .     A
C936   O1132   1.282   .     A
C936   O1143   1.282   .     A
C937   O1133   1.282   .     A
C937   O1140   1.282   .     A
C938   O1141   1.282   .     A
C938   O1134   1.282   .     A
C939   C956    1.386   .     A
C939   H977    1.083   .     S
C940   C954    1.386   .     A
C940   H1017   1.083   .     S
C941   H1028   1.083   .     S
C941   C953    1.386   .     A
C942   C952    1.386   .     A
C942   H1039   1.083   .     S
C943   C951    1.386   .     A
C943   H1050   1.083   .     S
C944   C976    1.411   .     A
C945   C950    1.386   .     A
C945   H1061   1.083   .     S
C946   C949    1.386   .     A
C946   H1072   1.083   .     S
C947   C948    1.386   .     A
C947   H1083   1.083   .     S
C948   H1094   1.083   .     S
C949   H978    1.083   .     S
C950   H989    1.083   .     S
C951   H1000   1.083   .     S
C952   H1010   1.083   .     S
C953   H1011   1.083   .     S
C954   H1012   1.083   .     S
C955   C98     1.421   1_565 A
C956   H1013   1.083   .     S
C957   H1014   1.083   .     S
C957   C973    1.386   .     A
C958   C972    1.386   .     A
C958   H1015   1.083   .     S
C959   H1016   1.083   .     S
C959   C971    1.386   .     A
C960   H1018   1.083   .     S
C960   C970    1.386   .     A
C961   C969    1.386   .     A
C961   H1019   1.083   .     S
C962   C968    1.386   .     A
C962   H1020   1.083   .     S
C963   C967    1.386   .     A
C963   H1021   1.083   .     S
C964   H1022   1.083   .     S
C964   C965    1.386   .     A
C965   H1023   1.083   .     S
C967   H1024   1.083   .     S
C968   H1025   1.083   .     S
C969   H1026   1.083   .     S
C970   H1027   1.083   .     S
C971   H1029   1.083   .     S
C972   H1030   1.083   .     S
C973   H1031   1.083   .     S
C974   C1222   1.410   .     A
H983   C1274   1.108   .     S
H994   C91     1.108   1_565 S
H1006  C1283   1.108   1_455 S
O1105  Zn1173  1.948   .     S
O1105  Zn1176  1.948   .     S
O1105  Zn1184  1.948   .     S
O1106  C122    1.282   1_565 A
O1106  Zn1175  1.952   .     S
O1107  Zn1178  1.952   .     S
O1107  C1311   1.282   .     A
O1108  Zn1177  1.952   .     S
O1109  Zn1187  1.952   .     S
O1110  Zn1186  1.952   .     S
O1111  Zn1181  1.952   .     S
O1112  Zn1173  1.952   .     S
O1113  Zn1183  1.952   .     S
O1114  Zn1182  1.952   .     S
O1115  Zn1185  1.952   .     S
O1116  Zn1179  1.948   .     S
O1116  Zn1181  1.948   .     S
O1116  Zn1185  1.948   .     S
O1117  Zn1184  1.952   .     S
O1118  Zn1176  1.935   .     S
O1119  Zn1175  1.935   .     S
O1120  Zn1178  1.935   .     S
O1121  Zn1177  1.935   .     S
O1122  Zn1180  1.935   .     S
O1123  Zn1179  1.935   .     S
O1124  Zn1174  1.935   .     S
O1125  Zn1188  1.935   .     S
O1126  Zn1175  1.935   .     S
O1127  Zn1174  1.948   .     S
O1127  Zn1182  1.948   .     S
O1127  Zn1574  1.948   1_455 S
O1127  Zn1186  1.948   .     S
O1128  Zn1176  1.935   .     S
O1129  Zn1188  1.935   .     S
O1130  Zn1174  1.935   .     S
O1131  Zn1179  1.935   .     S
O1132  Zn1180  1.935   .     S
O1133  Zn1177  1.935   .     S
O1134  Zn1178  1.935   .     S
O1135  Zn1579  1.935   .     S
O1136  Zn1182  1.935   .     S
O1137  Zn393   1.935   1_565 S
O1138  Zn1187  1.948   .     S
O1138  Zn1584  1.948   1_455 S
O1138  Zn1177  1.948   .     S
O1138  Zn1183  1.948   .     S
O1139  Zn1184  1.935   .     S
O1140  Zn1187  1.935   .     S
O1141  Zn1582  1.935   .     S
O1142  Zn1181  1.935   .     S
O1143  Zn381   1.935   1_565 S
O1144  Zn1578  1.935   .     S
O1145  Zn1183  1.935   .     S
O1146  Zn1173  1.935   .     S
O1147  Zn389   1.935   1_565 S
O1148  Zn1186  1.935   .     S
O1149  Zn1180  1.952   .     S
O1149  C121    1.282   1_565 S
O1150  Zn1583  1.935   .     S
O1151  Zn392   1.935   1_565 S
O1152  Zn1185  1.935   .     S
O1160  Zn1179  1.952   .     S
O1170  Zn1174  1.952   .     S
O1171  Zn1188  1.952   .     S
O1171  C1312   1.282   .     S
O1172  Zn1176  1.952   .     S
Zn1175 O324    1.948   1_565 S
Zn1178 O1523   1.948   .     S
Zn1180 O313    1.948   1_565 S
Zn1182 O1540   1.935   1_455 S
Zn1183 O1531   1.935   1_455 S
Zn1186 O1537   1.935   1_455 S
Zn1187 O1546   1.935   1_455 S
Zn1188 O1534   1.948   .     S
C1189  C1249   1.532   .     S
C1189  C1192   1.411   .     A
C1189  C1267   1.421   .     S
C1190  C1269   1.531   .     S
C1190  C1202   1.415   .     A
C1190  C496    1.419   1_565 S
C1191  C1351   1.411   .     A
C1191  C1294   1.417   .     A
C1191  C434    1.410   1_565 A
C1192  C1295   1.418   .     A
C1192  C1222   1.410   .     S
C1193  C1297   1.418   .     A
C1193  C1285   1.411   .     A
C1193  C828    1.410   1_655 S
C1194  C1298   1.418   .     A
C1194  C433    1.410   1_565 A
C1194  C1296   1.411   .     A
C1195  C1307   1.411   .     A
C1195  C1299   1.418   .     A
C1195  C1226   1.410   .     S
C1196  C1223   1.415   .     A
C1196  C1300   1.414   .     A
C1196  C435    1.417   1_565 S
C1197  C1234   1.415   .     A
C1197  C1301   1.414   .     A
C1197  C1228   1.414   .     A
C1198  C1229   1.417   .     A
C1198  C1302   1.414   .     A
C1198  C1245   1.415   .     A
C1199  C1303   1.414   .     A
C1199  C1256   1.415   .     A
C1199  C834    1.414   1_655 S
C1200  C1362   1.415   .     A
C1200  C1227   1.417   .     A
C1200  C1304   1.414   .     A
C1201  C1271   1.531   .     S
C1201  C1203   1.415   .     A
C1201  C893    1.410   1_655 S
C1202  C1305   1.414   .     A
C1202  C436    1.414   1_565 S
C1203  C1306   1.414   .     A
C1203  C833    1.417   1_655 S
C1204  C1308   1.414   .     A
C1204  C1212   1.415   .     A
C1204  C1230   1.414   .     A
C1205  C1352   1.402   .     A
C1205  C1354   1.402   .     A
C1205  C1324   1.454   .     S
C1206  C1325   1.454   .     S
C1206  C1353   1.402   .     A
C1206  C1350   1.402   .     A
C1207  C1317   1.454   .     S
C1207  C1349   1.402   .     A
C1207  C1356   1.402   .     A
C1208  C1348   1.402   .     A
C1208  C1355   1.402   .     A
C1208  C1319   1.454   .     S
C1209  C1358   1.402   .     A
C1209  C1347   1.402   .     A
C1209  C1320   1.454   .     S
C1210  C1321   1.454   .     S
C1210  C1346   1.402   .     A
C1210  C1357   1.402   .     A
C1211  C1322   1.454   .     S
C1211  C1345   1.402   .     A
C1211  C1360   1.402   .     A
C1212  C1273   1.531   .     S
C1212  C1290   1.419   .     A
C1213  C1359   1.402   .     A
C1213  C1344   1.402   .     A
C1213  C1323   1.454   .     S
C1214  C1343   1.401   .     A
C1214  C1333   1.454   .     S
C1214  C1363   1.402   .     A
C1215  C1334   1.454   .     S
C1215  C1361   1.402   .     A
C1215  C1342   1.402   .     A
C1216  C1341   1.401   .     A
C1216  C1365   1.402   .     A
C1216  C1326   1.454   .     S
C1217  C1339   1.402   .     A
C1217  C1327   1.454   .     S
C1217  C1364   1.401   .     A
C1218  C1338   1.401   .     A
C1218  C1367   1.402   .     A
C1218  C1328   1.454   .     S
C1219  C1366   1.401   .     A
C1219  C1337   1.402   .     A
C1219  C1330   1.454   .     S
C1220  C1369   1.402   .     A
C1220  C1336   1.401   .     A
C1220  C1331   1.454   .     S
C1221  C1332   1.454   .     S
C1221  C1335   1.402   .     A
C1221  C1368   1.401   .     A
C1222  C1224   1.397   .     S
C1223  C1275   1.531   .     S
C1223  C495    1.410   1_565 A
C1224  C1371   1.410   .     A
C1225  C1226   1.397   .     A
C1225  C1372   1.410   .     S
C1227  C1228   1.411   1_556 S
C1228  C1227   1.411   1_554 S
C1229  C1230   1.411   1_556 S
C1230  C1229   1.411   1_554 S
C1231  O1549   1.221   .     D
C1231  C1291   1.496   .     S
C1231  H1428   1.082   .     S
C1232  O1550   1.221   .     D
C1232  C1292   1.496   .     S
C1232  H1429   1.082   .     S
C1233  C1293   1.496   .     S
C1233  H1430   1.083   .     S
C1233  O1551   1.221   .     D
C1234  C1277   1.531   .     S
C1234  C1288   1.419   .     A
C1235  O1552   1.221   .     D
C1235  H1431   1.082   .     S
C1235  C1294   1.496   .     S
C1236  C1295   1.496   .     S
C1236  O1553   1.221   .     D
C1236  H1432   1.082   .     S
C1237  O1554   1.221   .     D
C1237  H1433   1.082   .     S
C1237  C1297   1.496   .     S
C1238  C1298   1.496   .     S
C1238  H1434   1.083   .     S
C1238  O1555   1.221   .     D
C1239  O1557   1.221   .     D
C1239  H1436   1.082   .     S
C1239  C1299   1.496   .     S
C1240  C1300   1.493   .     S
C1240  O1558   1.221   .     D
C1240  H1437   1.085   .     S
C1241  C1301   1.493   .     S
C1241  H1438   1.085   .     S
C1241  O1559   1.221   .     D
C1242  H1439   1.085   .     S
C1242  C1302   1.493   .     S
C1242  O1560   1.221   .     D
C1243  H1440   1.085   .     S
C1243  C1303   1.493   .     S
C1243  O1561   1.221   .     D
C1244  C1304   1.493   .     S
C1244  H1441   1.085   .     S
C1244  O1562   1.221   .     D
C1245  C1280   1.531   .     S
C1245  C1289   1.410   .     A
C1246  H1442   1.085   .     S
C1246  C1305   1.493   .     S
C1246  O1563   1.221   .     D
C1247  H1443   1.085   .     S
C1247  C1306   1.493   .     S
C1247  O1564   1.221   .     D
C1248  H1444   1.085   .     S
C1248  C1308   1.493   .     S
C1248  O1565   1.221   .     D
C1249  H1449   1.108   .     S
C1249  C1250   1.530   .     S
C1249  H1450   1.110   .     S
C1250  H1448   1.111   .     S
C1250  H1445   1.108   .     S
C1250  H1447   1.111   .     S
C1251  C1285   1.532   .     S
C1251  C1252   1.530   .     S
C1251  H1454   1.108   .     S
C1251  H1455   1.110   .     S
C1252  H1453   1.111   .     S
C1252  H1451   1.111   .     S
C1252  H1452   1.108   .     S
C1253  C1296   1.532   .     S
C1253  H1461   1.110   .     S
C1253  H1460   1.108   .     S
C1253  C1254   1.530   .     S
C1254  H1458   1.111   .     S
C1254  H1459   1.111   .     S
C1254  H1456   1.108   .     S
C1255  H1466   1.110   .     S
C1255  C1307   1.532   .     S
C1255  H1465   1.108   .     S
C1255  C1257   1.530   .     S
C1256  C1282   1.531   .     S
C1256  C894    1.419   1_655 S
C1257  H1463   1.108   .     S
C1257  H1462   1.111   .     S
C1257  H1464   1.111   .     S
C1258  H1471   1.108   .     S
C1258  C1318   1.532   .     S
C1258  C1259   1.530   .     S
C1258  H1472   1.110   .     S
C1259  H1470   1.111   .     S
C1259  H1467   1.108   .     S
C1259  H1469   1.111   .     S
C1260  C1261   1.530   .     S
C1260  C1329   1.532   .     S
C1260  H1476   1.108   .     S
C1260  H1477   1.110   .     S
C1261  H1474   1.108   .     S
C1261  H1473   1.111   .     S
C1261  H1475   1.111   .     S
C1262  C1340   1.532   .     S
C1262  H1482   1.108   .     S
C1262  H1483   1.110   .     S
C1262  C1263   1.530   .     S
C1263  H1481   1.111   .     S
C1263  H1480   1.111   .     S
C1263  H1478   1.108   .     S
C1264  H1487   1.108   .     S
C1264  C1351   1.532   .     S
C1264  H1488   1.110   .     S
C1264  C1265   1.530   .     S
C1265  H1485   1.111   .     S
C1265  H1484   1.108   .     S
C1265  H1486   1.111   .     S
C1266  C1268   1.529   .     S
C1266  H1493   1.111   .     S
C1266  H1494   1.104   .     S
C1266  C1362   1.531   .     S
C1267  C1311   1.471   .     S
C1268  H1489   1.111   .     S
C1268  H1491   1.106   .     S
C1268  H1492   1.111   .     S
C1269  H1498   1.109   .     S
C1269  H1499   1.103   .     S
C1269  C1270   1.530   .     S
C1270  H1496   1.111   .     S
C1270  H1497   1.111   .     S
C1270  H703    1.108   1_565 S
C1271  H1378   1.104   .     S
C1271  C1272   1.529   .     S
C1271  H1377   1.111   .     S
C1272  H1375   1.106   .     S
C1272  H1376   1.111   .     S
C1272  H1500   1.111   .     S
C1273  H1383   1.103   .     S
C1273  C1274   1.530   .     S
C1273  H1382   1.109   .     S
C1274  H1381   1.111   .     S
C1274  H1380   1.111   .     S
C1275  H1388   1.111   .     S
C1275  C1276   1.529   .     S
C1275  H1389   1.104   .     S
C1276  H1384   1.111   .     S
C1276  H1387   1.111   .     S
C1276  H1386   1.106   .     S
C1277  H1393   1.109   .     S
C1277  C1279   1.530   .     S
C1277  H1394   1.103   .     S
C1278  C1329   1.421   .     A
C1278  C1312   1.471   .     S
C1279  H1392   1.111   .     S
C1279  H1391   1.111   .     S
C1280  H1400   1.104   .     S
C1280  C1281   1.529   .     S
C1280  H1399   1.111   .     S
C1281  H1398   1.111   .     S
C1281  H1397   1.106   .     S
C1281  H1395   1.111   .     S
C1282  H1405   1.103   .     S
C1282  C1283   1.530   .     S
C1282  H1404   1.109   .     S
C1283  H1403   1.111   .     S
C1283  H1401   1.111   .     S
C1283  H1006   1.108   1_655 S
C1284  C1309   1.471   .     S
C1284  C1340   1.421   .     A
C1285  C882    1.421   1_655 S
C1286  C1310   1.472   .     S
C1286  C1307   1.421   .     S
C1287  C1315   1.456   .     S
C1287  C1362   1.410   .     S
C1288  C1316   1.473   .     S
C1289  C1313   1.456   .     S
C1290  C1314   1.473   .     S
C1291  C1297   1.413   .     A
C1291  C1370   1.418   .     A
C1292  C1371   1.418   .     A
C1292  C1295   1.413   .     A
C1293  C1372   1.418   .     A
C1293  C1299   1.413   .     A
C1294  C1298   1.413   .     A
C1296  C492    1.421   1_565 S
C1300  C1305   1.405   1_556 S
C1301  C1304   1.405   1_554 S
C1302  C1308   1.405   1_556 S
C1303  C1306   1.405   1_554 S
C1304  C1301   1.405   1_556 S
C1305  C1300   1.405   1_554 S
C1306  C1303   1.405   1_556 S
C1308  C1302   1.405   1_554 S
C1309  O1568   1.282   .     A
C1310  O1556   1.282   .     S
C1311  O1566   1.282   .     S
C1312  O1504   1.282   .     A
C1313  O1505   1.276   .     A
C1313  O1509   1.276   .     A
C1314  O1510   1.282   .     A
C1314  O1506   1.282   .     A
C1315  O1507   1.276   .     S
C1315  O1511   1.276   .     S
C1316  O1508   1.282   .     S
C1316  O1513   1.282   .     S
C1317  O1514   1.282   .     A
C1317  O1542   1.282   .     A
C1318  C871    1.421   1_655 A
C1318  C1370   1.411   .     A
C1319  O1543   1.282   .     A
C1319  O1515   1.282   .     A
C1320  O1540   1.282   .     A
C1320  O1516   1.282   .     A
C1321  O1541   1.282   .     A
C1321  O1517   1.282   .     A
C1322  O1518   1.282   .     A
C1322  O1547   1.282   .     A
C1323  O1519   1.282   .     A
C1323  O1548   1.282   .     A
C1324  O1520   1.282   .     A
C1324  O1544   1.282   .     A
C1325  O1521   1.282   .     A
C1325  O1546   1.282   .     A
C1326  O1533   1.282   .     A
C1326  O1522   1.282   .     A
C1327  O1535   1.282   .     A
C1327  O1524   1.282   .     A
C1328  O1525   1.282   .     A
C1328  O1531   1.282   .     A
C1329  C1371   1.411   .     A
C1330  O1532   1.282   .     A
C1330  O1526   1.282   .     A
C1331  O1538   1.282   .     A
C1331  O1527   1.282   .     A
C1332  O1528   1.282   .     A
C1332  O1539   1.282   .     A
C1333  O1529   1.282   .     A
C1333  O1536   1.282   .     A
C1334  O1537   1.282   .     A
C1334  O1530   1.282   .     A
C1335  C1352   1.386   .     A
C1335  H1373   1.083   .     S
C1336  C1350   1.386   .     A
C1336  H1413   1.083   .     S
C1337  H1424   1.083   .     S
C1337  C1349   1.386   .     A
C1338  C1348   1.386   .     A
C1338  H1435   1.083   .     S
C1339  C1347   1.386   .     A
C1339  H1446   1.083   .     S
C1340  C1372   1.411   .     A
C1341  C1346   1.386   .     A
C1341  H1457   1.083   .     S
C1342  C1345   1.386   .     A
C1342  H1468   1.083   .     S
C1343  C1344   1.386   .     A
C1343  H1479   1.083   .     S
C1344  H1490   1.083   .     S
C1345  H1374   1.083   .     S
C1346  H1385   1.083   .     S
C1347  H1396   1.083   .     S
C1348  H1406   1.083   .     S
C1349  H1407   1.083   .     S
C1350  H1408   1.083   .     S
C1351  C494    1.421   1_565 A
C1352  H1409   1.083   .     S
C1353  H1410   1.083   .     S
C1353  C1369   1.386   .     A
C1354  C1368   1.386   .     A
C1354  H1411   1.083   .     S
C1355  H1412   1.083   .     S
C1355  C1367   1.386   .     A
C1356  H1414   1.083   .     S
C1356  C1366   1.386   .     A
C1357  C1365   1.386   .     A
C1357  H1415   1.083   .     S
C1358  C1364   1.386   .     A
C1358  H1416   1.083   .     S
C1359  C1363   1.386   .     A
C1359  H1417   1.083   .     S
C1360  H1418   1.083   .     S
C1360  C1361   1.386   .     A
C1361  H1419   1.083   .     S
C1363  H1420   1.083   .     S
C1364  H1421   1.083   .     S
C1365  H1422   1.083   .     S
C1366  H1423   1.083   .     S
C1367  H1425   1.083   .     S
C1368  H1426   1.083   .     S
C1369  H1427   1.083   .     S
C1370  C826    1.410   1_655 A
H1379  C878    1.108   1_655 S
H1390  C487    1.108   1_565 S
O1501  Zn1569  1.948   .     S
O1501  Zn1572  1.948   .     S
O1501  Zn1580  1.948   .     S
O1502  C518    1.282   1_565 A
O1502  Zn1571  1.952   .     S
O1503  Zn1574  1.952   .     S
O1503  C915    1.282   1_655 A
O1504  Zn1573  1.952   .     S
O1505  Zn1583  1.952   .     S
O1506  Zn1582  1.952   .     S
O1507  Zn1577  1.952   .     S
O1508  Zn1569  1.952   .     S
O1509  Zn1579  1.952   .     S
O1510  Zn1578  1.952   .     S
O1511  Zn1581  1.952   .     S
O1512  Zn1575  1.948   .     S
O1512  Zn1577  1.948   .     S
O1512  Zn1581  1.948   .     S
O1513  Zn1580  1.952   .     S
O1514  Zn1572  1.935   .     S
O1515  Zn1571  1.935   .     S
O1516  Zn1574  1.935   .     S
O1517  Zn1573  1.935   .     S
O1518  Zn1576  1.935   .     S
O1519  Zn1575  1.935   .     S
O1520  Zn1570  1.935   .     S
O1521  Zn1584  1.935   .     S
O1522  Zn1571  1.935   .     S
O1523  Zn1570  1.948   .     S
O1523  Zn1578  1.948   .     S
O1523  Zn1582  1.948   .     S
O1524  Zn1572  1.935   .     S
O1525  Zn1584  1.935   .     S
O1526  Zn1570  1.935   .     S
O1527  Zn1575  1.935   .     S
O1528  Zn1576  1.935   .     S
O1529  Zn1573  1.935   .     S
O1530  Zn1574  1.935   .     S
O1531  Zn1183  1.935   1_655 S
O1532  Zn1578  1.935   .     S
O1533  Zn789   1.935   1_565 S
O1534  Zn1583  1.948   .     S
O1534  Zn1573  1.948   .     S
O1534  Zn1579  1.948   .     S
O1535  Zn1580  1.935   .     S
O1536  Zn1583  1.935   .     S
O1537  Zn1186  1.935   1_655 S
O1538  Zn1577  1.935   .     S
O1539  Zn777   1.935   1_565 S
O1540  Zn1182  1.935   1_655 S
O1541  Zn1579  1.935   .     S
O1542  Zn1569  1.935   .     S
O1543  Zn785   1.935   1_565 S
O1544  Zn1582  1.935   .     S
O1545  Zn1576  1.952   .     S
O1545  C517    1.282   1_565 S
O1546  Zn1187  1.935   1_655 S
O1547  Zn788   1.935   1_565 S
O1548  Zn1581  1.935   .     S
O1556  Zn1575  1.952   .     S
O1566  Zn1570  1.952   .     S
O1567  Zn1584  1.952   .     S
O1567  C916    1.282   1_655 S
O1568  Zn1572  1.952   .     S
Zn1571 O720    1.948   1_565 S
Zn1574 O1127   1.948   1_655 S
Zn1576 O709    1.948   1_565 S
Zn1584 O1138   1.948   1_655 S
