data_str_m1_o1_o2_pcu_sym.18
_audit_creation_date              2020-01-03
_audit_creation_method            'Materials Studio'
_symmetry_space_group_name_H-M    'P1'
_symmetry_Int_Tables_number       1
_symmetry_cell_setting            triclinic
loop_
_symmetry_equiv_pos_as_xyz
  x,y,z
_cell_length_a                    36.6296
_cell_length_b                    36.6475
_cell_length_c                    34.5532
_cell_angle_alpha                 90.0337
_cell_angle_beta                  89.9886
_cell_angle_gamma                 89.9391
loop_
_atom_site_label
_atom_site_type_symbol
_atom_site_fract_x
_atom_site_fract_y
_atom_site_fract_z
_atom_site_U_iso_or_equiv
_atom_site_adp_type
_atom_site_occupancy
C1     C     0.22467   0.02080   0.04122   0.00000  Uiso   1.00
C2     C     0.02326   0.27359   0.45861   0.00000  Uiso   1.00
C3     C     0.34794   0.40181   0.75010   0.00000  Uiso   1.00
C4     C     0.40171   0.15203   0.24988   0.00000  Uiso   1.00
C5     C     0.09839   0.34784   0.75094   0.00000  Uiso   1.00
C6     C     0.34784   0.40164   0.24903   0.00000  Uiso   1.00
C7     C     0.15197   0.09801   0.75003   0.00000  Uiso   1.00
C8     C     0.09803   0.15199   0.74997   0.00000  Uiso   1.00
C9     C     0.40216   0.34837   0.25097   0.00000  Uiso   1.00
C10    C     0.15162   0.40216   0.74906   0.00000  Uiso   1.00
C11    C     0.34829   0.09799   0.25012   0.00000  Uiso   1.00
C12    C     0.40156   0.34768   0.75098   0.00000  Uiso   1.00
C13    C     0.22636   0.47672   0.54140   0.00000  Uiso   1.00
C14    C     0.09819   0.15206   0.24990   0.00000  Uiso   1.00
C15    C     0.34829   0.09796   0.74988   0.00000  Uiso   1.00
C16    C     0.15216   0.40162   0.24904   0.00000  Uiso   1.00
C17    C     0.25014   0.49956   0.10228   0.00000  Uiso   1.00
C18    C     0.24986   0.00078   0.89752   0.00000  Uiso   1.00
C19    C     0.49927   0.25010   0.10248   0.00000  Uiso   1.00
C20    C     0.00049   0.24990   0.89771   0.00000  Uiso   1.00
C21    C     0.00008   0.24932   0.60228   0.00000  Uiso   1.00
C22    C     0.49983   0.25048   0.39752   0.00000  Uiso   1.00
C23    C     0.24950   0.00014   0.60248   0.00000  Uiso   1.00
C24    C     0.22984   0.02561   0.45888   0.00000  Uiso   1.00
C25    C     0.25067   0.49995   0.39772   0.00000  Uiso   1.00
C26    C     0.02609   0.22689   0.54189   0.00000  Uiso   1.00
C27    C     0.47811   0.22380   0.45784   0.00000  Uiso   1.00
C28    C     0.27611   0.02192   0.54214   0.00000  Uiso   1.00
C29    C     0.27306   0.47392   0.45807   0.00000  Uiso   1.00
C30    C     0.22452   0.02078   0.08198   0.00000  Uiso   1.00
C31    C     0.27226   0.02549   0.91814   0.00000  Uiso   1.00
C32    C     0.47462   0.22767   0.08184   0.00000  Uiso   1.00
C33    C     0.27342   0.02416   0.95844   0.00000  Uiso   1.00
C34    C     0.47924   0.27548   0.91807   0.00000  Uiso   1.00
C35    C     0.27596   0.47803   0.08256   0.00000  Uiso   1.00
C36    C     0.22773   0.47556   0.91727   0.00000  Uiso   1.00
C37    C     0.02448   0.27227   0.08275   0.00000  Uiso   1.00
C38    C     0.02209   0.22412   0.91737   0.00000  Uiso   1.00
C39    C     0.47437   0.27038   0.58190   0.00000  Uiso   1.00
C40    C     0.02213   0.27514   0.41832   0.00000  Uiso   1.00
C41    C     0.22485   0.47782   0.58170   0.00000  Uiso   1.00
C42    C     0.22960   0.02564   0.41813   0.00000  Uiso   1.00
C43    C     0.02583   0.22763   0.58264   0.00000  Uiso   1.00
C44    C     0.47597   0.22652   0.04154   0.00000  Uiso   1.00
C45    C     0.47777   0.22508   0.41709   0.00000  Uiso   1.00
C46    C     0.27487   0.02225   0.58290   0.00000  Uiso   1.00
C47    C     0.27235   0.47420   0.41733   0.00000  Uiso   1.00
C48    C     0.25070   0.49912   0.02120   0.00000  Uiso   1.00
C49    C     0.25103   0.49899   0.97858   0.00000  Uiso   1.00
C50    C     0.00111   0.24896   0.02141   0.00000  Uiso   1.00
C51    C     0.00099   0.24933   0.97879   0.00000  Uiso   1.00
C52    C     0.00039   0.24832   0.52120   0.00000  Uiso   1.00
C53    C     0.00090   0.24827   0.47858   0.00000  Uiso   1.00
C54    C     0.25166   0.49911   0.52142   0.00000  Uiso   1.00
C55    C     0.47925   0.27532   0.95882   0.00000  Uiso   1.00
C56    C     0.25160   0.49961   0.47880   0.00000  Uiso   1.00
C57    C     0.25010  -0.00000   0.35521   0.00000  Uiso   1.00
C58    C     0.24978   0.00001   0.64487   0.00000  Uiso   1.00
C59    C     0.49998   0.25021   0.35514   0.00000  Uiso   1.00
C60    C     0.00001   0.24991   0.64478   0.00000  Uiso   1.00
C61    C     0.00008   0.24999   0.85521   0.00000  Uiso   1.00
C62    C     0.49974   0.25001   0.14487   0.00000  Uiso   1.00
C63    C     0.24998   0.00026   0.85514   0.00000  Uiso   1.00
C64    C     0.25002   0.49993   0.14478   0.00000  Uiso   1.00
C65    C     0.18012   0.07011   0.24979   0.00000  Uiso   1.00
C66    C     0.27637   0.47758   0.04182   0.00000  Uiso   1.00
C67    C     0.31998   0.42999   0.75000   0.00000  Uiso   1.00
C68    C     0.42992   0.18000   0.24994   0.00000  Uiso   1.00
C69    C     0.07013   0.31991   0.75023   0.00000  Uiso   1.00
C70    C     0.31991   0.42989   0.24976   0.00000  Uiso   1.00
C71    C     0.18002   0.06997   0.75001   0.00000  Uiso   1.00
C72    C     0.06991   0.32012   0.25024   0.00000  Uiso   1.00
C73    C     0.42992   0.18001   0.75006   0.00000  Uiso   1.00
C74    C     0.17987   0.43009   0.74977   0.00000  Uiso   1.00
C75    C     0.32008   0.07000   0.25006   0.00000  Uiso   1.00
C76    C     0.42989   0.31989   0.75021   0.00000  Uiso   1.00
C77    C     0.22812   0.47451   0.95803   0.00000  Uiso   1.00
C78    C     0.07001   0.18002   0.25000   0.00000  Uiso   1.00
C79    C     0.32008   0.06999   0.74994   0.00000  Uiso   1.00
C80    C     0.18009   0.42988   0.24976   0.00000  Uiso   1.00
C81    C     0.06998   0.18003   0.74999   0.00000  Uiso   1.00
C82    C     0.43009   0.32011   0.25024   0.00000  Uiso   1.00
C83    C     0.11533   0.41237   0.25101   0.00000  Uiso   1.00
C84    C     0.36306   0.10964   0.78532   0.00000  Uiso   1.00
C85    C     0.08834   0.11495   0.25466   0.00000  Uiso   1.00
C86    C     0.41201   0.38435   0.74685   0.00000  Uiso   1.00
C87    C     0.36312   0.10958   0.21468   0.00000  Uiso   1.00
C88    C     0.02556   0.27190   0.04199   0.00000  Uiso   1.00
C89    C     0.11432   0.41208   0.74730   0.00000  Uiso   1.00
C90    C     0.41208   0.38562   0.25281   0.00000  Uiso   1.00
C91    C     0.08841   0.11531   0.74217   0.00000  Uiso   1.00
C92    C     0.11527   0.08842   0.74221   0.00000  Uiso   1.00
C93    C     0.38464   0.41235   0.25112   0.00000  Uiso   1.00
C94    C     0.08761   0.38464   0.74895   0.00000  Uiso   1.00
C95    C     0.39089   0.13616   0.21464   0.00000  Uiso   1.00
C96    C     0.38508   0.41163   0.74534   0.00000  Uiso   1.00
C97    C     0.11563   0.08802   0.25315   0.00000  Uiso   1.00
C98    C     0.39082   0.13623   0.78536   0.00000  Uiso   1.00
C99    C     0.02257   0.22371   0.95812   0.00000  Uiso   1.00
C100   C     0.08790   0.38566   0.25269   0.00000  Uiso   1.00
C101   C     0.38693   0.14035   0.71468   0.00000  Uiso   1.00
C102   C     0.13467   0.33763   0.24898   0.00000  Uiso   1.00
C103   C     0.33778   0.36485   0.75531   0.00000  Uiso   1.00
C104   C     0.16219   0.13549   0.24463   0.00000  Uiso   1.00
C105   C     0.13569   0.33793   0.75270   0.00000  Uiso   1.00
C106   C     0.38688   0.14044   0.28532   0.00000  Uiso   1.00
C107   C     0.16159   0.13470   0.75783   0.00000  Uiso   1.00
C108   C     0.33792   0.36438   0.24719   0.00000  Uiso   1.00
C109   C     0.36536   0.33765   0.24887   0.00000  Uiso   1.00
C110   C     0.47438   0.27008   0.54114   0.00000  Uiso   1.00
C111   C     0.13473   0.16158   0.75780   0.00000  Uiso   1.00
C112   C     0.35911   0.11387   0.28535   0.00000  Uiso   1.00
C113   C     0.16239   0.36536   0.75106   0.00000  Uiso   1.00
C114   C     0.13518   0.16219   0.24469   0.00000  Uiso   1.00
C115   C     0.36449   0.33784   0.75537   0.00000  Uiso   1.00
C116   C     0.16210   0.36433   0.24731   0.00000  Uiso   1.00
C117   C     0.35917   0.11375   0.71464   0.00000  Uiso   1.00
C118   C     0.09784   0.34838   0.25096   0.00000  Uiso   1.00
C119   C     0.40170   0.15203   0.75012   0.00000  Uiso   1.00
C120   C     0.15233   0.09844   0.24902   0.00000  Uiso   1.00
H121   H     0.20227   0.04106   0.99395   0.00000  Uiso   1.00
H122   H     0.04578   0.29428   0.50542   0.00000  Uiso   1.00
H123   H     0.20563   0.45424   0.49459   0.00000  Uiso   1.00
H124   H     0.21026   0.04847   0.50627   0.00000  Uiso   1.00
H125   H     0.04858   0.20542   0.49526   0.00000  Uiso   1.00
H126   H     0.45996   0.19850   0.50433   0.00000  Uiso   1.00
H127   H     0.30137   0.04011   0.49563   0.00000  Uiso   1.00
H128   H     0.29449   0.45142   0.50468   0.00000  Uiso   1.00
H129   H     0.08057   0.45317   0.25318   0.00000  Uiso   1.00
H130   H     0.35073   0.11457   0.83988   0.00000  Uiso   1.00
H131   H     0.03880   0.12439   0.27336   0.00000  Uiso   1.00
H132   H     0.29594   0.04512   0.00511   0.00000  Uiso   1.00
H133   H     0.45255   0.41897   0.74130   0.00000  Uiso   1.00
H134   H     0.35091   0.11439   0.16009   0.00000  Uiso   1.00
H135   H     0.12258   0.46222   0.73029   0.00000  Uiso   1.00
H136   H     0.46221   0.37726   0.26996   0.00000  Uiso   1.00
H137   H     0.03852   0.12567   0.72475   0.00000  Uiso   1.00
H138   H     0.12560   0.03848   0.72494   0.00000  Uiso   1.00
H139   H     0.41935   0.45311   0.25348   0.00000  Uiso   1.00
H140   H     0.04677   0.41935   0.74674   0.00000  Uiso   1.00
H141   H     0.40801   0.12662   0.16238   0.00000  Uiso   1.00
H142   H     0.37567   0.46114   0.72663   0.00000  Uiso   1.00
H143   H     0.45507   0.20399   0.99484   0.00000  Uiso   1.00
H144   H     0.08097   0.04752   0.25870   0.00000  Uiso   1.00
H145   H     0.40786   0.12677   0.83765   0.00000  Uiso   1.00
H146   H     0.03774   0.37741   0.26974   0.00000  Uiso   1.00
H147   H     0.39925   0.13541   0.66012   0.00000  Uiso   1.00
H148   H     0.16941   0.29682   0.24674   0.00000  Uiso   1.00
H149   H     0.28763   0.37441   0.77205   0.00000  Uiso   1.00
H150   H     0.21266   0.12628   0.22884   0.00000  Uiso   1.00
H151   H     0.12743   0.28777   0.76967   0.00000  Uiso   1.00
H152   H     0.39908   0.13566   0.33992   0.00000  Uiso   1.00
H153   H     0.21148   0.12433   0.77523   0.00000  Uiso   1.00
H154   H     0.45901   0.29770   0.00615   0.00000  Uiso   1.00
H155   H     0.28779   0.37274   0.23003   0.00000  Uiso   1.00
H156   H     0.33065   0.29690   0.24652   0.00000  Uiso   1.00
H157   H     0.12440   0.21152   0.77507   0.00000  Uiso   1.00
H158   H     0.34195   0.12349   0.33758   0.00000  Uiso   1.00
H159   H     0.20324   0.33066   0.75334   0.00000  Uiso   1.00
H160   H     0.12565   0.21231   0.22794   0.00000  Uiso   1.00
H161   H     0.37367   0.28740   0.77116   0.00000  Uiso   1.00
H162   H     0.21227   0.37259   0.23029   0.00000  Uiso   1.00
H163   H     0.34214   0.12315   0.66233   0.00000  Uiso   1.00
H164   H     0.18371   0.05548   0.08556   0.00000  Uiso   1.00
H165   H     0.29931   0.45679   0.99508   0.00000  Uiso   1.00
H166   H     0.28281   0.05742   0.87433   0.00000  Uiso   1.00
H167   H     0.44265   0.21706   0.12563   0.00000  Uiso   1.00
H168   H     0.44449   0.31624   0.91458   0.00000  Uiso   1.00
H169   H     0.31660   0.44323   0.08709   0.00000  Uiso   1.00
H170   H     0.19255   0.43536   0.91276   0.00000  Uiso   1.00
H171   H     0.06465   0.30749   0.08729   0.00000  Uiso   1.00
H172   H     0.05698   0.18357   0.91276   0.00000  Uiso   1.00
H173   H     0.43351   0.30503   0.58535   0.00000  Uiso   1.00
H174   H     0.03264   0.30731   0.37470   0.00000  Uiso   1.00
H175   H     0.19270   0.46728   0.62534   0.00000  Uiso   1.00
H176   H     0.20988   0.44955   0.00469   0.00000  Uiso   1.00
H177   H     0.19495   0.06649   0.41472   0.00000  Uiso   1.00
H178   H     0.06642   0.19280   0.58729   0.00000  Uiso   1.00
H179   H     0.44272   0.18477   0.41228   0.00000  Uiso   1.00
H180   H     0.31509   0.05739   0.58768   0.00000  Uiso   1.00
H181   H     0.30718   0.43361   0.41263   0.00000  Uiso   1.00
H182   H     0.05054   0.29017   0.99534   0.00000  Uiso   1.00
H183   H     0.04348   0.20085   0.00480   0.00000  Uiso   1.00
H184   H     0.45143   0.28954   0.49378   0.00000  Uiso   1.00
O185   O     0.25000   0.00000   0.25000   0.00000  Uiso   1.00
O186   O     0.25000   0.46964   0.66317   0.00000  Uiso   1.00
O187   O     0.34244   0.10251   0.68082   0.00000  Uiso   1.00
O188   O     0.20029   0.04201   0.10305   0.00000  Uiso   1.00
O189   O     0.29315   0.05192   0.90012   0.00000  Uiso   1.00
O190   O     0.44820   0.20673   0.09984   0.00000  Uiso   1.00
O191   O     0.45797   0.29967   0.89705   0.00000  Uiso   1.00
O192   O     0.29986   0.45698   0.10420   0.00000  Uiso   1.00
O193   O     0.20667   0.45171   0.89562   0.00000  Uiso   1.00
O194   O     0.04830   0.29336   0.10442   0.00000  Uiso   1.00
O195   O     0.04318   0.20027   0.89568   0.00000  Uiso   1.00
O196   O     0.45020   0.29172   0.60289   0.00000  Uiso   1.00
O197   O     0.46964   0.25000   0.33683   0.00000  Uiso   1.00
O198   O     0.04295   0.30173   0.40049   0.00000  Uiso   1.00
O199   O     0.19828   0.45697   0.59955   0.00000  Uiso   1.00
O200   O     0.20826   0.04982   0.39716   0.00000  Uiso   1.00
O201   O     0.04979   0.20672   0.60436   0.00000  Uiso   1.00
O202   O     0.45681   0.20127   0.39526   0.00000  Uiso   1.00
O203   O     0.29866   0.04324   0.60471   0.00000  Uiso   1.00
O204   O     0.29328   0.45026   0.39559   0.00000  Uiso   1.00
O205   O     0.03036   0.25000   0.66317   0.00000  Uiso   1.00
O206   O     0.00000   0.21964   0.83683   0.00000  Uiso   1.00
O207   O     0.00000   0.28036   0.16317   0.00000  Uiso   1.00
O208   O     0.28036   0.00000   0.83683   0.00000  Uiso   1.00
O209   O     0.21964   0.00000   0.16317   0.00000  Uiso   1.00
O210   O     0.00000   0.28036   0.83683   0.00000  Uiso   1.00
O211   O     0.00000   0.21964   0.16317   0.00000  Uiso   1.00
O212   O     0.21964   0.00000   0.83683   0.00000  Uiso   1.00
O213   O     0.25000   0.00000   0.75000   0.00000  Uiso   1.00
O214   O     0.28036   0.00000   0.16317   0.00000  Uiso   1.00
O215   O     0.20726   0.07307   0.27282   0.00000  Uiso   1.00
O216   O     0.29275   0.42693   0.72718   0.00000  Uiso   1.00
O217   O     0.42693   0.20726   0.27282   0.00000  Uiso   1.00
O218   O     0.07307   0.29275   0.72718   0.00000  Uiso   1.00
O219   O     0.29275   0.42693   0.27282   0.00000  Uiso   1.00
O220   O     0.20726   0.07307   0.72718   0.00000  Uiso   1.00
O221   O     0.07307   0.29275   0.27282   0.00000  Uiso   1.00
O222   O     0.42693   0.20726   0.72718   0.00000  Uiso   1.00
O223   O     0.20726   0.42693   0.72718   0.00000  Uiso   1.00
O224   O     0.00000   0.25000   0.25000   0.00000  Uiso   1.00
O225   O     0.29275   0.07307   0.27282   0.00000  Uiso   1.00
O226   O     0.42693   0.29275   0.72718   0.00000  Uiso   1.00
O227   O     0.07307   0.20726   0.27282   0.00000  Uiso   1.00
O228   O     0.29275   0.07307   0.72718   0.00000  Uiso   1.00
O229   O     0.20726   0.42693   0.27282   0.00000  Uiso   1.00
O230   O     0.07307   0.20726   0.72718   0.00000  Uiso   1.00
O231   O     0.42693   0.29275   0.27282   0.00000  Uiso   1.00
O232   O     0.45726   0.32307   0.77282   0.00000  Uiso   1.00
O233   O     0.04275   0.17693   0.22718   0.00000  Uiso   1.00
O234   O     0.17693   0.45726   0.77282   0.00000  Uiso   1.00
O235   O     0.00000   0.25000   0.75000   0.00000  Uiso   1.00
O236   O     0.32307   0.04275   0.22718   0.00000  Uiso   1.00
O237   O     0.04275   0.17693   0.77282   0.00000  Uiso   1.00
O238   O     0.45726   0.32307   0.22718   0.00000  Uiso   1.00
O239   O     0.32307   0.04275   0.77282   0.00000  Uiso   1.00
O240   O     0.17693   0.45726   0.22718   0.00000  Uiso   1.00
O241   O     0.45726   0.17693   0.22718   0.00000  Uiso   1.00
O242   O     0.04275   0.32307   0.77282   0.00000  Uiso   1.00
O243   O     0.17693   0.04275   0.22718   0.00000  Uiso   1.00
O244   O     0.32307   0.45726   0.77282   0.00000  Uiso   1.00
O245   O     0.04275   0.32307   0.22718   0.00000  Uiso   1.00
O246   O     0.25000   0.46964   0.33683   0.00000  Uiso   1.00
O247   O     0.45726   0.17693   0.77282   0.00000  Uiso   1.00
O248   O     0.32307   0.45726   0.22718   0.00000  Uiso   1.00
O249   O     0.17693   0.04275   0.77282   0.00000  Uiso   1.00
O250   O     0.19919   0.04236   0.02230   0.00000  Uiso   1.00
O251   O     0.29622   0.04883   0.97681   0.00000  Uiso   1.00
O252   O     0.45134   0.20369   0.02314   0.00000  Uiso   1.00
O253   O     0.45766   0.30076   0.97780   0.00000  Uiso   1.00
O254   O     0.30208   0.45582   0.02348   0.00000  Uiso   1.00
O255   O     0.20588   0.44933   0.97643   0.00000  Uiso   1.00
O256   O     0.05071   0.29418   0.02360   0.00000  Uiso   1.00
O257   O     0.25000   0.03036   0.66317   0.00000  Uiso   1.00
O258   O     0.04439   0.19804   0.97640   0.00000  Uiso   1.00
O259   O     0.44884   0.29152   0.52215   0.00000  Uiso   1.00
O260   O     0.04595   0.29825   0.47715   0.00000  Uiso   1.00
O261   O     0.20172   0.45401   0.52287   0.00000  Uiso   1.00
O262   O     0.20839   0.05114   0.47791   0.00000  Uiso   1.00
O263   O     0.05177   0.20503   0.52363   0.00000  Uiso   1.00
O264   O     0.45592   0.19847   0.47607   0.00000  Uiso   1.00
O265   O     0.30142   0.04414   0.52390   0.00000  Uiso   1.00
O266   O     0.29492   0.44826   0.47631   0.00000  Uiso   1.00
O267   O     0.10731   0.44929   0.25304   0.00000  Uiso   1.00
O268   O     0.03036   0.25000   0.33683   0.00000  Uiso   1.00
O269   O     0.34852   0.09592   0.81927   0.00000  Uiso   1.00
O270   O     0.05274   0.10410   0.26158   0.00000  Uiso   1.00
O271   O     0.44877   0.39227   0.74250   0.00000  Uiso   1.00
O272   O     0.34863   0.09579   0.18073   0.00000  Uiso   1.00
O273   O     0.10308   0.44791   0.74300   0.00000  Uiso   1.00
O274   O     0.44793   0.39677   0.25721   0.00000  Uiso   1.00
O275   O     0.05324   0.10446   0.73307   0.00000  Uiso   1.00
O276   O     0.10438   0.05326   0.73315   0.00000  Uiso   1.00
O277   O     0.39262   0.44925   0.25327   0.00000  Uiso   1.00
O278   O     0.05067   0.39264   0.74688   0.00000  Uiso   1.00
O279   O     0.46964   0.25000   0.66317   0.00000  Uiso   1.00
O280   O     0.40769   0.14731   0.18083   0.00000  Uiso   1.00
O281   O     0.39595   0.44720   0.73841   0.00000  Uiso   1.00
O282   O     0.10768   0.05128   0.25750   0.00000  Uiso   1.00
O283   O     0.40759   0.14742   0.81917   0.00000  Uiso   1.00
O284   O     0.05204   0.39687   0.25697   0.00000  Uiso   1.00
O285   O     0.40147   0.15406   0.68073   0.00000  Uiso   1.00
O286   O     0.14268   0.30071   0.24692   0.00000  Uiso   1.00
O287   O     0.30215   0.35384   0.76169   0.00000  Uiso   1.00
O288   O     0.19774   0.14685   0.23853   0.00000  Uiso   1.00
O289   O     0.14693   0.30209   0.75697   0.00000  Uiso   1.00
O290   O     0.25000   0.03036   0.33683   0.00000  Uiso   1.00
O291   O     0.40136   0.15424   0.31927   0.00000  Uiso   1.00
O292   O     0.19676   0.14555   0.76693   0.00000  Uiso   1.00
O293   O     0.30207   0.35323   0.24279   0.00000  Uiso   1.00
O294   O     0.35738   0.30075   0.24673   0.00000  Uiso   1.00
O295   O     0.14561   0.19674   0.76686   0.00000  Uiso   1.00
O296   O     0.34228   0.10277   0.31916   0.00000  Uiso   1.00
O297   O     0.19933   0.35738   0.75315   0.00000  Uiso   1.00
O298   O     0.14621   0.19779   0.23831   0.00000  Uiso   1.00
O299   O     0.35310   0.30231   0.76147   0.00000  Uiso   1.00
O300   O     0.19796   0.35312   0.24305   0.00000  Uiso   1.00
Zn301  Zn    0.20660   0.00000   0.21760   0.00000  Uiso   1.00
Zn302  Zn    0.04340   0.25000   0.28240   0.00000  Uiso   1.00
Zn303  Zn    0.25000   0.45660   0.71760   0.00000  Uiso   1.00
Zn304  Zn    0.25000   0.04340   0.28240   0.00000  Uiso   1.00
Zn305  Zn    0.04340   0.25000   0.71760   0.00000  Uiso   1.00
Zn306  Zn    0.45660   0.25000   0.28240   0.00000  Uiso   1.00
Zn307  Zn    0.25000   0.04340   0.71760   0.00000  Uiso   1.00
Zn308  Zn    0.25000   0.45660   0.28240   0.00000  Uiso   1.00
Zn309  Zn    0.29340   0.00000   0.78240   0.00000  Uiso   1.00
Zn310  Zn    0.00000   0.20660   0.21760   0.00000  Uiso   1.00
Zn311  Zn    0.00000   0.29340   0.78240   0.00000  Uiso   1.00
Zn312  Zn    0.29340   0.00000   0.21760   0.00000  Uiso   1.00
Zn313  Zn    0.20660   0.00000   0.78240   0.00000  Uiso   1.00
Zn314  Zn    0.00000   0.29340   0.21760   0.00000  Uiso   1.00
Zn315  Zn    0.00000   0.20660   0.78240   0.00000  Uiso   1.00
Zn316  Zn    0.45660   0.25000   0.71760   0.00000  Uiso   1.00
C317   C     0.72467   0.02080   0.04122   0.00000  Uiso   1.00
C318   C     0.52326   0.27359   0.45861   0.00000  Uiso   1.00
C319   C     0.84794   0.40181   0.75010   0.00000  Uiso   1.00
C320   C     0.90171   0.15203   0.24988   0.00000  Uiso   1.00
C321   C     0.59839   0.34784   0.75094   0.00000  Uiso   1.00
C322   C     0.84784   0.40164   0.24903   0.00000  Uiso   1.00
C323   C     0.65197   0.09801   0.75003   0.00000  Uiso   1.00
C324   C     0.59803   0.15199   0.74997   0.00000  Uiso   1.00
C325   C     0.90216   0.34837   0.25097   0.00000  Uiso   1.00
C326   C     0.65162   0.40216   0.74906   0.00000  Uiso   1.00
C327   C     0.84829   0.09799   0.25012   0.00000  Uiso   1.00
C328   C     0.90156   0.34768   0.75098   0.00000  Uiso   1.00
C329   C     0.72636   0.47672   0.54140   0.00000  Uiso   1.00
C330   C     0.59819   0.15206   0.24990   0.00000  Uiso   1.00
C331   C     0.84829   0.09796   0.74988   0.00000  Uiso   1.00
C332   C     0.65216   0.40162   0.24904   0.00000  Uiso   1.00
C333   C     0.75014   0.49956   0.10228   0.00000  Uiso   1.00
C334   C     0.74986   0.00078   0.89752   0.00000  Uiso   1.00
C335   C     0.99927   0.25010   0.10248   0.00000  Uiso   1.00
C336   C     0.50049   0.24990   0.89771   0.00000  Uiso   1.00
C337   C     0.50008   0.24932   0.60228   0.00000  Uiso   1.00
C338   C     0.99983   0.25048   0.39752   0.00000  Uiso   1.00
C339   C     0.74950   0.00014   0.60248   0.00000  Uiso   1.00
C340   C     0.72984   0.02561   0.45888   0.00000  Uiso   1.00
C341   C     0.75067   0.49995   0.39772   0.00000  Uiso   1.00
C342   C     0.52609   0.22689   0.54189   0.00000  Uiso   1.00
C343   C     0.97811   0.22380   0.45784   0.00000  Uiso   1.00
C344   C     0.77611   0.02192   0.54214   0.00000  Uiso   1.00
C345   C     0.77306   0.47392   0.45807   0.00000  Uiso   1.00
C346   C     0.72452   0.02078   0.08198   0.00000  Uiso   1.00
C347   C     0.77226   0.02549   0.91814   0.00000  Uiso   1.00
C348   C     0.97462   0.22767   0.08184   0.00000  Uiso   1.00
C349   C     0.77342   0.02416   0.95844   0.00000  Uiso   1.00
C350   C     0.97924   0.27548   0.91807   0.00000  Uiso   1.00
C351   C     0.77596   0.47803   0.08256   0.00000  Uiso   1.00
C352   C     0.72773   0.47556   0.91727   0.00000  Uiso   1.00
C353   C     0.52448   0.27227   0.08275   0.00000  Uiso   1.00
C354   C     0.52209   0.22412   0.91737   0.00000  Uiso   1.00
C355   C     0.97437   0.27038   0.58190   0.00000  Uiso   1.00
C356   C     0.52213   0.27514   0.41832   0.00000  Uiso   1.00
C357   C     0.72485   0.47782   0.58170   0.00000  Uiso   1.00
C358   C     0.72960   0.02564   0.41813   0.00000  Uiso   1.00
C359   C     0.52583   0.22763   0.58264   0.00000  Uiso   1.00
C360   C     0.97597   0.22652   0.04154   0.00000  Uiso   1.00
C361   C     0.97777   0.22508   0.41709   0.00000  Uiso   1.00
C362   C     0.77487   0.02225   0.58290   0.00000  Uiso   1.00
C363   C     0.77235   0.47420   0.41733   0.00000  Uiso   1.00
C364   C     0.75070   0.49912   0.02120   0.00000  Uiso   1.00
C365   C     0.75103   0.49899   0.97858   0.00000  Uiso   1.00
C366   C     0.50111   0.24896   0.02141   0.00000  Uiso   1.00
C367   C     0.50099   0.24933   0.97879   0.00000  Uiso   1.00
C368   C     0.50039   0.24832   0.52120   0.00000  Uiso   1.00
C369   C     0.50090   0.24827   0.47858   0.00000  Uiso   1.00
C370   C     0.75166   0.49911   0.52142   0.00000  Uiso   1.00
C371   C     0.97925   0.27532   0.95882   0.00000  Uiso   1.00
C372   C     0.75160   0.49961   0.47880   0.00000  Uiso   1.00
C373   C     0.75010  -0.00000   0.35521   0.00000  Uiso   1.00
C374   C     0.74978   0.00001   0.64487   0.00000  Uiso   1.00
C375   C     0.99998   0.25021   0.35514   0.00000  Uiso   1.00
C376   C     0.50001   0.24991   0.64478   0.00000  Uiso   1.00
C377   C     0.50008   0.24999   0.85521   0.00000  Uiso   1.00
C378   C     0.99974   0.25001   0.14487   0.00000  Uiso   1.00
C379   C     0.74998   0.00026   0.85514   0.00000  Uiso   1.00
C380   C     0.75002   0.49993   0.14478   0.00000  Uiso   1.00
C381   C     0.68012   0.07011   0.24979   0.00000  Uiso   1.00
C382   C     0.77637   0.47758   0.04182   0.00000  Uiso   1.00
C383   C     0.81998   0.42999   0.75000   0.00000  Uiso   1.00
C384   C     0.92992   0.18000   0.24994   0.00000  Uiso   1.00
C385   C     0.57013   0.31991   0.75023   0.00000  Uiso   1.00
C386   C     0.81991   0.42989   0.24976   0.00000  Uiso   1.00
C387   C     0.68002   0.06997   0.75001   0.00000  Uiso   1.00
C388   C     0.56991   0.32012   0.25024   0.00000  Uiso   1.00
C389   C     0.92992   0.18001   0.75006   0.00000  Uiso   1.00
C390   C     0.67987   0.43009   0.74977   0.00000  Uiso   1.00
C391   C     0.82008   0.07000   0.25006   0.00000  Uiso   1.00
C392   C     0.92989   0.31989   0.75021   0.00000  Uiso   1.00
C393   C     0.72812   0.47451   0.95803   0.00000  Uiso   1.00
C394   C     0.57001   0.18002   0.25000   0.00000  Uiso   1.00
C395   C     0.82008   0.06999   0.74994   0.00000  Uiso   1.00
C396   C     0.68009   0.42988   0.24976   0.00000  Uiso   1.00
C397   C     0.56998   0.18003   0.74999   0.00000  Uiso   1.00
C398   C     0.93009   0.32011   0.25024   0.00000  Uiso   1.00
C399   C     0.61533   0.41237   0.25101   0.00000  Uiso   1.00
C400   C     0.86306   0.10964   0.78532   0.00000  Uiso   1.00
C401   C     0.58834   0.11495   0.25466   0.00000  Uiso   1.00
C402   C     0.91201   0.38435   0.74685   0.00000  Uiso   1.00
C403   C     0.86312   0.10958   0.21468   0.00000  Uiso   1.00
C404   C     0.52556   0.27190   0.04199   0.00000  Uiso   1.00
C405   C     0.61432   0.41208   0.74730   0.00000  Uiso   1.00
C406   C     0.91208   0.38562   0.25281   0.00000  Uiso   1.00
C407   C     0.58841   0.11531   0.74217   0.00000  Uiso   1.00
C408   C     0.61527   0.08842   0.74221   0.00000  Uiso   1.00
C409   C     0.88464   0.41235   0.25112   0.00000  Uiso   1.00
C410   C     0.58761   0.38464   0.74895   0.00000  Uiso   1.00
C411   C     0.89089   0.13616   0.21464   0.00000  Uiso   1.00
C412   C     0.88508   0.41163   0.74534   0.00000  Uiso   1.00
C413   C     0.61563   0.08802   0.25315   0.00000  Uiso   1.00
C414   C     0.89082   0.13623   0.78536   0.00000  Uiso   1.00
C415   C     0.52257   0.22371   0.95812   0.00000  Uiso   1.00
C416   C     0.58790   0.38566   0.25269   0.00000  Uiso   1.00
C417   C     0.88693   0.14035   0.71468   0.00000  Uiso   1.00
C418   C     0.63467   0.33763   0.24898   0.00000  Uiso   1.00
C419   C     0.83778   0.36485   0.75531   0.00000  Uiso   1.00
C420   C     0.66219   0.13549   0.24463   0.00000  Uiso   1.00
C421   C     0.63569   0.33793   0.75270   0.00000  Uiso   1.00
C422   C     0.88688   0.14044   0.28532   0.00000  Uiso   1.00
C423   C     0.66159   0.13470   0.75783   0.00000  Uiso   1.00
C424   C     0.83792   0.36438   0.24719   0.00000  Uiso   1.00
C425   C     0.86536   0.33765   0.24887   0.00000  Uiso   1.00
C426   C     0.97438   0.27008   0.54114   0.00000  Uiso   1.00
C427   C     0.63473   0.16158   0.75780   0.00000  Uiso   1.00
C428   C     0.85911   0.11387   0.28535   0.00000  Uiso   1.00
C429   C     0.66239   0.36536   0.75106   0.00000  Uiso   1.00
C430   C     0.63518   0.16219   0.24469   0.00000  Uiso   1.00
C431   C     0.86449   0.33784   0.75537   0.00000  Uiso   1.00
C432   C     0.66210   0.36433   0.24731   0.00000  Uiso   1.00
C433   C     0.85917   0.11375   0.71464   0.00000  Uiso   1.00
C434   C     0.59784   0.34838   0.25096   0.00000  Uiso   1.00
C435   C     0.90170   0.15203   0.75012   0.00000  Uiso   1.00
C436   C     0.65233   0.09844   0.24902   0.00000  Uiso   1.00
H437   H     0.70227   0.04106   0.99395   0.00000  Uiso   1.00
H438   H     0.54578   0.29428   0.50542   0.00000  Uiso   1.00
H439   H     0.70563   0.45424   0.49459   0.00000  Uiso   1.00
H440   H     0.71026   0.04847   0.50627   0.00000  Uiso   1.00
H441   H     0.54858   0.20542   0.49526   0.00000  Uiso   1.00
H442   H     0.95996   0.19850   0.50433   0.00000  Uiso   1.00
H443   H     0.80137   0.04011   0.49563   0.00000  Uiso   1.00
H444   H     0.79449   0.45142   0.50468   0.00000  Uiso   1.00
H445   H     0.58057   0.45317   0.25318   0.00000  Uiso   1.00
H446   H     0.85073   0.11457   0.83988   0.00000  Uiso   1.00
H447   H     0.53880   0.12439   0.27336   0.00000  Uiso   1.00
H448   H     0.79594   0.04512   0.00511   0.00000  Uiso   1.00
H449   H     0.95255   0.41897   0.74130   0.00000  Uiso   1.00
H450   H     0.85091   0.11439   0.16009   0.00000  Uiso   1.00
H451   H     0.62258   0.46222   0.73029   0.00000  Uiso   1.00
H452   H     0.96221   0.37726   0.26996   0.00000  Uiso   1.00
H453   H     0.53852   0.12567   0.72475   0.00000  Uiso   1.00
H454   H     0.62560   0.03848   0.72494   0.00000  Uiso   1.00
H455   H     0.91935   0.45311   0.25348   0.00000  Uiso   1.00
H456   H     0.54677   0.41935   0.74674   0.00000  Uiso   1.00
H457   H     0.90801   0.12662   0.16238   0.00000  Uiso   1.00
H458   H     0.87567   0.46114   0.72663   0.00000  Uiso   1.00
H459   H     0.95507   0.20399   0.99484   0.00000  Uiso   1.00
H460   H     0.58097   0.04752   0.25870   0.00000  Uiso   1.00
H461   H     0.90786   0.12677   0.83765   0.00000  Uiso   1.00
H462   H     0.53774   0.37741   0.26974   0.00000  Uiso   1.00
H463   H     0.89925   0.13541   0.66012   0.00000  Uiso   1.00
H464   H     0.66941   0.29682   0.24674   0.00000  Uiso   1.00
H465   H     0.78763   0.37441   0.77205   0.00000  Uiso   1.00
H466   H     0.71266   0.12628   0.22884   0.00000  Uiso   1.00
H467   H     0.62743   0.28777   0.76967   0.00000  Uiso   1.00
H468   H     0.89908   0.13566   0.33992   0.00000  Uiso   1.00
H469   H     0.71148   0.12433   0.77523   0.00000  Uiso   1.00
H470   H     0.95901   0.29770   0.00615   0.00000  Uiso   1.00
H471   H     0.78779   0.37274   0.23003   0.00000  Uiso   1.00
H472   H     0.83065   0.29690   0.24652   0.00000  Uiso   1.00
H473   H     0.62440   0.21152   0.77507   0.00000  Uiso   1.00
H474   H     0.84195   0.12349   0.33758   0.00000  Uiso   1.00
H475   H     0.70324   0.33066   0.75334   0.00000  Uiso   1.00
H476   H     0.62565   0.21231   0.22794   0.00000  Uiso   1.00
H477   H     0.87367   0.28740   0.77116   0.00000  Uiso   1.00
H478   H     0.71227   0.37259   0.23029   0.00000  Uiso   1.00
H479   H     0.84214   0.12315   0.66233   0.00000  Uiso   1.00
H480   H     0.68371   0.05548   0.08556   0.00000  Uiso   1.00
H481   H     0.79931   0.45679   0.99508   0.00000  Uiso   1.00
H482   H     0.78281   0.05742   0.87433   0.00000  Uiso   1.00
H483   H     0.94265   0.21706   0.12563   0.00000  Uiso   1.00
H484   H     0.94449   0.31624   0.91458   0.00000  Uiso   1.00
H485   H     0.81660   0.44323   0.08709   0.00000  Uiso   1.00
H486   H     0.69255   0.43536   0.91276   0.00000  Uiso   1.00
H487   H     0.56465   0.30749   0.08729   0.00000  Uiso   1.00
H488   H     0.55698   0.18357   0.91276   0.00000  Uiso   1.00
H489   H     0.93351   0.30503   0.58535   0.00000  Uiso   1.00
H490   H     0.53264   0.30731   0.37470   0.00000  Uiso   1.00
H491   H     0.69270   0.46728   0.62534   0.00000  Uiso   1.00
H492   H     0.70988   0.44955   0.00469   0.00000  Uiso   1.00
H493   H     0.69495   0.06649   0.41472   0.00000  Uiso   1.00
H494   H     0.56642   0.19280   0.58729   0.00000  Uiso   1.00
H495   H     0.94272   0.18477   0.41228   0.00000  Uiso   1.00
H496   H     0.81509   0.05739   0.58768   0.00000  Uiso   1.00
H497   H     0.80718   0.43361   0.41263   0.00000  Uiso   1.00
H498   H     0.55054   0.29017   0.99534   0.00000  Uiso   1.00
H499   H     0.54348   0.20085   0.00480   0.00000  Uiso   1.00
H500   H     0.95143   0.28954   0.49378   0.00000  Uiso   1.00
O501   O     0.75000   0.00000   0.25000   0.00000  Uiso   1.00
O502   O     0.75000   0.46964   0.66317   0.00000  Uiso   1.00
O503   O     0.84244   0.10251   0.68082   0.00000  Uiso   1.00
O504   O     0.70029   0.04201   0.10305   0.00000  Uiso   1.00
O505   O     0.79315   0.05192   0.90012   0.00000  Uiso   1.00
O506   O     0.94820   0.20673   0.09984   0.00000  Uiso   1.00
O507   O     0.95797   0.29967   0.89705   0.00000  Uiso   1.00
O508   O     0.79986   0.45698   0.10420   0.00000  Uiso   1.00
O509   O     0.70667   0.45171   0.89562   0.00000  Uiso   1.00
O510   O     0.54830   0.29336   0.10442   0.00000  Uiso   1.00
O511   O     0.54318   0.20027   0.89568   0.00000  Uiso   1.00
O512   O     0.95020   0.29172   0.60289   0.00000  Uiso   1.00
O513   O     0.96964   0.25000   0.33683   0.00000  Uiso   1.00
O514   O     0.54295   0.30173   0.40049   0.00000  Uiso   1.00
O515   O     0.69828   0.45697   0.59955   0.00000  Uiso   1.00
O516   O     0.70826   0.04982   0.39716   0.00000  Uiso   1.00
O517   O     0.54979   0.20672   0.60436   0.00000  Uiso   1.00
O518   O     0.95681   0.20127   0.39526   0.00000  Uiso   1.00
O519   O     0.79866   0.04324   0.60471   0.00000  Uiso   1.00
O520   O     0.79328   0.45026   0.39559   0.00000  Uiso   1.00
O521   O     0.53036   0.25000   0.66317   0.00000  Uiso   1.00
O522   O     0.50000   0.21964   0.83683   0.00000  Uiso   1.00
O523   O     0.50000   0.28036   0.16317   0.00000  Uiso   1.00
O524   O     0.78036   0.00000   0.83683   0.00000  Uiso   1.00
O525   O     0.71964   0.00000   0.16317   0.00000  Uiso   1.00
O526   O     0.50000   0.28036   0.83683   0.00000  Uiso   1.00
O527   O     0.50000   0.21964   0.16317   0.00000  Uiso   1.00
O528   O     0.71964   0.00000   0.83683   0.00000  Uiso   1.00
O529   O     0.75000   0.00000   0.75000   0.00000  Uiso   1.00
O530   O     0.78036   0.00000   0.16317   0.00000  Uiso   1.00
O531   O     0.70726   0.07307   0.27282   0.00000  Uiso   1.00
O532   O     0.79275   0.42693   0.72718   0.00000  Uiso   1.00
O533   O     0.92693   0.20726   0.27282   0.00000  Uiso   1.00
O534   O     0.57307   0.29275   0.72718   0.00000  Uiso   1.00
O535   O     0.79275   0.42693   0.27282   0.00000  Uiso   1.00
O536   O     0.70726   0.07307   0.72718   0.00000  Uiso   1.00
O537   O     0.57307   0.29275   0.27282   0.00000  Uiso   1.00
O538   O     0.92693   0.20726   0.72718   0.00000  Uiso   1.00
O539   O     0.70726   0.42693   0.72718   0.00000  Uiso   1.00
O540   O     0.50000   0.25000   0.25000   0.00000  Uiso   1.00
O541   O     0.79275   0.07307   0.27282   0.00000  Uiso   1.00
O542   O     0.92693   0.29275   0.72718   0.00000  Uiso   1.00
O543   O     0.57307   0.20726   0.27282   0.00000  Uiso   1.00
O544   O     0.79275   0.07307   0.72718   0.00000  Uiso   1.00
O545   O     0.70726   0.42693   0.27282   0.00000  Uiso   1.00
O546   O     0.57307   0.20726   0.72718   0.00000  Uiso   1.00
O547   O     0.92693   0.29275   0.27282   0.00000  Uiso   1.00
O548   O     0.95726   0.32307   0.77282   0.00000  Uiso   1.00
O549   O     0.54275   0.17693   0.22718   0.00000  Uiso   1.00
O550   O     0.67693   0.45726   0.77282   0.00000  Uiso   1.00
O551   O     0.50000   0.25000   0.75000   0.00000  Uiso   1.00
O552   O     0.82307   0.04275   0.22718   0.00000  Uiso   1.00
O553   O     0.54275   0.17693   0.77282   0.00000  Uiso   1.00
O554   O     0.95726   0.32307   0.22718   0.00000  Uiso   1.00
O555   O     0.82307   0.04275   0.77282   0.00000  Uiso   1.00
O556   O     0.67693   0.45726   0.22718   0.00000  Uiso   1.00
O557   O     0.95726   0.17693   0.22718   0.00000  Uiso   1.00
O558   O     0.54275   0.32307   0.77282   0.00000  Uiso   1.00
O559   O     0.67693   0.04275   0.22718   0.00000  Uiso   1.00
O560   O     0.82307   0.45726   0.77282   0.00000  Uiso   1.00
O561   O     0.54275   0.32307   0.22718   0.00000  Uiso   1.00
O562   O     0.75000   0.46964   0.33683   0.00000  Uiso   1.00
O563   O     0.95726   0.17693   0.77282   0.00000  Uiso   1.00
O564   O     0.82307   0.45726   0.22718   0.00000  Uiso   1.00
O565   O     0.67693   0.04275   0.77282   0.00000  Uiso   1.00
O566   O     0.69919   0.04236   0.02230   0.00000  Uiso   1.00
O567   O     0.79622   0.04883   0.97681   0.00000  Uiso   1.00
O568   O     0.95134   0.20369   0.02314   0.00000  Uiso   1.00
O569   O     0.95766   0.30076   0.97780   0.00000  Uiso   1.00
O570   O     0.80208   0.45582   0.02348   0.00000  Uiso   1.00
O571   O     0.70588   0.44933   0.97643   0.00000  Uiso   1.00
O572   O     0.55071   0.29418   0.02360   0.00000  Uiso   1.00
O573   O     0.75000   0.03036   0.66317   0.00000  Uiso   1.00
O574   O     0.54439   0.19804   0.97640   0.00000  Uiso   1.00
O575   O     0.94884   0.29152   0.52215   0.00000  Uiso   1.00
O576   O     0.54595   0.29825   0.47715   0.00000  Uiso   1.00
O577   O     0.70172   0.45401   0.52287   0.00000  Uiso   1.00
O578   O     0.70839   0.05114   0.47791   0.00000  Uiso   1.00
O579   O     0.55177   0.20503   0.52363   0.00000  Uiso   1.00
O580   O     0.95592   0.19847   0.47607   0.00000  Uiso   1.00
O581   O     0.80142   0.04414   0.52390   0.00000  Uiso   1.00
O582   O     0.79492   0.44826   0.47631   0.00000  Uiso   1.00
O583   O     0.60731   0.44929   0.25304   0.00000  Uiso   1.00
O584   O     0.53036   0.25000   0.33683   0.00000  Uiso   1.00
O585   O     0.84852   0.09592   0.81927   0.00000  Uiso   1.00
O586   O     0.55274   0.10410   0.26158   0.00000  Uiso   1.00
O587   O     0.94877   0.39227   0.74250   0.00000  Uiso   1.00
O588   O     0.84863   0.09579   0.18073   0.00000  Uiso   1.00
O589   O     0.60308   0.44791   0.74300   0.00000  Uiso   1.00
O590   O     0.94793   0.39677   0.25721   0.00000  Uiso   1.00
O591   O     0.55324   0.10446   0.73307   0.00000  Uiso   1.00
O592   O     0.60438   0.05326   0.73315   0.00000  Uiso   1.00
O593   O     0.89262   0.44925   0.25327   0.00000  Uiso   1.00
O594   O     0.55067   0.39264   0.74688   0.00000  Uiso   1.00
O595   O     0.96964   0.25000   0.66317   0.00000  Uiso   1.00
O596   O     0.90769   0.14731   0.18083   0.00000  Uiso   1.00
O597   O     0.89595   0.44720   0.73841   0.00000  Uiso   1.00
O598   O     0.60768   0.05128   0.25750   0.00000  Uiso   1.00
O599   O     0.90759   0.14742   0.81917   0.00000  Uiso   1.00
O600   O     0.55204   0.39687   0.25697   0.00000  Uiso   1.00
O601   O     0.90147   0.15406   0.68073   0.00000  Uiso   1.00
O602   O     0.64268   0.30071   0.24692   0.00000  Uiso   1.00
O603   O     0.80215   0.35384   0.76169   0.00000  Uiso   1.00
O604   O     0.69774   0.14685   0.23853   0.00000  Uiso   1.00
O605   O     0.64693   0.30209   0.75697   0.00000  Uiso   1.00
O606   O     0.75000   0.03036   0.33683   0.00000  Uiso   1.00
O607   O     0.90136   0.15424   0.31927   0.00000  Uiso   1.00
O608   O     0.69676   0.14555   0.76693   0.00000  Uiso   1.00
O609   O     0.80207   0.35323   0.24279   0.00000  Uiso   1.00
O610   O     0.85738   0.30075   0.24673   0.00000  Uiso   1.00
O611   O     0.64561   0.19674   0.76686   0.00000  Uiso   1.00
O612   O     0.84228   0.10277   0.31916   0.00000  Uiso   1.00
O613   O     0.69933   0.35738   0.75315   0.00000  Uiso   1.00
O614   O     0.64621   0.19779   0.23831   0.00000  Uiso   1.00
O615   O     0.85310   0.30231   0.76147   0.00000  Uiso   1.00
O616   O     0.69796   0.35312   0.24305   0.00000  Uiso   1.00
Zn617  Zn    0.70660   0.00000   0.21760   0.00000  Uiso   1.00
Zn618  Zn    0.54340   0.25000   0.28240   0.00000  Uiso   1.00
Zn619  Zn    0.75000   0.45660   0.71760   0.00000  Uiso   1.00
Zn620  Zn    0.75000   0.04340   0.28240   0.00000  Uiso   1.00
Zn621  Zn    0.54340   0.25000   0.71760   0.00000  Uiso   1.00
Zn622  Zn    0.95660   0.25000   0.28240   0.00000  Uiso   1.00
Zn623  Zn    0.75000   0.04340   0.71760   0.00000  Uiso   1.00
Zn624  Zn    0.75000   0.45660   0.28240   0.00000  Uiso   1.00
Zn625  Zn    0.79340   0.00000   0.78240   0.00000  Uiso   1.00
Zn626  Zn    0.50000   0.20660   0.21760   0.00000  Uiso   1.00
Zn627  Zn    0.50000   0.29340   0.78240   0.00000  Uiso   1.00
Zn628  Zn    0.79340   0.00000   0.21760   0.00000  Uiso   1.00
Zn629  Zn    0.70660   0.00000   0.78240   0.00000  Uiso   1.00
Zn630  Zn    0.50000   0.29340   0.21760   0.00000  Uiso   1.00
Zn631  Zn    0.50000   0.20660   0.78240   0.00000  Uiso   1.00
Zn632  Zn    0.95660   0.25000   0.71760   0.00000  Uiso   1.00
C633   C     0.22467   0.52080   0.04122   0.00000  Uiso   1.00
C634   C     0.02326   0.77359   0.45861   0.00000  Uiso   1.00
C635   C     0.34794   0.90181   0.75010   0.00000  Uiso   1.00
C636   C     0.40171   0.65203   0.24988   0.00000  Uiso   1.00
C637   C     0.09839   0.84784   0.75094   0.00000  Uiso   1.00
C638   C     0.34784   0.90164   0.24903   0.00000  Uiso   1.00
C639   C     0.15197   0.59801   0.75003   0.00000  Uiso   1.00
C640   C     0.09803   0.65199   0.74997   0.00000  Uiso   1.00
C641   C     0.40216   0.84837   0.25097   0.00000  Uiso   1.00
C642   C     0.15162   0.90216   0.74906   0.00000  Uiso   1.00
C643   C     0.34829   0.59799   0.25012   0.00000  Uiso   1.00
C644   C     0.40156   0.84768   0.75098   0.00000  Uiso   1.00
C645   C     0.22636   0.97672   0.54140   0.00000  Uiso   1.00
C646   C     0.09819   0.65206   0.24990   0.00000  Uiso   1.00
C647   C     0.34829   0.59796   0.74988   0.00000  Uiso   1.00
C648   C     0.15216   0.90162   0.24904   0.00000  Uiso   1.00
C649   C     0.25014   0.99956   0.10228   0.00000  Uiso   1.00
C650   C     0.24986   0.50078   0.89752   0.00000  Uiso   1.00
C651   C     0.49927   0.75010   0.10248   0.00000  Uiso   1.00
C652   C     0.00049   0.74990   0.89771   0.00000  Uiso   1.00
C653   C     0.00008   0.74932   0.60228   0.00000  Uiso   1.00
C654   C     0.49983   0.75048   0.39752   0.00000  Uiso   1.00
C655   C     0.24950   0.50014   0.60248   0.00000  Uiso   1.00
C656   C     0.22984   0.52561   0.45888   0.00000  Uiso   1.00
C657   C     0.25067   0.99995   0.39772   0.00000  Uiso   1.00
C658   C     0.02609   0.72689   0.54189   0.00000  Uiso   1.00
C659   C     0.47811   0.72380   0.45784   0.00000  Uiso   1.00
C660   C     0.27611   0.52192   0.54214   0.00000  Uiso   1.00
C661   C     0.27306   0.97392   0.45807   0.00000  Uiso   1.00
C662   C     0.22452   0.52078   0.08198   0.00000  Uiso   1.00
C663   C     0.27226   0.52549   0.91814   0.00000  Uiso   1.00
C664   C     0.47462   0.72767   0.08184   0.00000  Uiso   1.00
C665   C     0.27342   0.52416   0.95844   0.00000  Uiso   1.00
C666   C     0.47924   0.77548   0.91807   0.00000  Uiso   1.00
C667   C     0.27596   0.97803   0.08256   0.00000  Uiso   1.00
C668   C     0.22773   0.97556   0.91727   0.00000  Uiso   1.00
C669   C     0.02448   0.77227   0.08275   0.00000  Uiso   1.00
C670   C     0.02209   0.72412   0.91737   0.00000  Uiso   1.00
C671   C     0.47437   0.77038   0.58190   0.00000  Uiso   1.00
C672   C     0.02213   0.77514   0.41832   0.00000  Uiso   1.00
C673   C     0.22485   0.97782   0.58170   0.00000  Uiso   1.00
C674   C     0.22960   0.52564   0.41813   0.00000  Uiso   1.00
C675   C     0.02583   0.72763   0.58264   0.00000  Uiso   1.00
C676   C     0.47597   0.72652   0.04154   0.00000  Uiso   1.00
C677   C     0.47777   0.72508   0.41709   0.00000  Uiso   1.00
C678   C     0.27487   0.52225   0.58290   0.00000  Uiso   1.00
C679   C     0.27235   0.97420   0.41733   0.00000  Uiso   1.00
C680   C     0.25070   0.99912   0.02120   0.00000  Uiso   1.00
C681   C     0.25103   0.99899   0.97858   0.00000  Uiso   1.00
C682   C     0.00111   0.74896   0.02141   0.00000  Uiso   1.00
C683   C     0.00099   0.74933   0.97879   0.00000  Uiso   1.00
C684   C     0.00039   0.74832   0.52120   0.00000  Uiso   1.00
C685   C     0.00090   0.74827   0.47858   0.00000  Uiso   1.00
C686   C     0.25166   0.99911   0.52142   0.00000  Uiso   1.00
C687   C     0.47925   0.77532   0.95882   0.00000  Uiso   1.00
C688   C     0.25160   0.99961   0.47880   0.00000  Uiso   1.00
C689   C     0.25010   0.50000   0.35521   0.00000  Uiso   1.00
C690   C     0.24978   0.50001   0.64487   0.00000  Uiso   1.00
C691   C     0.49998   0.75021   0.35514   0.00000  Uiso   1.00
C692   C     0.00001   0.74991   0.64478   0.00000  Uiso   1.00
C693   C     0.00008   0.74999   0.85521   0.00000  Uiso   1.00
C694   C     0.49974   0.75001   0.14487   0.00000  Uiso   1.00
C695   C     0.24998   0.50026   0.85514   0.00000  Uiso   1.00
C696   C     0.25002   0.99993   0.14478   0.00000  Uiso   1.00
C697   C     0.18012   0.57011   0.24979   0.00000  Uiso   1.00
C698   C     0.27637   0.97758   0.04182   0.00000  Uiso   1.00
C699   C     0.31998   0.92999   0.75000   0.00000  Uiso   1.00
C700   C     0.42992   0.68000   0.24994   0.00000  Uiso   1.00
C701   C     0.07013   0.81991   0.75023   0.00000  Uiso   1.00
C702   C     0.31991   0.92989   0.24976   0.00000  Uiso   1.00
C703   C     0.18002   0.56997   0.75001   0.00000  Uiso   1.00
C704   C     0.06991   0.82012   0.25024   0.00000  Uiso   1.00
C705   C     0.42992   0.68001   0.75006   0.00000  Uiso   1.00
C706   C     0.17987   0.93009   0.74977   0.00000  Uiso   1.00
C707   C     0.32008   0.57000   0.25006   0.00000  Uiso   1.00
C708   C     0.42989   0.81989   0.75021   0.00000  Uiso   1.00
C709   C     0.22812   0.97451   0.95803   0.00000  Uiso   1.00
C710   C     0.07001   0.68002   0.25000   0.00000  Uiso   1.00
C711   C     0.32008   0.56999   0.74994   0.00000  Uiso   1.00
C712   C     0.18009   0.92988   0.24976   0.00000  Uiso   1.00
C713   C     0.06998   0.68003   0.74999   0.00000  Uiso   1.00
C714   C     0.43009   0.82011   0.25024   0.00000  Uiso   1.00
C715   C     0.11533   0.91237   0.25101   0.00000  Uiso   1.00
C716   C     0.36306   0.60964   0.78532   0.00000  Uiso   1.00
C717   C     0.08834   0.61495   0.25466   0.00000  Uiso   1.00
C718   C     0.41201   0.88435   0.74685   0.00000  Uiso   1.00
C719   C     0.36312   0.60958   0.21468   0.00000  Uiso   1.00
C720   C     0.02556   0.77190   0.04199   0.00000  Uiso   1.00
C721   C     0.11432   0.91208   0.74730   0.00000  Uiso   1.00
C722   C     0.41208   0.88562   0.25281   0.00000  Uiso   1.00
C723   C     0.08841   0.61531   0.74217   0.00000  Uiso   1.00
C724   C     0.11527   0.58842   0.74221   0.00000  Uiso   1.00
C725   C     0.38464   0.91235   0.25112   0.00000  Uiso   1.00
C726   C     0.08761   0.88464   0.74895   0.00000  Uiso   1.00
C727   C     0.39089   0.63616   0.21464   0.00000  Uiso   1.00
C728   C     0.38508   0.91163   0.74534   0.00000  Uiso   1.00
C729   C     0.11563   0.58802   0.25315   0.00000  Uiso   1.00
C730   C     0.39082   0.63623   0.78536   0.00000  Uiso   1.00
C731   C     0.02257   0.72371   0.95812   0.00000  Uiso   1.00
C732   C     0.08790   0.88566   0.25269   0.00000  Uiso   1.00
C733   C     0.38693   0.64035   0.71468   0.00000  Uiso   1.00
C734   C     0.13467   0.83763   0.24898   0.00000  Uiso   1.00
C735   C     0.33778   0.86485   0.75531   0.00000  Uiso   1.00
C736   C     0.16219   0.63549   0.24463   0.00000  Uiso   1.00
C737   C     0.13569   0.83793   0.75270   0.00000  Uiso   1.00
C738   C     0.38688   0.64044   0.28532   0.00000  Uiso   1.00
C739   C     0.16159   0.63470   0.75783   0.00000  Uiso   1.00
C740   C     0.33792   0.86438   0.24719   0.00000  Uiso   1.00
C741   C     0.36536   0.83765   0.24887   0.00000  Uiso   1.00
C742   C     0.47438   0.77008   0.54114   0.00000  Uiso   1.00
C743   C     0.13473   0.66158   0.75780   0.00000  Uiso   1.00
C744   C     0.35911   0.61387   0.28535   0.00000  Uiso   1.00
C745   C     0.16239   0.86536   0.75106   0.00000  Uiso   1.00
C746   C     0.13518   0.66219   0.24469   0.00000  Uiso   1.00
C747   C     0.36449   0.83784   0.75537   0.00000  Uiso   1.00
C748   C     0.16210   0.86433   0.24731   0.00000  Uiso   1.00
C749   C     0.35917   0.61375   0.71464   0.00000  Uiso   1.00
C750   C     0.09784   0.84838   0.25096   0.00000  Uiso   1.00
C751   C     0.40170   0.65203   0.75012   0.00000  Uiso   1.00
C752   C     0.15233   0.59844   0.24902   0.00000  Uiso   1.00
H753   H     0.20227   0.54106   0.99395   0.00000  Uiso   1.00
H754   H     0.04578   0.79428   0.50542   0.00000  Uiso   1.00
H755   H     0.20563   0.95424   0.49459   0.00000  Uiso   1.00
H756   H     0.21026   0.54847   0.50627   0.00000  Uiso   1.00
H757   H     0.04858   0.70542   0.49526   0.00000  Uiso   1.00
H758   H     0.45996   0.69850   0.50433   0.00000  Uiso   1.00
H759   H     0.30137   0.54011   0.49563   0.00000  Uiso   1.00
H760   H     0.29449   0.95142   0.50468   0.00000  Uiso   1.00
H761   H     0.08057   0.95317   0.25318   0.00000  Uiso   1.00
H762   H     0.35073   0.61457   0.83988   0.00000  Uiso   1.00
H763   H     0.03880   0.62439   0.27336   0.00000  Uiso   1.00
H764   H     0.29594   0.54512   0.00511   0.00000  Uiso   1.00
H765   H     0.45255   0.91897   0.74130   0.00000  Uiso   1.00
H766   H     0.35091   0.61439   0.16009   0.00000  Uiso   1.00
H767   H     0.12258   0.96222   0.73029   0.00000  Uiso   1.00
H768   H     0.46221   0.87726   0.26996   0.00000  Uiso   1.00
H769   H     0.03852   0.62567   0.72475   0.00000  Uiso   1.00
H770   H     0.12560   0.53848   0.72494   0.00000  Uiso   1.00
H771   H     0.41935   0.95311   0.25348   0.00000  Uiso   1.00
H772   H     0.04677   0.91935   0.74674   0.00000  Uiso   1.00
H773   H     0.40801   0.62662   0.16238   0.00000  Uiso   1.00
H774   H     0.37567   0.96114   0.72663   0.00000  Uiso   1.00
H775   H     0.45507   0.70399   0.99484   0.00000  Uiso   1.00
H776   H     0.08097   0.54752   0.25870   0.00000  Uiso   1.00
H777   H     0.40786   0.62677   0.83765   0.00000  Uiso   1.00
H778   H     0.03774   0.87741   0.26974   0.00000  Uiso   1.00
H779   H     0.39925   0.63541   0.66012   0.00000  Uiso   1.00
H780   H     0.16941   0.79682   0.24674   0.00000  Uiso   1.00
H781   H     0.28763   0.87441   0.77205   0.00000  Uiso   1.00
H782   H     0.21266   0.62628   0.22884   0.00000  Uiso   1.00
H783   H     0.12743   0.78777   0.76967   0.00000  Uiso   1.00
H784   H     0.39908   0.63566   0.33992   0.00000  Uiso   1.00
H785   H     0.21148   0.62433   0.77523   0.00000  Uiso   1.00
H786   H     0.45901   0.79770   0.00615   0.00000  Uiso   1.00
H787   H     0.28779   0.87274   0.23003   0.00000  Uiso   1.00
H788   H     0.33065   0.79690   0.24652   0.00000  Uiso   1.00
H789   H     0.12440   0.71152   0.77507   0.00000  Uiso   1.00
H790   H     0.34195   0.62349   0.33758   0.00000  Uiso   1.00
H791   H     0.20324   0.83066   0.75334   0.00000  Uiso   1.00
H792   H     0.12565   0.71231   0.22794   0.00000  Uiso   1.00
H793   H     0.37367   0.78740   0.77116   0.00000  Uiso   1.00
H794   H     0.21227   0.87259   0.23029   0.00000  Uiso   1.00
H795   H     0.34214   0.62315   0.66233   0.00000  Uiso   1.00
H796   H     0.18371   0.55548   0.08556   0.00000  Uiso   1.00
H797   H     0.29931   0.95679   0.99508   0.00000  Uiso   1.00
H798   H     0.28281   0.55742   0.87433   0.00000  Uiso   1.00
H799   H     0.44265   0.71706   0.12563   0.00000  Uiso   1.00
H800   H     0.44449   0.81624   0.91458   0.00000  Uiso   1.00
H801   H     0.31660   0.94323   0.08709   0.00000  Uiso   1.00
H802   H     0.19255   0.93536   0.91276   0.00000  Uiso   1.00
H803   H     0.06465   0.80749   0.08729   0.00000  Uiso   1.00
H804   H     0.05698   0.68357   0.91276   0.00000  Uiso   1.00
H805   H     0.43351   0.80503   0.58535   0.00000  Uiso   1.00
H806   H     0.03264   0.80731   0.37470   0.00000  Uiso   1.00
H807   H     0.19270   0.96728   0.62534   0.00000  Uiso   1.00
H808   H     0.20988   0.94955   0.00469   0.00000  Uiso   1.00
H809   H     0.19495   0.56649   0.41472   0.00000  Uiso   1.00
H810   H     0.06642   0.69280   0.58729   0.00000  Uiso   1.00
H811   H     0.44272   0.68477   0.41228   0.00000  Uiso   1.00
H812   H     0.31509   0.55739   0.58768   0.00000  Uiso   1.00
H813   H     0.30718   0.93361   0.41263   0.00000  Uiso   1.00
H814   H     0.05054   0.79017   0.99534   0.00000  Uiso   1.00
H815   H     0.04348   0.70085   0.00480   0.00000  Uiso   1.00
H816   H     0.45143   0.78954   0.49378   0.00000  Uiso   1.00
O817   O     0.25000   0.50000   0.25000   0.00000  Uiso   1.00
O818   O     0.25000   0.96964   0.66317   0.00000  Uiso   1.00
O819   O     0.34244   0.60251   0.68082   0.00000  Uiso   1.00
O820   O     0.20029   0.54201   0.10305   0.00000  Uiso   1.00
O821   O     0.29315   0.55192   0.90012   0.00000  Uiso   1.00
O822   O     0.44820   0.70673   0.09984   0.00000  Uiso   1.00
O823   O     0.45797   0.79967   0.89705   0.00000  Uiso   1.00
O824   O     0.29986   0.95698   0.10420   0.00000  Uiso   1.00
O825   O     0.20667   0.95171   0.89562   0.00000  Uiso   1.00
O826   O     0.04830   0.79336   0.10442   0.00000  Uiso   1.00
O827   O     0.04318   0.70027   0.89568   0.00000  Uiso   1.00
O828   O     0.45020   0.79172   0.60289   0.00000  Uiso   1.00
O829   O     0.46964   0.75000   0.33683   0.00000  Uiso   1.00
O830   O     0.04295   0.80173   0.40049   0.00000  Uiso   1.00
O831   O     0.19828   0.95697   0.59955   0.00000  Uiso   1.00
O832   O     0.20826   0.54982   0.39716   0.00000  Uiso   1.00
O833   O     0.04979   0.70672   0.60436   0.00000  Uiso   1.00
O834   O     0.45681   0.70127   0.39526   0.00000  Uiso   1.00
O835   O     0.29866   0.54324   0.60471   0.00000  Uiso   1.00
O836   O     0.29328   0.95026   0.39559   0.00000  Uiso   1.00
O837   O     0.03036   0.75000   0.66317   0.00000  Uiso   1.00
O838   O     0.00000   0.71964   0.83683   0.00000  Uiso   1.00
O839   O     0.00000   0.78036   0.16317   0.00000  Uiso   1.00
O840   O     0.28036   0.50000   0.83683   0.00000  Uiso   1.00
O841   O     0.21964   0.50000   0.16317   0.00000  Uiso   1.00
O842   O     0.00000   0.78036   0.83683   0.00000  Uiso   1.00
O843   O     0.00000   0.71964   0.16317   0.00000  Uiso   1.00
O844   O     0.21964   0.50000   0.83683   0.00000  Uiso   1.00
O845   O     0.25000   0.50000   0.75000   0.00000  Uiso   1.00
O846   O     0.28036   0.50000   0.16317   0.00000  Uiso   1.00
O847   O     0.20726   0.57307   0.27282   0.00000  Uiso   1.00
O848   O     0.29275   0.92693   0.72718   0.00000  Uiso   1.00
O849   O     0.42693   0.70726   0.27282   0.00000  Uiso   1.00
O850   O     0.07307   0.79275   0.72718   0.00000  Uiso   1.00
O851   O     0.29275   0.92693   0.27282   0.00000  Uiso   1.00
O852   O     0.20726   0.57307   0.72718   0.00000  Uiso   1.00
O853   O     0.07307   0.79275   0.27282   0.00000  Uiso   1.00
O854   O     0.42693   0.70726   0.72718   0.00000  Uiso   1.00
O855   O     0.20726   0.92693   0.72718   0.00000  Uiso   1.00
O856   O     0.00000   0.75000   0.25000   0.00000  Uiso   1.00
O857   O     0.29275   0.57307   0.27282   0.00000  Uiso   1.00
O858   O     0.42693   0.79275   0.72718   0.00000  Uiso   1.00
O859   O     0.07307   0.70726   0.27282   0.00000  Uiso   1.00
O860   O     0.29275   0.57307   0.72718   0.00000  Uiso   1.00
O861   O     0.20726   0.92693   0.27282   0.00000  Uiso   1.00
O862   O     0.07307   0.70726   0.72718   0.00000  Uiso   1.00
O863   O     0.42693   0.79275   0.27282   0.00000  Uiso   1.00
O864   O     0.45726   0.82307   0.77282   0.00000  Uiso   1.00
O865   O     0.04275   0.67693   0.22718   0.00000  Uiso   1.00
O866   O     0.17693   0.95726   0.77282   0.00000  Uiso   1.00
O867   O     0.00000   0.75000   0.75000   0.00000  Uiso   1.00
O868   O     0.32307   0.54275   0.22718   0.00000  Uiso   1.00
O869   O     0.04275   0.67693   0.77282   0.00000  Uiso   1.00
O870   O     0.45726   0.82307   0.22718   0.00000  Uiso   1.00
O871   O     0.32307   0.54275   0.77282   0.00000  Uiso   1.00
O872   O     0.17693   0.95726   0.22718   0.00000  Uiso   1.00
O873   O     0.45726   0.67693   0.22718   0.00000  Uiso   1.00
O874   O     0.04275   0.82307   0.77282   0.00000  Uiso   1.00
O875   O     0.17693   0.54275   0.22718   0.00000  Uiso   1.00
O876   O     0.32307   0.95726   0.77282   0.00000  Uiso   1.00
O877   O     0.04275   0.82307   0.22718   0.00000  Uiso   1.00
O878   O     0.25000   0.96964   0.33683   0.00000  Uiso   1.00
O879   O     0.45726   0.67693   0.77282   0.00000  Uiso   1.00
O880   O     0.32307   0.95726   0.22718   0.00000  Uiso   1.00
O881   O     0.17693   0.54275   0.77282   0.00000  Uiso   1.00
O882   O     0.19919   0.54236   0.02230   0.00000  Uiso   1.00
O883   O     0.29622   0.54883   0.97681   0.00000  Uiso   1.00
O884   O     0.45134   0.70369   0.02314   0.00000  Uiso   1.00
O885   O     0.45766   0.80076   0.97780   0.00000  Uiso   1.00
O886   O     0.30208   0.95582   0.02348   0.00000  Uiso   1.00
O887   O     0.20588   0.94933   0.97643   0.00000  Uiso   1.00
O888   O     0.05071   0.79418   0.02360   0.00000  Uiso   1.00
O889   O     0.25000   0.53036   0.66317   0.00000  Uiso   1.00
O890   O     0.04439   0.69804   0.97640   0.00000  Uiso   1.00
O891   O     0.44884   0.79152   0.52215   0.00000  Uiso   1.00
O892   O     0.04595   0.79825   0.47715   0.00000  Uiso   1.00
O893   O     0.20172   0.95401   0.52287   0.00000  Uiso   1.00
O894   O     0.20839   0.55114   0.47791   0.00000  Uiso   1.00
O895   O     0.05177   0.70503   0.52363   0.00000  Uiso   1.00
O896   O     0.45592   0.69847   0.47607   0.00000  Uiso   1.00
O897   O     0.30142   0.54414   0.52390   0.00000  Uiso   1.00
O898   O     0.29492   0.94826   0.47631   0.00000  Uiso   1.00
O899   O     0.10731   0.94929   0.25304   0.00000  Uiso   1.00
O900   O     0.03036   0.75000   0.33683   0.00000  Uiso   1.00
O901   O     0.34852   0.59592   0.81927   0.00000  Uiso   1.00
O902   O     0.05274   0.60410   0.26158   0.00000  Uiso   1.00
O903   O     0.44877   0.89227   0.74250   0.00000  Uiso   1.00
O904   O     0.34863   0.59579   0.18073   0.00000  Uiso   1.00
O905   O     0.10308   0.94791   0.74300   0.00000  Uiso   1.00
O906   O     0.44793   0.89677   0.25721   0.00000  Uiso   1.00
O907   O     0.05324   0.60446   0.73307   0.00000  Uiso   1.00
O908   O     0.10438   0.55326   0.73315   0.00000  Uiso   1.00
O909   O     0.39262   0.94925   0.25327   0.00000  Uiso   1.00
O910   O     0.05067   0.89264   0.74688   0.00000  Uiso   1.00
O911   O     0.46964   0.75000   0.66317   0.00000  Uiso   1.00
O912   O     0.40769   0.64731   0.18083   0.00000  Uiso   1.00
O913   O     0.39595   0.94720   0.73841   0.00000  Uiso   1.00
O914   O     0.10768   0.55128   0.25750   0.00000  Uiso   1.00
O915   O     0.40759   0.64742   0.81917   0.00000  Uiso   1.00
O916   O     0.05204   0.89687   0.25697   0.00000  Uiso   1.00
O917   O     0.40147   0.65406   0.68073   0.00000  Uiso   1.00
O918   O     0.14268   0.80071   0.24692   0.00000  Uiso   1.00
O919   O     0.30215   0.85384   0.76169   0.00000  Uiso   1.00
O920   O     0.19774   0.64685   0.23853   0.00000  Uiso   1.00
O921   O     0.14693   0.80209   0.75697   0.00000  Uiso   1.00
O922   O     0.25000   0.53036   0.33683   0.00000  Uiso   1.00
O923   O     0.40136   0.65424   0.31927   0.00000  Uiso   1.00
O924   O     0.19676   0.64555   0.76693   0.00000  Uiso   1.00
O925   O     0.30207   0.85323   0.24279   0.00000  Uiso   1.00
O926   O     0.35738   0.80075   0.24673   0.00000  Uiso   1.00
O927   O     0.14561   0.69674   0.76686   0.00000  Uiso   1.00
O928   O     0.34228   0.60277   0.31916   0.00000  Uiso   1.00
O929   O     0.19933   0.85738   0.75315   0.00000  Uiso   1.00
O930   O     0.14621   0.69779   0.23831   0.00000  Uiso   1.00
O931   O     0.35310   0.80231   0.76147   0.00000  Uiso   1.00
O932   O     0.19796   0.85312   0.24305   0.00000  Uiso   1.00
Zn933  Zn    0.20660   0.50000   0.21760   0.00000  Uiso   1.00
Zn934  Zn    0.04340   0.75000   0.28240   0.00000  Uiso   1.00
Zn935  Zn    0.25000   0.95660   0.71760   0.00000  Uiso   1.00
Zn936  Zn    0.25000   0.54340   0.28240   0.00000  Uiso   1.00
Zn937  Zn    0.04340   0.75000   0.71760   0.00000  Uiso   1.00
Zn938  Zn    0.45660   0.75000   0.28240   0.00000  Uiso   1.00
Zn939  Zn    0.25000   0.54340   0.71760   0.00000  Uiso   1.00
Zn940  Zn    0.25000   0.95660   0.28240   0.00000  Uiso   1.00
Zn941  Zn    0.29340   0.50000   0.78240   0.00000  Uiso   1.00
Zn942  Zn    0.00000   0.70660   0.21760   0.00000  Uiso   1.00
Zn943  Zn    0.00000   0.79340   0.78240   0.00000  Uiso   1.00
Zn944  Zn    0.29340   0.50000   0.21760   0.00000  Uiso   1.00
Zn945  Zn    0.20660   0.50000   0.78240   0.00000  Uiso   1.00
Zn946  Zn    0.00000   0.79340   0.21760   0.00000  Uiso   1.00
Zn947  Zn    0.00000   0.70660   0.78240   0.00000  Uiso   1.00
Zn948  Zn    0.45660   0.75000   0.71760   0.00000  Uiso   1.00
C949   C     0.72467   0.52080   0.04122   0.00000  Uiso   1.00
C950   C     0.52326   0.77359   0.45861   0.00000  Uiso   1.00
C951   C     0.84794   0.90181   0.75010   0.00000  Uiso   1.00
C952   C     0.90171   0.65203   0.24988   0.00000  Uiso   1.00
C953   C     0.59839   0.84784   0.75094   0.00000  Uiso   1.00
C954   C     0.84784   0.90164   0.24903   0.00000  Uiso   1.00
C955   C     0.65197   0.59801   0.75003   0.00000  Uiso   1.00
C956   C     0.59803   0.65199   0.74997   0.00000  Uiso   1.00
C957   C     0.90216   0.84837   0.25097   0.00000  Uiso   1.00
C958   C     0.65162   0.90216   0.74906   0.00000  Uiso   1.00
C959   C     0.84829   0.59799   0.25012   0.00000  Uiso   1.00
C960   C     0.90156   0.84768   0.75098   0.00000  Uiso   1.00
C961   C     0.72636   0.97672   0.54140   0.00000  Uiso   1.00
C962   C     0.59819   0.65206   0.24990   0.00000  Uiso   1.00
C963   C     0.84829   0.59796   0.74988   0.00000  Uiso   1.00
C964   C     0.65216   0.90162   0.24904   0.00000  Uiso   1.00
C965   C     0.75014   0.99956   0.10228   0.00000  Uiso   1.00
C966   C     0.74986   0.50078   0.89752   0.00000  Uiso   1.00
C967   C     0.99927   0.75010   0.10248   0.00000  Uiso   1.00
C968   C     0.50049   0.74990   0.89771   0.00000  Uiso   1.00
C969   C     0.50008   0.74932   0.60228   0.00000  Uiso   1.00
C970   C     0.99983   0.75048   0.39752   0.00000  Uiso   1.00
C971   C     0.74950   0.50014   0.60248   0.00000  Uiso   1.00
C972   C     0.72984   0.52561   0.45888   0.00000  Uiso   1.00
C973   C     0.75067   0.99995   0.39772   0.00000  Uiso   1.00
C974   C     0.52609   0.72689   0.54189   0.00000  Uiso   1.00
C975   C     0.97811   0.72380   0.45784   0.00000  Uiso   1.00
C976   C     0.77611   0.52192   0.54214   0.00000  Uiso   1.00
C977   C     0.77306   0.97392   0.45807   0.00000  Uiso   1.00
C978   C     0.72452   0.52078   0.08198   0.00000  Uiso   1.00
C979   C     0.77226   0.52549   0.91814   0.00000  Uiso   1.00
C980   C     0.97462   0.72767   0.08184   0.00000  Uiso   1.00
C981   C     0.77342   0.52416   0.95844   0.00000  Uiso   1.00
C982   C     0.97924   0.77548   0.91807   0.00000  Uiso   1.00
C983   C     0.77596   0.97803   0.08256   0.00000  Uiso   1.00
C984   C     0.72773   0.97556   0.91727   0.00000  Uiso   1.00
C985   C     0.52448   0.77227   0.08275   0.00000  Uiso   1.00
C986   C     0.52209   0.72412   0.91737   0.00000  Uiso   1.00
C987   C     0.97437   0.77038   0.58190   0.00000  Uiso   1.00
C988   C     0.52213   0.77514   0.41832   0.00000  Uiso   1.00
C989   C     0.72485   0.97782   0.58170   0.00000  Uiso   1.00
C990   C     0.72960   0.52564   0.41813   0.00000  Uiso   1.00
C991   C     0.52583   0.72763   0.58264   0.00000  Uiso   1.00
C992   C     0.97597   0.72652   0.04154   0.00000  Uiso   1.00
C993   C     0.97777   0.72508   0.41709   0.00000  Uiso   1.00
C994   C     0.77487   0.52225   0.58290   0.00000  Uiso   1.00
C995   C     0.77235   0.97420   0.41733   0.00000  Uiso   1.00
C996   C     0.75070   0.99912   0.02120   0.00000  Uiso   1.00
C997   C     0.75103   0.99899   0.97858   0.00000  Uiso   1.00
C998   C     0.50111   0.74896   0.02141   0.00000  Uiso   1.00
C999   C     0.50099   0.74933   0.97879   0.00000  Uiso   1.00
C1000  C     0.50039   0.74832   0.52120   0.00000  Uiso   1.00
C1001  C     0.50090   0.74827   0.47858   0.00000  Uiso   1.00
C1002  C     0.75166   0.99911   0.52142   0.00000  Uiso   1.00
C1003  C     0.97925   0.77532   0.95882   0.00000  Uiso   1.00
C1004  C     0.75160   0.99961   0.47880   0.00000  Uiso   1.00
C1005  C     0.75010   0.50000   0.35521   0.00000  Uiso   1.00
C1006  C     0.74978   0.50001   0.64487   0.00000  Uiso   1.00
C1007  C     0.99998   0.75021   0.35514   0.00000  Uiso   1.00
C1008  C     0.50001   0.74991   0.64478   0.00000  Uiso   1.00
C1009  C     0.50008   0.74999   0.85521   0.00000  Uiso   1.00
C1010  C     0.99974   0.75001   0.14487   0.00000  Uiso   1.00
C1011  C     0.74998   0.50026   0.85514   0.00000  Uiso   1.00
C1012  C     0.75002   0.99993   0.14478   0.00000  Uiso   1.00
C1013  C     0.68012   0.57011   0.24979   0.00000  Uiso   1.00
C1014  C     0.77637   0.97758   0.04182   0.00000  Uiso   1.00
C1015  C     0.81998   0.92999   0.75000   0.00000  Uiso   1.00
C1016  C     0.92992   0.68000   0.24994   0.00000  Uiso   1.00
C1017  C     0.57013   0.81991   0.75023   0.00000  Uiso   1.00
C1018  C     0.81991   0.92989   0.24976   0.00000  Uiso   1.00
C1019  C     0.68002   0.56997   0.75001   0.00000  Uiso   1.00
C1020  C     0.56991   0.82012   0.25024   0.00000  Uiso   1.00
C1021  C     0.92992   0.68001   0.75006   0.00000  Uiso   1.00
C1022  C     0.67987   0.93009   0.74977   0.00000  Uiso   1.00
C1023  C     0.82008   0.57000   0.25006   0.00000  Uiso   1.00
C1024  C     0.92989   0.81989   0.75021   0.00000  Uiso   1.00
C1025  C     0.72812   0.97451   0.95803   0.00000  Uiso   1.00
C1026  C     0.57001   0.68002   0.25000   0.00000  Uiso   1.00
C1027  C     0.82008   0.56999   0.74994   0.00000  Uiso   1.00
C1028  C     0.68009   0.92988   0.24976   0.00000  Uiso   1.00
C1029  C     0.56998   0.68003   0.74999   0.00000  Uiso   1.00
C1030  C     0.93009   0.82011   0.25024   0.00000  Uiso   1.00
C1031  C     0.61533   0.91237   0.25101   0.00000  Uiso   1.00
C1032  C     0.86306   0.60964   0.78532   0.00000  Uiso   1.00
C1033  C     0.58834   0.61495   0.25466   0.00000  Uiso   1.00
C1034  C     0.91201   0.88435   0.74685   0.00000  Uiso   1.00
C1035  C     0.86312   0.60958   0.21468   0.00000  Uiso   1.00
C1036  C     0.52556   0.77190   0.04199   0.00000  Uiso   1.00
C1037  C     0.61432   0.91208   0.74730   0.00000  Uiso   1.00
C1038  C     0.91208   0.88562   0.25281   0.00000  Uiso   1.00
C1039  C     0.58841   0.61531   0.74217   0.00000  Uiso   1.00
C1040  C     0.61527   0.58842   0.74221   0.00000  Uiso   1.00
C1041  C     0.88464   0.91235   0.25112   0.00000  Uiso   1.00
C1042  C     0.58761   0.88464   0.74895   0.00000  Uiso   1.00
C1043  C     0.89089   0.63616   0.21464   0.00000  Uiso   1.00
C1044  C     0.88508   0.91163   0.74534   0.00000  Uiso   1.00
C1045  C     0.61563   0.58802   0.25315   0.00000  Uiso   1.00
C1046  C     0.89082   0.63623   0.78536   0.00000  Uiso   1.00
C1047  C     0.52257   0.72371   0.95812   0.00000  Uiso   1.00
C1048  C     0.58790   0.88566   0.25269   0.00000  Uiso   1.00
C1049  C     0.88693   0.64035   0.71468   0.00000  Uiso   1.00
C1050  C     0.63467   0.83763   0.24898   0.00000  Uiso   1.00
C1051  C     0.83778   0.86485   0.75531   0.00000  Uiso   1.00
C1052  C     0.66219   0.63549   0.24463   0.00000  Uiso   1.00
C1053  C     0.63569   0.83793   0.75270   0.00000  Uiso   1.00
C1054  C     0.88688   0.64044   0.28532   0.00000  Uiso   1.00
C1055  C     0.66159   0.63470   0.75783   0.00000  Uiso   1.00
C1056  C     0.83792   0.86438   0.24719   0.00000  Uiso   1.00
C1057  C     0.86536   0.83765   0.24887   0.00000  Uiso   1.00
C1058  C     0.97438   0.77008   0.54114   0.00000  Uiso   1.00
C1059  C     0.63473   0.66158   0.75780   0.00000  Uiso   1.00
C1060  C     0.85911   0.61387   0.28535   0.00000  Uiso   1.00
C1061  C     0.66239   0.86536   0.75106   0.00000  Uiso   1.00
C1062  C     0.63518   0.66219   0.24469   0.00000  Uiso   1.00
C1063  C     0.86449   0.83784   0.75537   0.00000  Uiso   1.00
C1064  C     0.66210   0.86433   0.24731   0.00000  Uiso   1.00
C1065  C     0.85917   0.61375   0.71464   0.00000  Uiso   1.00
C1066  C     0.59784   0.84838   0.25096   0.00000  Uiso   1.00
C1067  C     0.90170   0.65203   0.75012   0.00000  Uiso   1.00
C1068  C     0.65233   0.59844   0.24902   0.00000  Uiso   1.00
H1069  H     0.70227   0.54106   0.99395   0.00000  Uiso   1.00
H1070  H     0.54578   0.79428   0.50542   0.00000  Uiso   1.00
H1071  H     0.70563   0.95424   0.49459   0.00000  Uiso   1.00
H1072  H     0.71026   0.54847   0.50627   0.00000  Uiso   1.00
H1073  H     0.54858   0.70542   0.49526   0.00000  Uiso   1.00
H1074  H     0.95996   0.69850   0.50433   0.00000  Uiso   1.00
H1075  H     0.80137   0.54011   0.49563   0.00000  Uiso   1.00
H1076  H     0.79449   0.95142   0.50468   0.00000  Uiso   1.00
H1077  H     0.58057   0.95317   0.25318   0.00000  Uiso   1.00
H1078  H     0.85073   0.61457   0.83988   0.00000  Uiso   1.00
H1079  H     0.53880   0.62439   0.27336   0.00000  Uiso   1.00
H1080  H     0.79594   0.54512   0.00511   0.00000  Uiso   1.00
H1081  H     0.95255   0.91897   0.74130   0.00000  Uiso   1.00
H1082  H     0.85091   0.61439   0.16009   0.00000  Uiso   1.00
H1083  H     0.62258   0.96222   0.73029   0.00000  Uiso   1.00
H1084  H     0.96221   0.87726   0.26996   0.00000  Uiso   1.00
H1085  H     0.53852   0.62567   0.72475   0.00000  Uiso   1.00
H1086  H     0.62560   0.53848   0.72494   0.00000  Uiso   1.00
H1087  H     0.91935   0.95311   0.25348   0.00000  Uiso   1.00
H1088  H     0.54677   0.91935   0.74674   0.00000  Uiso   1.00
H1089  H     0.90801   0.62662   0.16238   0.00000  Uiso   1.00
H1090  H     0.87567   0.96114   0.72663   0.00000  Uiso   1.00
H1091  H     0.95507   0.70399   0.99484   0.00000  Uiso   1.00
H1092  H     0.58097   0.54752   0.25870   0.00000  Uiso   1.00
H1093  H     0.90786   0.62677   0.83765   0.00000  Uiso   1.00
H1094  H     0.53774   0.87741   0.26974   0.00000  Uiso   1.00
H1095  H     0.89925   0.63541   0.66012   0.00000  Uiso   1.00
H1096  H     0.66941   0.79682   0.24674   0.00000  Uiso   1.00
H1097  H     0.78763   0.87441   0.77205   0.00000  Uiso   1.00
H1098  H     0.71266   0.62628   0.22884   0.00000  Uiso   1.00
H1099  H     0.62743   0.78777   0.76967   0.00000  Uiso   1.00
H1100  H     0.89908   0.63566   0.33992   0.00000  Uiso   1.00
H1101  H     0.71148   0.62433   0.77523   0.00000  Uiso   1.00
H1102  H     0.95901   0.79770   0.00615   0.00000  Uiso   1.00
H1103  H     0.78779   0.87274   0.23003   0.00000  Uiso   1.00
H1104  H     0.83065   0.79690   0.24652   0.00000  Uiso   1.00
H1105  H     0.62440   0.71152   0.77507   0.00000  Uiso   1.00
H1106  H     0.84195   0.62349   0.33758   0.00000  Uiso   1.00
H1107  H     0.70324   0.83066   0.75334   0.00000  Uiso   1.00
H1108  H     0.62565   0.71231   0.22794   0.00000  Uiso   1.00
H1109  H     0.87367   0.78740   0.77116   0.00000  Uiso   1.00
H1110  H     0.71227   0.87259   0.23029   0.00000  Uiso   1.00
H1111  H     0.84214   0.62315   0.66233   0.00000  Uiso   1.00
H1112  H     0.68371   0.55548   0.08556   0.00000  Uiso   1.00
H1113  H     0.79931   0.95679   0.99508   0.00000  Uiso   1.00
H1114  H     0.78281   0.55742   0.87433   0.00000  Uiso   1.00
H1115  H     0.94265   0.71706   0.12563   0.00000  Uiso   1.00
H1116  H     0.94449   0.81624   0.91458   0.00000  Uiso   1.00
H1117  H     0.81660   0.94323   0.08709   0.00000  Uiso   1.00
H1118  H     0.69255   0.93536   0.91276   0.00000  Uiso   1.00
H1119  H     0.56465   0.80749   0.08729   0.00000  Uiso   1.00
H1120  H     0.55698   0.68357   0.91276   0.00000  Uiso   1.00
H1121  H     0.93351   0.80503   0.58535   0.00000  Uiso   1.00
H1122  H     0.53264   0.80731   0.37470   0.00000  Uiso   1.00
H1123  H     0.69270   0.96728   0.62534   0.00000  Uiso   1.00
H1124  H     0.70988   0.94955   0.00469   0.00000  Uiso   1.00
H1125  H     0.69495   0.56649   0.41472   0.00000  Uiso   1.00
H1126  H     0.56642   0.69280   0.58729   0.00000  Uiso   1.00
H1127  H     0.94272   0.68477   0.41228   0.00000  Uiso   1.00
H1128  H     0.81509   0.55739   0.58768   0.00000  Uiso   1.00
H1129  H     0.80718   0.93361   0.41263   0.00000  Uiso   1.00
H1130  H     0.55054   0.79017   0.99534   0.00000  Uiso   1.00
H1131  H     0.54348   0.70085   0.00480   0.00000  Uiso   1.00
H1132  H     0.95143   0.78954   0.49378   0.00000  Uiso   1.00
O1133  O     0.75000   0.50000   0.25000   0.00000  Uiso   1.00
O1134  O     0.75000   0.96964   0.66317   0.00000  Uiso   1.00
O1135  O     0.84244   0.60251   0.68082   0.00000  Uiso   1.00
O1136  O     0.70029   0.54201   0.10305   0.00000  Uiso   1.00
O1137  O     0.79315   0.55192   0.90012   0.00000  Uiso   1.00
O1138  O     0.94820   0.70673   0.09984   0.00000  Uiso   1.00
O1139  O     0.95797   0.79967   0.89705   0.00000  Uiso   1.00
O1140  O     0.79986   0.95698   0.10420   0.00000  Uiso   1.00
O1141  O     0.70667   0.95171   0.89562   0.00000  Uiso   1.00
O1142  O     0.54830   0.79336   0.10442   0.00000  Uiso   1.00
O1143  O     0.54318   0.70027   0.89568   0.00000  Uiso   1.00
O1144  O     0.95020   0.79172   0.60289   0.00000  Uiso   1.00
O1145  O     0.96964   0.75000   0.33683   0.00000  Uiso   1.00
O1146  O     0.54295   0.80173   0.40049   0.00000  Uiso   1.00
O1147  O     0.69828   0.95697   0.59955   0.00000  Uiso   1.00
O1148  O     0.70826   0.54982   0.39716   0.00000  Uiso   1.00
O1149  O     0.54979   0.70672   0.60436   0.00000  Uiso   1.00
O1150  O     0.95681   0.70127   0.39526   0.00000  Uiso   1.00
O1151  O     0.79866   0.54324   0.60471   0.00000  Uiso   1.00
O1152  O     0.79328   0.95026   0.39559   0.00000  Uiso   1.00
O1153  O     0.53036   0.75000   0.66317   0.00000  Uiso   1.00
O1154  O     0.50000   0.71964   0.83683   0.00000  Uiso   1.00
O1155  O     0.50000   0.78036   0.16317   0.00000  Uiso   1.00
O1156  O     0.78036   0.50000   0.83683   0.00000  Uiso   1.00
O1157  O     0.71964   0.50000   0.16317   0.00000  Uiso   1.00
O1158  O     0.50000   0.78036   0.83683   0.00000  Uiso   1.00
O1159  O     0.50000   0.71964   0.16317   0.00000  Uiso   1.00
O1160  O     0.71964   0.50000   0.83683   0.00000  Uiso   1.00
O1161  O     0.75000   0.50000   0.75000   0.00000  Uiso   1.00
O1162  O     0.78036   0.50000   0.16317   0.00000  Uiso   1.00
O1163  O     0.70726   0.57307   0.27282   0.00000  Uiso   1.00
O1164  O     0.79275   0.92693   0.72718   0.00000  Uiso   1.00
O1165  O     0.92693   0.70726   0.27282   0.00000  Uiso   1.00
O1166  O     0.57307   0.79275   0.72718   0.00000  Uiso   1.00
O1167  O     0.79275   0.92693   0.27282   0.00000  Uiso   1.00
O1168  O     0.70726   0.57307   0.72718   0.00000  Uiso   1.00
O1169  O     0.57307   0.79275   0.27282   0.00000  Uiso   1.00
O1170  O     0.92693   0.70726   0.72718   0.00000  Uiso   1.00
O1171  O     0.70726   0.92693   0.72718   0.00000  Uiso   1.00
O1172  O     0.50000   0.75000   0.25000   0.00000  Uiso   1.00
O1173  O     0.79275   0.57307   0.27282   0.00000  Uiso   1.00
O1174  O     0.92693   0.79275   0.72718   0.00000  Uiso   1.00
O1175  O     0.57307   0.70726   0.27282   0.00000  Uiso   1.00
O1176  O     0.79275   0.57307   0.72718   0.00000  Uiso   1.00
O1177  O     0.70726   0.92693   0.27282   0.00000  Uiso   1.00
O1178  O     0.57307   0.70726   0.72718   0.00000  Uiso   1.00
O1179  O     0.92693   0.79275   0.27282   0.00000  Uiso   1.00
O1180  O     0.95726   0.82307   0.77282   0.00000  Uiso   1.00
O1181  O     0.54275   0.67693   0.22718   0.00000  Uiso   1.00
O1182  O     0.67693   0.95726   0.77282   0.00000  Uiso   1.00
O1183  O     0.50000   0.75000   0.75000   0.00000  Uiso   1.00
O1184  O     0.82307   0.54275   0.22718   0.00000  Uiso   1.00
O1185  O     0.54275   0.67693   0.77282   0.00000  Uiso   1.00
O1186  O     0.95726   0.82307   0.22718   0.00000  Uiso   1.00
O1187  O     0.82307   0.54275   0.77282   0.00000  Uiso   1.00
O1188  O     0.67693   0.95726   0.22718   0.00000  Uiso   1.00
O1189  O     0.95726   0.67693   0.22718   0.00000  Uiso   1.00
O1190  O     0.54275   0.82307   0.77282   0.00000  Uiso   1.00
O1191  O     0.67693   0.54275   0.22718   0.00000  Uiso   1.00
O1192  O     0.82307   0.95726   0.77282   0.00000  Uiso   1.00
O1193  O     0.54275   0.82307   0.22718   0.00000  Uiso   1.00
O1194  O     0.75000   0.96964   0.33683   0.00000  Uiso   1.00
O1195  O     0.95726   0.67693   0.77282   0.00000  Uiso   1.00
O1196  O     0.82307   0.95726   0.22718   0.00000  Uiso   1.00
O1197  O     0.67693   0.54275   0.77282   0.00000  Uiso   1.00
O1198  O     0.69919   0.54236   0.02230   0.00000  Uiso   1.00
O1199  O     0.79622   0.54883   0.97681   0.00000  Uiso   1.00
O1200  O     0.95134   0.70369   0.02314   0.00000  Uiso   1.00
O1201  O     0.95766   0.80076   0.97780   0.00000  Uiso   1.00
O1202  O     0.80208   0.95582   0.02348   0.00000  Uiso   1.00
O1203  O     0.70588   0.94933   0.97643   0.00000  Uiso   1.00
O1204  O     0.55071   0.79418   0.02360   0.00000  Uiso   1.00
O1205  O     0.75000   0.53036   0.66317   0.00000  Uiso   1.00
O1206  O     0.54439   0.69804   0.97640   0.00000  Uiso   1.00
O1207  O     0.94884   0.79152   0.52215   0.00000  Uiso   1.00
O1208  O     0.54595   0.79825   0.47715   0.00000  Uiso   1.00
O1209  O     0.70172   0.95401   0.52287   0.00000  Uiso   1.00
O1210  O     0.70839   0.55114   0.47791   0.00000  Uiso   1.00
O1211  O     0.55177   0.70503   0.52363   0.00000  Uiso   1.00
O1212  O     0.95592   0.69847   0.47607   0.00000  Uiso   1.00
O1213  O     0.80142   0.54414   0.52390   0.00000  Uiso   1.00
O1214  O     0.79492   0.94826   0.47631   0.00000  Uiso   1.00
O1215  O     0.60731   0.94929   0.25304   0.00000  Uiso   1.00
O1216  O     0.53036   0.75000   0.33683   0.00000  Uiso   1.00
O1217  O     0.84852   0.59592   0.81927   0.00000  Uiso   1.00
O1218  O     0.55274   0.60410   0.26158   0.00000  Uiso   1.00
O1219  O     0.94877   0.89227   0.74250   0.00000  Uiso   1.00
O1220  O     0.84863   0.59579   0.18073   0.00000  Uiso   1.00
O1221  O     0.60308   0.94791   0.74300   0.00000  Uiso   1.00
O1222  O     0.94793   0.89677   0.25721   0.00000  Uiso   1.00
O1223  O     0.55324   0.60446   0.73307   0.00000  Uiso   1.00
O1224  O     0.60438   0.55326   0.73315   0.00000  Uiso   1.00
O1225  O     0.89262   0.94925   0.25327   0.00000  Uiso   1.00
O1226  O     0.55067   0.89264   0.74688   0.00000  Uiso   1.00
O1227  O     0.96964   0.75000   0.66317   0.00000  Uiso   1.00
O1228  O     0.90769   0.64731   0.18083   0.00000  Uiso   1.00
O1229  O     0.89595   0.94720   0.73841   0.00000  Uiso   1.00
O1230  O     0.60768   0.55128   0.25750   0.00000  Uiso   1.00
O1231  O     0.90759   0.64742   0.81917   0.00000  Uiso   1.00
O1232  O     0.55204   0.89687   0.25697   0.00000  Uiso   1.00
O1233  O     0.90147   0.65406   0.68073   0.00000  Uiso   1.00
O1234  O     0.64268   0.80071   0.24692   0.00000  Uiso   1.00
O1235  O     0.80215   0.85384   0.76169   0.00000  Uiso   1.00
O1236  O     0.69774   0.64685   0.23853   0.00000  Uiso   1.00
O1237  O     0.64693   0.80209   0.75697   0.00000  Uiso   1.00
O1238  O     0.75000   0.53036   0.33683   0.00000  Uiso   1.00
O1239  O     0.90136   0.65424   0.31927   0.00000  Uiso   1.00
O1240  O     0.69676   0.64555   0.76693   0.00000  Uiso   1.00
O1241  O     0.80207   0.85323   0.24279   0.00000  Uiso   1.00
O1242  O     0.85738   0.80075   0.24673   0.00000  Uiso   1.00
O1243  O     0.64561   0.69674   0.76686   0.00000  Uiso   1.00
O1244  O     0.84228   0.60277   0.31916   0.00000  Uiso   1.00
O1245  O     0.69933   0.85738   0.75315   0.00000  Uiso   1.00
O1246  O     0.64621   0.69779   0.23831   0.00000  Uiso   1.00
O1247  O     0.85310   0.80231   0.76147   0.00000  Uiso   1.00
O1248  O     0.69796   0.85312   0.24305   0.00000  Uiso   1.00
Zn1249 Zn    0.70660   0.50000   0.21760   0.00000  Uiso   1.00
Zn1250 Zn    0.54340   0.75000   0.28240   0.00000  Uiso   1.00
Zn1251 Zn    0.75000   0.95660   0.71760   0.00000  Uiso   1.00
Zn1252 Zn    0.75000   0.54340   0.28240   0.00000  Uiso   1.00
Zn1253 Zn    0.54340   0.75000   0.71760   0.00000  Uiso   1.00
Zn1254 Zn    0.95660   0.75000   0.28240   0.00000  Uiso   1.00
Zn1255 Zn    0.75000   0.54340   0.71760   0.00000  Uiso   1.00
Zn1256 Zn    0.75000   0.95660   0.28240   0.00000  Uiso   1.00
Zn1257 Zn    0.79340   0.50000   0.78240   0.00000  Uiso   1.00
Zn1258 Zn    0.50000   0.70660   0.21760   0.00000  Uiso   1.00
Zn1259 Zn    0.50000   0.79340   0.78240   0.00000  Uiso   1.00
Zn1260 Zn    0.79340   0.50000   0.21760   0.00000  Uiso   1.00
Zn1261 Zn    0.70660   0.50000   0.78240   0.00000  Uiso   1.00
Zn1262 Zn    0.50000   0.79340   0.21760   0.00000  Uiso   1.00
Zn1263 Zn    0.50000   0.70660   0.78240   0.00000  Uiso   1.00
Zn1264 Zn    0.95660   0.75000   0.71760   0.00000  Uiso   1.00
loop_
_geom_bond_atom_site_label_1
_geom_bond_atom_site_label_2
_geom_bond_distance
_geom_bond_site_symmetry_2
_ccdc_geom_bond_type
C1     C30     1.408   .     A
C1     O250    1.387   .     S
C1     C680    1.420   1_545 S
C2     C53     1.418   .     A
C2     C40     1.394   .     A
C2     O260    1.385   .     S
C3     C103    1.416   .     A
C3     C96     1.417   .     A
C3     C67     1.454   .     S
C4     C68     1.456   .     S
C4     C106    1.406   .     A
C4     C95     1.406   .     A
C5     C105    1.415   .     A
C5     C94     1.407   .     A
C5     C69     1.456   .     S
C6     C93     1.406   .     A
C6     C70     1.455   .     S
C6     C108    1.415   .     A
C7     C92     1.416   .     A
C7     C107    1.416   .     A
C7     C71     1.452   .     S
C8     C81     1.452   .     S
C8     C111    1.416   .     A
C8     C91     1.416   .     A
C9     C90     1.415   .     A
C9     C82     1.455   .     S
C9     C109    1.406   .     A
C10    C113    1.407   .     A
C10    C89     1.415   .     A
C10    C74     1.456   .     S
C11    C112    1.406   .     A
C11    C87     1.406   .     A
C11    C75     1.457   .     S
C12    C115    1.414   .     A
C12    C86     1.405   .     A
C12    C76     1.453   .     S
C13    C54     1.418   .     A
C13    C41     1.394   .     A
C13    O261    1.385   .     S
C14    C114    1.416   .     A
C14    C85     1.417   .     A
C14    C78     1.454   .     S
C15    C84     1.405   .     A
C15    C79     1.456   .     S
C15    C117    1.406   .     A
C16    C80     1.457   .     S
C16    C116    1.415   .     A
C16    C83     1.407   .     A
C17    C35     1.407   .     A
C17    C64     1.469   .     S
C17    C662    1.406   .     S
C18    C31     1.415   .     A
C18    C63     1.464   .     S
C18    C668    1.407   1_545 S
C19    C32     1.415   .     A
C19    C62     1.465   .     S
C19    C353    1.407   .     S
C20    C61     1.469   .     S
C20    C38     1.407   .     A
C20    C350    1.406   1_455 S
C21    C60     1.469   .     S
C21    C43     1.407   .     A
C21    C355    1.406   1_455 S
C22    C45     1.407   .     A
C22    C59     1.464   .     S
C22    C356    1.415   .     S
C23    C58     1.465   .     S
C23    C46     1.407   .     A
C23    C673    1.415   1_545 S
C24    C42     1.408   .     A
C24    O262    1.387   .     S
C24    C688    1.420   1_545 S
C25    C689    1.469   .     S
C25    C47     1.407   .     A
C25    C674    1.406   .     S
C26    O263    1.386   .     S
C26    C43     1.408   .     A
C26    C52     1.419   .     A
C27    O264    1.386   .     S
C27    C45     1.409   .     A
C27    C369    1.420   .     S
C28    C46     1.409   .     A
C28    O265    1.386   .     S
C28    C686    1.420   1_545 S
C29    O266    1.386   .     S
C29    C47     1.408   .     A
C29    C56     1.419   .     A
C30    O188    1.386   .     S
C30    C649    1.406   1_545 S
C31    O189    1.383   .     S
C31    C33     1.394   .     A
C32    O190    1.383   .     S
C32    C44     1.394   .     A
C33    O251    1.385   .     S
C33    C681    1.418   1_545 S
C34    C55     1.408   .     A
C34    O191    1.386   .     S
C34    C336    1.406   .     S
C35    O192    1.386   .     S
C35    C66     1.408   .     A
C36    C77     1.409   .     A
C36    O193    1.386   .     S
C36    C650    1.407   .     S
C37    C88     1.409   .     A
C37    O194    1.386   .     S
C37    C335    1.407   1_455 S
C38    O195    1.386   .     S
C38    C99     1.408   .     A
C39    O196    1.386   .     S
C39    C110    1.408   .     A
C39    C337    1.406   .     S
C40    O198    1.383   .     S
C40    C338    1.415   1_455 S
C41    O199    1.383   .     S
C41    C655    1.415   .     S
C42    O200    1.386   .     S
C42    C657    1.406   1_545 S
C43    O201    1.386   .     S
C44    O252    1.385   .     S
C44    C366    1.418   .     S
C45    O202    1.386   .     S
C46    O203    1.386   .     S
C47    O204    1.386   .     S
C48    C66     1.419   .     A
C48    C633    1.420   .     S
C48    C49     1.473   1_554 S
C49    C77     1.420   .     A
C49    C48     1.473   1_556 S
C49    C665    1.418   .     S
C50    C88     1.419   .     A
C50    C360    1.418   1_455 S
C50    C51     1.473   1_554 S
C51    C99     1.419   .     A
C51    C50     1.473   1_556 S
C51    C371    1.420   1_455 S
C52    C53     1.473   .     S
C52    C426    1.420   1_455 S
C53    C343    1.420   1_455 S
C54    C56     1.473   .     S
C54    C660    1.420   .     S
C55    O253    1.387   .     S
C55    C367    1.420   .     S
C56    C656    1.420   .     S
C57    C657    1.469   1_545 S
C57    O878    1.281   1_545 A
C57    O290    1.282   .     S
C58    O257    1.279   .     A
C58    O818    1.280   1_545 S
C59    O197    1.279   .     A
C59    O584    1.280   .     S
C60    O205    1.281   .     A
C60    O595    1.281   1_455 S
C61    O206    1.281   .     A
C61    O210    1.282   .     S
C62    O523    1.279   .     A
C62    O527    1.280   .     S
C63    O212    1.279   .     A
C63    O208    1.280   .     A
C64    O841    1.281   .     S
C64    O846    1.280   .     S
C65    C120    1.453   .     S
C65    O215    1.278   .     A
C65    O243    1.276   .     A
C66    O254    1.386   .     S
C67    O216    1.277   .     A
C67    O244    1.278   .     A
C68    O241    1.278   .     A
C68    O217    1.278   .     A
C69    O242    1.276   .     A
C69    O218    1.279   .     A
C70    O219    1.279   .     A
C70    O248    1.276   .     A
C71    O220    1.277   .     A
C71    O249    1.277   .     A
C72    C118    1.456   .     S
C72    O221    1.276   .     A
C72    O245    1.280   .     A
C73    C119    1.457   .     S
C73    O247    1.278   .     A
C73    O222    1.279   .     A
C74    O234    1.279   .     A
C74    O223    1.276   .     A
C75    O225    1.278   .     A
C75    O236    1.278   .     A
C76    O232    1.276   .     A
C76    O226    1.278   .     A
C77    O255    1.386   .     S
C78    O227    1.277   .     A
C78    O233    1.278   .     A
C79    O228    1.278   .     A
C79    O239    1.279   .     A
C80    O229    1.280   .     A
C80    O240    1.276   .     A
C81    O230    1.277   .     A
C81    O237    1.277   .     A
C82    O231    1.276   .     A
C82    O238    1.279   .     A
C83    C100    1.405   .     A
C83    O267    1.386   .     S
C84    O269    1.383   .     S
C84    C98     1.409   .     A
C85    O270    1.384   .     S
C85    C97     1.405   .     A
C86    O271    1.386   .     S
C86    C96     1.405   .     A
C87    C95     1.409   .     A
C87    O272    1.383   .     S
C88    O256    1.386   .     S
C89    C94     1.405   .     A
C89    O273    1.384   .     S
C90    C93     1.404   .     A
C90    O274    1.384   .     S
C91    C92     1.392   .     A
C91    O275    1.385   .     S
C92    O276    1.385   .     S
C93    O277    1.386   .     S
C94    O278    1.386   .     S
C95    O280    1.382   .     S
C96    O281    1.384   .     S
C97    C120    1.405   .     A
C97    O282    1.386   .     S
C98    O283    1.382   .     S
C98    C119    1.406   .     A
C99    O258    1.387   .     S
C100   O284    1.384   .     S
C100   C118    1.415   .     A
C101   O285    1.383   .     S
C101   C117    1.409   .     A
C101   C119    1.406   .     A
C102   O286    1.386   .     S
C102   C118    1.407   .     A
C102   C116    1.405   .     A
C103   O287    1.384   .     S
C103   C115    1.391   .     A
C104   O288    1.384   .     S
C104   C120    1.414   .     A
C104   C114    1.391   .     A
C105   O289    1.384   .     S
C105   C113    1.405   .     A
C106   O291    1.383   .     S
C106   C112    1.409   .     A
C107   C111    1.392   .     A
C107   O292    1.385   .     S
C108   O293    1.384   .     S
C108   C109    1.404   .     A
C109   O294    1.386   .     S
C110   O259    1.387   .     S
C110   C368    1.420   .     S
C111   O295    1.385   .     S
C112   O296    1.382   .     S
C113   O297    1.386   .     S
C114   O298    1.384   .     S
C115   O299    1.384   .     S
C116   O300    1.384   .     S
C117   O187    1.382   .     S
H121   O250    0.987   1_556 S
H122   O260    0.988   .     S
H123   O261    0.988   .     S
H124   O262    0.987   .     S
H125   O263    0.987   .     S
H126   O264    0.988   .     S
H127   O265    0.988   .     S
H128   O266    0.987   .     S
H129   O267    0.989   .     S
H130   O269    0.990   .     S
H131   O270    0.989   .     S
H132   O251    0.988   1_554 S
H133   O271    0.989   .     S
H134   O272    0.990   .     S
H135   O273    0.989   .     S
H136   O274    0.989   .     S
H137   O275    0.988   .     S
H138   O276    0.988   .     S
H139   O277    0.989   .     S
H140   O278    0.989   .     S
H141   O280    0.990   .     S
H142   O281    0.989   .     S
H143   O252    0.988   1_556 S
H144   O282    0.989   .     S
H145   O283    0.990   .     S
H146   O284    0.989   .     S
H147   O285    0.990   .     S
H148   O286    0.989   .     S
H149   O287    0.989   .     S
H150   O288    0.989   .     S
H151   O289    0.989   .     S
H152   O291    0.990   .     S
H153   O292    0.988   .     S
H154   O253    0.987   1_554 S
H155   O293    0.989   .     S
H156   O294    0.989   .     S
H157   O295    0.988   .     S
H158   O296    0.991   .     S
H159   O297    0.989   .     S
H160   O298    0.989   .     S
H161   O299    0.989   .     S
H162   O300    0.989   .     S
H163   O187    0.990   .     S
H164   O188    0.989   .     S
H165   O254    0.987   1_556 S
H166   O189    0.989   .     S
H167   O190    0.989   .     S
H168   O191    0.989   .     S
H169   O192    0.989   .     S
H170   O193    0.989   .     S
H171   O194    0.989   .     S
H172   O195    0.989   .     S
H173   O196    0.989   .     S
H174   O198    0.989   .     S
H175   O199    0.989   .     S
H176   O255    0.988   1_554 S
H177   O200    0.989   .     S
H178   O201    0.989   .     S
H179   O202    0.989   .     S
H180   O203    0.989   .     S
H181   O204    0.989   .     S
H182   O256    0.988   1_556 S
H183   O258    0.987   1_554 S
H184   O259    0.987   .     S
O185   Zn301   1.945   .     S
O185   Zn312   1.944   .     S
O185   Zn304   1.944   .     S
O185   Zn940   1.946   1_545 S
O186   Zn303   1.941   .     S
O186   C690    1.280   .     S
O197   Zn306   1.941   .     S
O205   Zn305   1.941   .     S
O206   Zn315   1.940   .     S
O207   Zn314   1.940   .     S
O207   C378    1.279   1_455 A
O208   Zn309   1.940   .     S
O209   Zn301   1.940   .     S
O209   C696    1.281   1_545 S
O210   Zn311   1.941   .     S
O211   Zn310   1.941   .     S
O211   C378    1.280   1_455 S
O212   Zn313   1.941   .     S
O213   Zn935   1.944   1_545 S
O213   Zn307   1.946   .     S
O213   Zn309   1.945   .     S
O213   Zn313   1.944   .     S
O214   Zn312   1.941   .     S
O214   C696    1.280   1_545 S
O215   Zn304   1.934   .     S
O216   Zn303   1.934   .     S
O217   Zn306   1.936   .     S
O218   Zn305   1.936   .     S
O219   Zn308   1.934   .     S
O220   Zn307   1.934   .     S
O221   Zn302   1.936   .     S
O222   Zn316   1.936   .     S
O223   Zn303   1.936   .     S
O224   Zn314   1.946   .     S
O224   Zn622   1.944   1_455 S
O224   Zn302   1.945   .     S
O224   Zn310   1.944   .     S
O225   Zn304   1.936   .     S
O226   Zn316   1.934   .     S
O227   Zn302   1.934   .     S
O228   Zn307   1.936   .     S
O229   Zn308   1.936   .     S
O230   Zn305   1.934   .     S
O231   Zn306   1.934   .     S
O232   Zn627   1.934   .     S
O233   Zn310   1.934   .     S
O234   Zn945   1.936   .     S
O235   Zn305   1.944   .     S
O235   Zn311   1.944   .     S
O235   Zn315   1.946   .     S
O235   Zn632   1.945   1_455 S
O236   Zn312   1.936   .     S
O237   Zn315   1.934   .     S
O238   Zn630   1.934   .     S
O239   Zn309   1.936   .     S
O240   Zn933   1.936   .     S
O241   Zn626   1.936   .     S
O242   Zn311   1.936   .     S
O243   Zn301   1.934   .     S
O244   Zn941   1.934   .     S
O245   Zn314   1.936   .     S
O246   C689    1.281   .     A
O246   Zn308   1.940   .     S
O247   Zn631   1.936   .     S
O248   Zn944   1.934   .     S
O249   Zn313   1.934   .     S
O250   H121    0.987   1_554 S
O251   H132    0.988   1_556 S
O252   H143    0.988   1_554 S
O253   H154    0.987   1_556 S
O254   H165    0.987   1_554 S
O255   H176    0.988   1_556 S
O256   H182    0.988   1_554 S
O257   Zn307   1.940   .     S
O258   H183    0.987   1_556 S
O268   Zn302   1.940   .     S
O268   C375    1.280   1_455 S
O279   Zn316   1.940   .     S
O279   C376    1.281   .     S
O290   Zn304   1.941   .     S
Zn301  O872    1.936   1_545 S
Zn303  O845    1.944   .     S
Zn306  O540    1.944   .     S
Zn308  O817    1.946   .     S
Zn309  O876    1.934   1_545 S
Zn310  O557    1.936   1_455 S
Zn311  O548    1.934   1_455 S
Zn312  O880    1.934   1_545 S
Zn313  O866    1.936   1_545 S
Zn314  O554    1.934   1_455 S
Zn315  O563    1.936   1_455 S
Zn316  O551    1.945   .     S
C317   C346    1.408   .     A
C317   O566    1.387   .     S
C317   C996    1.420   1_545 S
C318   C369    1.418   .     A
C318   C356    1.394   .     A
C318   O576    1.385   .     S
C319   C419    1.416   .     A
C319   C412    1.417   .     A
C319   C383    1.454   .     S
C320   C384    1.456   .     S
C320   C422    1.406   .     A
C320   C411    1.406   .     A
C321   C421    1.415   .     A
C321   C410    1.407   .     A
C321   C385    1.456   .     S
C322   C409    1.406   .     A
C322   C386    1.455   .     S
C322   C424    1.415   .     A
C323   C408    1.416   .     A
C323   C423    1.416   .     A
C323   C387    1.452   .     S
C324   C397    1.452   .     S
C324   C427    1.416   .     A
C324   C407    1.416   .     A
C325   C406    1.415   .     A
C325   C398    1.455   .     S
C325   C425    1.406   .     A
C326   C429    1.407   .     A
C326   C405    1.415   .     A
C326   C390    1.456   .     S
C327   C428    1.406   .     A
C327   C403    1.406   .     A
C327   C391    1.457   .     S
C328   C431    1.414   .     A
C328   C402    1.405   .     A
C328   C392    1.453   .     S
C329   C370    1.418   .     A
C329   C357    1.394   .     A
C329   O577    1.385   .     S
C330   C430    1.416   .     A
C330   C401    1.417   .     A
C330   C394    1.454   .     S
C331   C400    1.405   .     A
C331   C395    1.456   .     S
C331   C433    1.406   .     A
C332   C396    1.457   .     S
C332   C432    1.415   .     A
C332   C399    1.407   .     A
C333   C351    1.407   .     A
C333   C380    1.469   .     S
C333   C978    1.406   .     S
C334   C347    1.415   .     A
C334   C379    1.464   .     S
C334   C984    1.407   1_545 S
C335   C348    1.415   .     A
C335   C378    1.465   .     S
C335   C37     1.407   1_655 S
C336   C377    1.469   .     S
C336   C354    1.407   .     A
C337   C376    1.469   .     S
C337   C359    1.407   .     A
C338   C361    1.407   .     A
C338   C375    1.464   .     S
C338   C40     1.415   1_655 S
C339   C374    1.465   .     S
C339   C362    1.407   .     A
C339   C989    1.415   1_545 S
C340   C358    1.408   .     A
C340   O578    1.387   .     S
C340   C1004   1.420   1_545 S
C341   C1005   1.469   .     S
C341   C363    1.407   .     A
C341   C990    1.406   .     S
C342   O579    1.386   .     S
C342   C359    1.408   .     A
C342   C368    1.419   .     A
C343   O580    1.386   .     S
C343   C361    1.409   .     A
C343   C53     1.420   1_655 S
C344   C362    1.409   .     A
C344   O581    1.386   .     S
C344   C1002   1.420   1_545 S
C345   O582    1.386   .     S
C345   C363    1.408   .     A
C345   C372    1.419   .     A
C346   O504    1.386   .     S
C346   C965    1.406   1_545 S
C347   O505    1.383   .     S
C347   C349    1.394   .     A
C348   O506    1.383   .     S
C348   C360    1.394   .     A
C349   O567    1.385   .     S
C349   C997    1.418   1_545 S
C350   C371    1.408   .     A
C350   O507    1.386   .     S
C350   C20     1.406   1_655 S
C351   O508    1.386   .     S
C351   C382    1.408   .     A
C352   C393    1.409   .     A
C352   O509    1.386   .     S
C352   C966    1.407   .     S
C353   C404    1.409   .     A
C353   O510    1.386   .     S
C354   O511    1.386   .     S
C354   C415    1.408   .     A
C355   O512    1.386   .     S
C355   C426    1.408   .     A
C355   C21     1.406   1_655 S
C356   O514    1.383   .     S
C357   O515    1.383   .     S
C357   C971    1.415   .     S
C358   O516    1.386   .     S
C358   C973    1.406   1_545 S
C359   O517    1.386   .     S
C360   O568    1.385   .     S
C360   C50     1.418   1_655 S
C361   O518    1.386   .     S
C362   O519    1.386   .     S
C363   O520    1.386   .     S
C364   C382    1.419   .     A
C364   C949    1.420   .     S
C364   C365    1.473   1_554 S
C365   C393    1.420   .     A
C365   C364    1.473   1_556 S
C365   C981    1.418   .     S
C366   C404    1.419   .     A
C366   C367    1.473   1_554 S
C367   C415    1.419   .     A
C367   C366    1.473   1_556 S
C368   C369    1.473   .     S
C370   C372    1.473   .     S
C370   C976    1.420   .     S
C371   O569    1.387   .     S
C371   C51     1.420   1_655 S
C372   C972    1.420   .     S
C373   C973    1.469   1_545 S
C373   O1194   1.281   1_545 A
C373   O606    1.282   .     S
C374   O573    1.279   .     A
C374   O1134   1.280   1_545 S
C375   O513    1.279   .     A
C375   O268    1.280   1_655 S
C376   O521    1.281   .     A
C377   O522    1.281   .     A
C377   O526    1.282   .     S
C378   O207    1.279   1_655 A
C378   O211    1.280   1_655 S
C379   O528    1.279   .     A
C379   O524    1.280   .     A
C380   O1157   1.281   .     S
C380   O1162   1.280   .     S
C381   C436    1.453   .     S
C381   O531    1.278   .     A
C381   O559    1.276   .     A
C382   O570    1.386   .     S
C383   O532    1.277   .     A
C383   O560    1.278   .     A
C384   O557    1.278   .     A
C384   O533    1.278   .     A
C385   O558    1.276   .     A
C385   O534    1.279   .     A
C386   O535    1.279   .     A
C386   O564    1.276   .     A
C387   O536    1.277   .     A
C387   O565    1.277   .     A
C388   C434    1.456   .     S
C388   O537    1.276   .     A
C388   O561    1.280   .     A
C389   C435    1.457   .     S
C389   O563    1.278   .     A
C389   O538    1.279   .     A
C390   O550    1.279   .     A
C390   O539    1.276   .     A
C391   O541    1.278   .     A
C391   O552    1.278   .     A
C392   O548    1.276   .     A
C392   O542    1.278   .     A
C393   O571    1.386   .     S
C394   O543    1.277   .     A
C394   O549    1.278   .     A
C395   O544    1.278   .     A
C395   O555    1.279   .     A
C396   O545    1.280   .     A
C396   O556    1.276   .     A
C397   O546    1.277   .     A
C397   O553    1.277   .     A
C398   O547    1.276   .     A
C398   O554    1.279   .     A
C399   C416    1.405   .     A
C399   O583    1.386   .     S
C400   O585    1.383   .     S
C400   C414    1.409   .     A
C401   O586    1.384   .     S
C401   C413    1.405   .     A
C402   O587    1.386   .     S
C402   C412    1.405   .     A
C403   C411    1.409   .     A
C403   O588    1.383   .     S
C404   O572    1.386   .     S
C405   C410    1.405   .     A
C405   O589    1.384   .     S
C406   C409    1.404   .     A
C406   O590    1.384   .     S
C407   C408    1.392   .     A
C407   O591    1.385   .     S
C408   O592    1.385   .     S
C409   O593    1.386   .     S
C410   O594    1.386   .     S
C411   O596    1.382   .     S
C412   O597    1.384   .     S
C413   C436    1.405   .     A
C413   O598    1.386   .     S
C414   O599    1.382   .     S
C414   C435    1.406   .     A
C415   O574    1.387   .     S
C416   O600    1.384   .     S
C416   C434    1.415   .     A
C417   O601    1.383   .     S
C417   C433    1.409   .     A
C417   C435    1.406   .     A
C418   O602    1.386   .     S
C418   C434    1.407   .     A
C418   C432    1.405   .     A
C419   O603    1.384   .     S
C419   C431    1.391   .     A
C420   O604    1.384   .     S
C420   C436    1.414   .     A
C420   C430    1.391   .     A
C421   O605    1.384   .     S
C421   C429    1.405   .     A
C422   O607    1.383   .     S
C422   C428    1.409   .     A
C423   C427    1.392   .     A
C423   O608    1.385   .     S
C424   O609    1.384   .     S
C424   C425    1.404   .     A
C425   O610    1.386   .     S
C426   O575    1.387   .     S
C426   C52     1.420   1_655 S
C427   O611    1.385   .     S
C428   O612    1.382   .     S
C429   O613    1.386   .     S
C430   O614    1.384   .     S
C431   O615    1.384   .     S
C432   O616    1.384   .     S
C433   O503    1.382   .     S
H437   O566    0.987   1_556 S
H438   O576    0.988   .     S
H439   O577    0.988   .     S
H440   O578    0.987   .     S
H441   O579    0.987   .     S
H442   O580    0.988   .     S
H443   O581    0.988   .     S
H444   O582    0.987   .     S
H445   O583    0.989   .     S
H446   O585    0.990   .     S
H447   O586    0.989   .     S
H448   O567    0.988   1_554 S
H449   O587    0.989   .     S
H450   O588    0.990   .     S
H451   O589    0.989   .     S
H452   O590    0.989   .     S
H453   O591    0.988   .     S
H454   O592    0.988   .     S
H455   O593    0.989   .     S
H456   O594    0.989   .     S
H457   O596    0.990   .     S
H458   O597    0.989   .     S
H459   O568    0.988   1_556 S
H460   O598    0.989   .     S
H461   O599    0.990   .     S
H462   O600    0.989   .     S
H463   O601    0.990   .     S
H464   O602    0.989   .     S
H465   O603    0.989   .     S
H466   O604    0.989   .     S
H467   O605    0.989   .     S
H468   O607    0.990   .     S
H469   O608    0.988   .     S
H470   O569    0.987   1_554 S
H471   O609    0.989   .     S
H472   O610    0.989   .     S
H473   O611    0.988   .     S
H474   O612    0.991   .     S
H475   O613    0.989   .     S
H476   O614    0.989   .     S
H477   O615    0.989   .     S
H478   O616    0.989   .     S
H479   O503    0.990   .     S
H480   O504    0.989   .     S
H481   O570    0.987   1_556 S
H482   O505    0.989   .     S
H483   O506    0.989   .     S
H484   O507    0.989   .     S
H485   O508    0.989   .     S
H486   O509    0.989   .     S
H487   O510    0.989   .     S
H488   O511    0.989   .     S
H489   O512    0.989   .     S
H490   O514    0.989   .     S
H491   O515    0.989   .     S
H492   O571    0.988   1_554 S
H493   O516    0.989   .     S
H494   O517    0.989   .     S
H495   O518    0.989   .     S
H496   O519    0.989   .     S
H497   O520    0.989   .     S
H498   O572    0.988   1_556 S
H499   O574    0.987   1_554 S
H500   O575    0.987   .     S
O501   Zn617   1.945   .     S
O501   Zn628   1.944   .     S
O501   Zn620   1.944   .     S
O501   Zn1256  1.946   1_545 S
O502   Zn619   1.941   .     S
O502   C1006   1.280   .     S
O513   Zn622   1.941   .     S
O521   Zn621   1.941   .     S
O522   Zn631   1.940   .     S
O523   Zn630   1.940   .     S
O524   Zn625   1.940   .     S
O525   Zn617   1.940   .     S
O525   C1012   1.281   1_545 S
O526   Zn627   1.941   .     S
O527   Zn626   1.941   .     S
O528   Zn629   1.941   .     S
O529   Zn1251  1.944   1_545 S
O529   Zn623   1.946   .     S
O529   Zn625   1.945   .     S
O529   Zn629   1.944   .     S
O530   Zn628   1.941   .     S
O530   C1012   1.280   1_545 S
O531   Zn620   1.934   .     S
O532   Zn619   1.934   .     S
O533   Zn622   1.936   .     S
O534   Zn621   1.936   .     S
O535   Zn624   1.934   .     S
O536   Zn623   1.934   .     S
O537   Zn618   1.936   .     S
O538   Zn632   1.936   .     S
O539   Zn619   1.936   .     S
O540   Zn630   1.946   .     S
O540   Zn618   1.945   .     S
O540   Zn626   1.944   .     S
O541   Zn620   1.936   .     S
O542   Zn632   1.934   .     S
O543   Zn618   1.934   .     S
O544   Zn623   1.936   .     S
O545   Zn624   1.936   .     S
O546   Zn621   1.934   .     S
O547   Zn622   1.934   .     S
O548   Zn311   1.934   1_655 S
O549   Zn626   1.934   .     S
O550   Zn1261  1.936   .     S
O551   Zn621   1.944   .     S
O551   Zn627   1.944   .     S
O551   Zn631   1.946   .     S
O552   Zn628   1.936   .     S
O553   Zn631   1.934   .     S
O554   Zn314   1.934   1_655 S
O555   Zn625   1.936   .     S
O556   Zn1249  1.936   .     S
O557   Zn310   1.936   1_655 S
O558   Zn627   1.936   .     S
O559   Zn617   1.934   .     S
O560   Zn1257  1.934   .     S
O561   Zn630   1.936   .     S
O562   C1005   1.281   .     A
O562   Zn624   1.940   .     S
O563   Zn315   1.936   1_655 S
O564   Zn1260  1.934   .     S
O565   Zn629   1.934   .     S
O566   H437    0.987   1_554 S
O567   H448    0.988   1_556 S
O568   H459    0.988   1_554 S
O569   H470    0.987   1_556 S
O570   H481    0.987   1_554 S
O571   H492    0.988   1_556 S
O572   H498    0.988   1_554 S
O573   Zn623   1.940   .     S
O574   H499    0.987   1_556 S
O584   Zn618   1.940   .     S
O595   Zn632   1.940   .     S
O595   C60     1.281   1_655 S
O606   Zn620   1.941   .     S
Zn617  O1188   1.936   1_545 S
Zn619  O1161   1.944   .     S
Zn622  O224    1.944   1_655 S
Zn624  O1133   1.946   .     S
Zn625  O1192   1.934   1_545 S
Zn628  O1196   1.934   1_545 S
Zn629  O1182   1.936   1_545 S
Zn632  O235    1.945   1_655 S
C633   C662    1.408   .     A
C633   O882    1.387   .     S
C634   C685    1.418   .     A
C634   C672    1.394   .     A
C634   O892    1.385   .     S
C635   C735    1.416   .     A
C635   C728    1.417   .     A
C635   C699    1.454   .     S
C636   C700    1.456   .     S
C636   C738    1.406   .     A
C636   C727    1.406   .     A
C637   C737    1.415   .     A
C637   C726    1.407   .     A
C637   C701    1.456   .     S
C638   C725    1.406   .     A
C638   C702    1.455   .     S
C638   C740    1.415   .     A
C639   C724    1.416   .     A
C639   C739    1.416   .     A
C639   C703    1.452   .     S
C640   C713    1.452   .     S
C640   C743    1.416   .     A
C640   C723    1.416   .     A
C641   C722    1.415   .     A
C641   C714    1.455   .     S
C641   C741    1.406   .     A
C642   C745    1.407   .     A
C642   C721    1.415   .     A
C642   C706    1.456   .     S
C643   C744    1.406   .     A
C643   C719    1.406   .     A
C643   C707    1.457   .     S
C644   C747    1.414   .     A
C644   C718    1.405   .     A
C644   C708    1.453   .     S
C645   C686    1.418   .     A
C645   C673    1.394   .     A
C645   O893    1.385   .     S
C646   C746    1.416   .     A
C646   C717    1.417   .     A
C646   C710    1.454   .     S
C647   C716    1.405   .     A
C647   C711    1.456   .     S
C647   C749    1.406   .     A
C648   C712    1.457   .     S
C648   C748    1.415   .     A
C648   C715    1.407   .     A
C649   C667    1.407   .     A
C649   C696    1.469   .     S
C649   C30     1.406   1_565 S
C650   C663    1.415   .     A
C650   C695    1.464   .     S
C651   C664    1.415   .     A
C651   C694    1.465   .     S
C651   C985    1.407   .     S
C652   C693    1.469   .     S
C652   C670    1.407   .     A
C652   C982    1.406   1_455 S
C653   C692    1.469   .     S
C653   C675    1.407   .     A
C653   C987    1.406   1_455 S
C654   C677    1.407   .     A
C654   C691    1.464   .     S
C654   C988    1.415   .     S
C655   C690    1.465   .     S
C655   C678    1.407   .     A
C656   C674    1.408   .     A
C656   O894    1.387   .     S
C657   C57     1.469   1_565 S
C657   C679    1.407   .     A
C657   C42     1.406   1_565 S
C658   O895    1.386   .     S
C658   C675    1.408   .     A
C658   C684    1.419   .     A
C659   O896    1.386   .     S
C659   C677    1.409   .     A
C659   C1001   1.420   .     S
C660   C678    1.409   .     A
C660   O897    1.386   .     S
C661   O898    1.386   .     S
C661   C679    1.408   .     A
C661   C688    1.419   .     A
C662   O820    1.386   .     S
C663   O821    1.383   .     S
C663   C665    1.394   .     A
C664   O822    1.383   .     S
C664   C676    1.394   .     A
C665   O883    1.385   .     S
C666   C687    1.408   .     A
C666   O823    1.386   .     S
C666   C968    1.406   .     S
C667   O824    1.386   .     S
C667   C698    1.408   .     A
C668   C709    1.409   .     A
C668   O825    1.386   .     S
C668   C18     1.407   1_565 S
C669   C720    1.409   .     A
C669   O826    1.386   .     S
C669   C967    1.407   1_455 S
C670   O827    1.386   .     S
C670   C731    1.408   .     A
C671   O828    1.386   .     S
C671   C742    1.408   .     A
C671   C969    1.406   .     S
C672   O830    1.383   .     S
C672   C970    1.415   1_455 S
C673   O831    1.383   .     S
C673   C23     1.415   1_565 S
C674   O832    1.386   .     S
C675   O833    1.386   .     S
C676   O884    1.385   .     S
C676   C998    1.418   .     S
C677   O834    1.386   .     S
C678   O835    1.386   .     S
C679   O836    1.386   .     S
C680   C698    1.419   .     A
C680   C1      1.420   1_565 S
C680   C681    1.473   1_554 S
C681   C709    1.420   .     A
C681   C680    1.473   1_556 S
C681   C33     1.418   1_565 S
C682   C720    1.419   .     A
C682   C992    1.418   1_455 S
C682   C683    1.473   1_554 S
C683   C731    1.419   .     A
C683   C682    1.473   1_556 S
C683   C1003   1.420   1_455 S
C684   C685    1.473   .     S
C684   C1058   1.420   1_455 S
C685   C975    1.420   1_455 S
C686   C688    1.473   .     S
C686   C28     1.420   1_565 S
C687   O885    1.387   .     S
C687   C999    1.420   .     S
C688   C24     1.420   1_565 S
C689   O922    1.282   .     S
C690   O889    1.279   .     A
C691   O829    1.279   .     A
C691   O1216   1.280   .     S
C692   O837    1.281   .     A
C692   O1227   1.281   1_455 S
C693   O838    1.281   .     A
C693   O842    1.282   .     S
C694   O1155   1.279   .     A
C694   O1159   1.280   .     S
C695   O844    1.279   .     A
C695   O840    1.280   .     A
C696   O209    1.281   1_565 S
C696   O214    1.280   1_565 S
C697   C752    1.453   .     S
C697   O847    1.278   .     A
C697   O875    1.276   .     A
C698   O886    1.386   .     S
C699   O848    1.277   .     A
C699   O876    1.278   .     A
C700   O873    1.278   .     A
C700   O849    1.278   .     A
C701   O874    1.276   .     A
C701   O850    1.279   .     A
C702   O851    1.279   .     A
C702   O880    1.276   .     A
C703   O852    1.277   .     A
C703   O881    1.277   .     A
C704   C750    1.456   .     S
C704   O853    1.276   .     A
C704   O877    1.280   .     A
C705   C751    1.457   .     S
C705   O879    1.278   .     A
C705   O854    1.279   .     A
C706   O866    1.279   .     A
C706   O855    1.276   .     A
C707   O857    1.278   .     A
C707   O868    1.278   .     A
C708   O864    1.276   .     A
C708   O858    1.278   .     A
C709   O887    1.386   .     S
C710   O859    1.277   .     A
C710   O865    1.278   .     A
C711   O860    1.278   .     A
C711   O871    1.279   .     A
C712   O861    1.280   .     A
C712   O872    1.276   .     A
C713   O862    1.277   .     A
C713   O869    1.277   .     A
C714   O863    1.276   .     A
C714   O870    1.279   .     A
C715   C732    1.405   .     A
C715   O899    1.386   .     S
C716   O901    1.383   .     S
C716   C730    1.409   .     A
C717   O902    1.384   .     S
C717   C729    1.405   .     A
C718   O903    1.386   .     S
C718   C728    1.405   .     A
C719   C727    1.409   .     A
C719   O904    1.383   .     S
C720   O888    1.386   .     S
C721   C726    1.405   .     A
C721   O905    1.384   .     S
C722   C725    1.404   .     A
C722   O906    1.384   .     S
C723   C724    1.392   .     A
C723   O907    1.385   .     S
C724   O908    1.385   .     S
C725   O909    1.386   .     S
C726   O910    1.386   .     S
C727   O912    1.382   .     S
C728   O913    1.384   .     S
C729   C752    1.405   .     A
C729   O914    1.386   .     S
C730   O915    1.382   .     S
C730   C751    1.406   .     A
C731   O890    1.387   .     S
C732   O916    1.384   .     S
C732   C750    1.415   .     A
C733   O917    1.383   .     S
C733   C749    1.409   .     A
C733   C751    1.406   .     A
C734   O918    1.386   .     S
C734   C750    1.407   .     A
C734   C748    1.405   .     A
C735   O919    1.384   .     S
C735   C747    1.391   .     A
C736   O920    1.384   .     S
C736   C752    1.414   .     A
C736   C746    1.391   .     A
C737   O921    1.384   .     S
C737   C745    1.405   .     A
C738   O923    1.383   .     S
C738   C744    1.409   .     A
C739   C743    1.392   .     A
C739   O924    1.385   .     S
C740   O925    1.384   .     S
C740   C741    1.404   .     A
C741   O926    1.386   .     S
C742   O891    1.387   .     S
C742   C1000   1.420   .     S
C743   O927    1.385   .     S
C744   O928    1.382   .     S
C745   O929    1.386   .     S
C746   O930    1.384   .     S
C747   O931    1.384   .     S
C748   O932    1.384   .     S
C749   O819    1.382   .     S
H753   O882    0.987   1_556 S
H754   O892    0.988   .     S
H755   O893    0.988   .     S
H756   O894    0.987   .     S
H757   O895    0.987   .     S
H758   O896    0.988   .     S
H759   O897    0.988   .     S
H760   O898    0.987   .     S
H761   O899    0.989   .     S
H762   O901    0.990   .     S
H763   O902    0.989   .     S
H764   O883    0.988   1_554 S
H765   O903    0.989   .     S
H766   O904    0.990   .     S
H767   O905    0.989   .     S
H768   O906    0.989   .     S
H769   O907    0.988   .     S
H770   O908    0.988   .     S
H771   O909    0.989   .     S
H772   O910    0.989   .     S
H773   O912    0.990   .     S
H774   O913    0.989   .     S
H775   O884    0.988   1_556 S
H776   O914    0.989   .     S
H777   O915    0.990   .     S
H778   O916    0.989   .     S
H779   O917    0.990   .     S
H780   O918    0.989   .     S
H781   O919    0.989   .     S
H782   O920    0.989   .     S
H783   O921    0.989   .     S
H784   O923    0.990   .     S
H785   O924    0.988   .     S
H786   O885    0.987   1_554 S
H787   O925    0.989   .     S
H788   O926    0.989   .     S
H789   O927    0.988   .     S
H790   O928    0.991   .     S
H791   O929    0.989   .     S
H792   O930    0.989   .     S
H793   O931    0.989   .     S
H794   O932    0.989   .     S
H795   O819    0.990   .     S
H796   O820    0.989   .     S
H797   O886    0.987   1_556 S
H798   O821    0.989   .     S
H799   O822    0.989   .     S
H800   O823    0.989   .     S
H801   O824    0.989   .     S
H802   O825    0.989   .     S
H803   O826    0.989   .     S
H804   O827    0.989   .     S
H805   O828    0.989   .     S
H806   O830    0.989   .     S
H807   O831    0.989   .     S
H808   O887    0.988   1_554 S
H809   O832    0.989   .     S
H810   O833    0.989   .     S
H811   O834    0.989   .     S
H812   O835    0.989   .     S
H813   O836    0.989   .     S
H814   O888    0.988   1_556 S
H815   O890    0.987   1_554 S
H816   O891    0.987   .     S
O817   Zn933   1.945   .     S
O817   Zn944   1.944   .     S
O817   Zn936   1.944   .     S
O818   Zn935   1.941   .     S
O818   C58     1.280   1_565 S
O829   Zn938   1.941   .     S
O837   Zn937   1.941   .     S
O838   Zn947   1.940   .     S
O839   Zn946   1.940   .     S
O839   C1010   1.279   1_455 A
O840   Zn941   1.940   .     S
O841   Zn933   1.940   .     S
O842   Zn943   1.941   .     S
O843   Zn942   1.941   .     S
O843   C1010   1.280   1_455 S
O844   Zn945   1.941   .     S
O845   Zn939   1.946   .     S
O845   Zn941   1.945   .     S
O845   Zn945   1.944   .     S
O846   Zn944   1.941   .     S
O847   Zn936   1.934   .     S
O848   Zn935   1.934   .     S
O849   Zn938   1.936   .     S
O850   Zn937   1.936   .     S
O851   Zn940   1.934   .     S
O852   Zn939   1.934   .     S
O853   Zn934   1.936   .     S
O854   Zn948   1.936   .     S
O855   Zn935   1.936   .     S
O856   Zn946   1.946   .     S
O856   Zn1254  1.944   1_455 S
O856   Zn934   1.945   .     S
O856   Zn942   1.944   .     S
O857   Zn936   1.936   .     S
O858   Zn948   1.934   .     S
O859   Zn934   1.934   .     S
O860   Zn939   1.936   .     S
O861   Zn940   1.936   .     S
O862   Zn937   1.934   .     S
O863   Zn938   1.934   .     S
O864   Zn1259  1.934   .     S
O865   Zn942   1.934   .     S
O866   Zn313   1.936   1_565 S
O867   Zn937   1.944   .     S
O867   Zn943   1.944   .     S
O867   Zn947   1.946   .     S
O867   Zn1264  1.945   1_455 S
O868   Zn944   1.936   .     S
O869   Zn947   1.934   .     S
O870   Zn1262  1.934   .     S
O871   Zn941   1.936   .     S
O872   Zn301   1.936   1_565 S
O873   Zn1258  1.936   .     S
O874   Zn943   1.936   .     S
O875   Zn933   1.934   .     S
O876   Zn309   1.934   1_565 S
O877   Zn946   1.936   .     S
O878   C57     1.281   1_565 A
O878   Zn940   1.940   .     S
O879   Zn1263  1.936   .     S
O880   Zn312   1.934   1_565 S
O881   Zn945   1.934   .     S
O882   H753    0.987   1_554 S
O883   H764    0.988   1_556 S
O884   H775    0.988   1_554 S
O885   H786    0.987   1_556 S
O886   H797    0.987   1_554 S
O887   H808    0.988   1_556 S
O888   H814    0.988   1_554 S
O889   Zn939   1.940   .     S
O890   H815    0.987   1_556 S
O900   Zn934   1.940   .     S
O900   C1007   1.280   1_455 S
O911   Zn948   1.940   .     S
O911   C1008   1.281   .     S
O922   Zn936   1.941   .     S
Zn935  O213    1.944   1_565 S
Zn938  O1172   1.944   .     S
Zn940  O185    1.946   1_565 S
Zn942  O1189   1.936   1_455 S
Zn943  O1180   1.934   1_455 S
Zn946  O1186   1.934   1_455 S
Zn947  O1195   1.936   1_455 S
Zn948  O1183   1.945   .     S
C949   C978    1.408   .     A
C949   O1198   1.387   .     S
C950   C1001   1.418   .     A
C950   C988    1.394   .     A
C950   O1208   1.385   .     S
C951   C1051   1.416   .     A
C951   C1044   1.417   .     A
C951   C1015   1.454   .     S
C952   C1016   1.456   .     S
C952   C1054   1.406   .     A
C952   C1043   1.406   .     A
C953   C1053   1.415   .     A
C953   C1042   1.407   .     A
C953   C1017   1.456   .     S
C954   C1041   1.406   .     A
C954   C1018   1.455   .     S
C954   C1056   1.415   .     A
C955   C1040   1.416   .     A
C955   C1055   1.416   .     A
C955   C1019   1.452   .     S
C956   C1029   1.452   .     S
C956   C1059   1.416   .     A
C956   C1039   1.416   .     A
C957   C1038   1.415   .     A
C957   C1030   1.455   .     S
C957   C1057   1.406   .     A
C958   C1061   1.407   .     A
C958   C1037   1.415   .     A
C958   C1022   1.456   .     S
C959   C1060   1.406   .     A
C959   C1035   1.406   .     A
C959   C1023   1.457   .     S
C960   C1063   1.414   .     A
C960   C1034   1.405   .     A
C960   C1024   1.453   .     S
C961   C1002   1.418   .     A
C961   C989    1.394   .     A
C961   O1209   1.385   .     S
C962   C1062   1.416   .     A
C962   C1033   1.417   .     A
C962   C1026   1.454   .     S
C963   C1032   1.405   .     A
C963   C1027   1.456   .     S
C963   C1065   1.406   .     A
C964   C1028   1.457   .     S
C964   C1064   1.415   .     A
C964   C1031   1.407   .     A
C965   C983    1.407   .     A
C965   C1012   1.469   .     S
C965   C346    1.406   1_565 S
C966   C979    1.415   .     A
C966   C1011   1.464   .     S
C967   C980    1.415   .     A
C967   C1010   1.465   .     S
C967   C669    1.407   1_655 S
C968   C1009   1.469   .     S
C968   C986    1.407   .     A
C969   C1008   1.469   .     S
C969   C991    1.407   .     A
C970   C993    1.407   .     A
C970   C1007   1.464   .     S
C970   C672    1.415   1_655 S
C971   C1006   1.465   .     S
C971   C994    1.407   .     A
C972   C990    1.408   .     A
C972   O1210   1.387   .     S
C973   C373    1.469   1_565 S
C973   C995    1.407   .     A
C973   C358    1.406   1_565 S
C974   O1211   1.386   .     S
C974   C991    1.408   .     A
C974   C1000   1.419   .     A
C975   O1212   1.386   .     S
C975   C993    1.409   .     A
C975   C685    1.420   1_655 S
C976   C994    1.409   .     A
C976   O1213   1.386   .     S
C977   O1214   1.386   .     S
C977   C995    1.408   .     A
C977   C1004   1.419   .     A
C978   O1136   1.386   .     S
C979   O1137   1.383   .     S
C979   C981    1.394   .     A
C980   O1138   1.383   .     S
C980   C992    1.394   .     A
C981   O1199   1.385   .     S
C982   C1003   1.408   .     A
C982   O1139   1.386   .     S
C982   C652    1.406   1_655 S
C983   O1140   1.386   .     S
C983   C1014   1.408   .     A
C984   C1025   1.409   .     A
C984   O1141   1.386   .     S
C984   C334    1.407   1_565 S
C985   C1036   1.409   .     A
C985   O1142   1.386   .     S
C986   O1143   1.386   .     S
C986   C1047   1.408   .     A
C987   O1144   1.386   .     S
C987   C1058   1.408   .     A
C987   C653    1.406   1_655 S
C988   O1146   1.383   .     S
C989   O1147   1.383   .     S
C989   C339    1.415   1_565 S
C990   O1148   1.386   .     S
C991   O1149   1.386   .     S
C992   O1200   1.385   .     S
C992   C682    1.418   1_655 S
C993   O1150   1.386   .     S
C994   O1151   1.386   .     S
C995   O1152   1.386   .     S
C996   C1014   1.419   .     A
C996   C317    1.420   1_565 S
C996   C997    1.473   1_554 S
C997   C1025   1.420   .     A
C997   C996    1.473   1_556 S
C997   C349    1.418   1_565 S
C998   C1036   1.419   .     A
C998   C999    1.473   1_554 S
C999   C1047   1.419   .     A
C999   C998    1.473   1_556 S
C1000  C1001   1.473   .     S
C1002  C1004   1.473   .     S
C1002  C344    1.420   1_565 S
C1003  O1201   1.387   .     S
C1003  C683    1.420   1_655 S
C1004  C340    1.420   1_565 S
C1005  O1238   1.282   .     S
C1006  O1205   1.279   .     A
C1007  O1145   1.279   .     A
C1007  O900    1.280   1_655 S
C1008  O1153   1.281   .     A
C1009  O1154   1.281   .     A
C1009  O1158   1.282   .     S
C1010  O839    1.279   1_655 A
C1010  O843    1.280   1_655 S
C1011  O1160   1.279   .     A
C1011  O1156   1.280   .     A
C1012  O525    1.281   1_565 S
C1012  O530    1.280   1_565 S
C1013  C1068   1.453   .     S
C1013  O1163   1.278   .     A
C1013  O1191   1.276   .     A
C1014  O1202   1.386   .     S
C1015  O1164   1.277   .     A
C1015  O1192   1.278   .     A
C1016  O1189   1.278   .     A
C1016  O1165   1.278   .     A
C1017  O1190   1.276   .     A
C1017  O1166   1.279   .     A
C1018  O1167   1.279   .     A
C1018  O1196   1.276   .     A
C1019  O1168   1.277   .     A
C1019  O1197   1.277   .     A
C1020  C1066   1.456   .     S
C1020  O1169   1.276   .     A
C1020  O1193   1.280   .     A
C1021  C1067   1.457   .     S
C1021  O1195   1.278   .     A
C1021  O1170   1.279   .     A
C1022  O1182   1.279   .     A
C1022  O1171   1.276   .     A
C1023  O1173   1.278   .     A
C1023  O1184   1.278   .     A
C1024  O1180   1.276   .     A
C1024  O1174   1.278   .     A
C1025  O1203   1.386   .     S
C1026  O1175   1.277   .     A
C1026  O1181   1.278   .     A
C1027  O1176   1.278   .     A
C1027  O1187   1.279   .     A
C1028  O1177   1.280   .     A
C1028  O1188   1.276   .     A
C1029  O1178   1.277   .     A
C1029  O1185   1.277   .     A
C1030  O1179   1.276   .     A
C1030  O1186   1.279   .     A
C1031  C1048   1.405   .     A
C1031  O1215   1.386   .     S
C1032  O1217   1.383   .     S
C1032  C1046   1.409   .     A
C1033  O1218   1.384   .     S
C1033  C1045   1.405   .     A
C1034  O1219   1.386   .     S
C1034  C1044   1.405   .     A
C1035  C1043   1.409   .     A
C1035  O1220   1.383   .     S
C1036  O1204   1.386   .     S
C1037  C1042   1.405   .     A
C1037  O1221   1.384   .     S
C1038  C1041   1.404   .     A
C1038  O1222   1.384   .     S
C1039  C1040   1.392   .     A
C1039  O1223   1.385   .     S
C1040  O1224   1.385   .     S
C1041  O1225   1.386   .     S
C1042  O1226   1.386   .     S
C1043  O1228   1.382   .     S
C1044  O1229   1.384   .     S
C1045  C1068   1.405   .     A
C1045  O1230   1.386   .     S
C1046  O1231   1.382   .     S
C1046  C1067   1.406   .     A
C1047  O1206   1.387   .     S
C1048  O1232   1.384   .     S
C1048  C1066   1.415   .     A
C1049  O1233   1.383   .     S
C1049  C1065   1.409   .     A
C1049  C1067   1.406   .     A
C1050  O1234   1.386   .     S
C1050  C1066   1.407   .     A
C1050  C1064   1.405   .     A
C1051  O1235   1.384   .     S
C1051  C1063   1.391   .     A
C1052  O1236   1.384   .     S
C1052  C1068   1.414   .     A
C1052  C1062   1.391   .     A
C1053  O1237   1.384   .     S
C1053  C1061   1.405   .     A
C1054  O1239   1.383   .     S
C1054  C1060   1.409   .     A
C1055  C1059   1.392   .     A
C1055  O1240   1.385   .     S
C1056  O1241   1.384   .     S
C1056  C1057   1.404   .     A
C1057  O1242   1.386   .     S
C1058  O1207   1.387   .     S
C1058  C684    1.420   1_655 S
C1059  O1243   1.385   .     S
C1060  O1244   1.382   .     S
C1061  O1245   1.386   .     S
C1062  O1246   1.384   .     S
C1063  O1247   1.384   .     S
C1064  O1248   1.384   .     S
C1065  O1135   1.382   .     S
H1069  O1198   0.987   1_556 S
H1070  O1208   0.988   .     S
H1071  O1209   0.988   .     S
H1072  O1210   0.987   .     S
H1073  O1211   0.987   .     S
H1074  O1212   0.988   .     S
H1075  O1213   0.988   .     S
H1076  O1214   0.987   .     S
H1077  O1215   0.989   .     S
H1078  O1217   0.990   .     S
H1079  O1218   0.989   .     S
H1080  O1199   0.988   1_554 S
H1081  O1219   0.989   .     S
H1082  O1220   0.990   .     S
H1083  O1221   0.989   .     S
H1084  O1222   0.989   .     S
H1085  O1223   0.988   .     S
H1086  O1224   0.988   .     S
H1087  O1225   0.989   .     S
H1088  O1226   0.989   .     S
H1089  O1228   0.990   .     S
H1090  O1229   0.989   .     S
H1091  O1200   0.988   1_556 S
H1092  O1230   0.989   .     S
H1093  O1231   0.990   .     S
H1094  O1232   0.989   .     S
H1095  O1233   0.990   .     S
H1096  O1234   0.989   .     S
H1097  O1235   0.989   .     S
H1098  O1236   0.989   .     S
H1099  O1237   0.989   .     S
H1100  O1239   0.990   .     S
H1101  O1240   0.988   .     S
H1102  O1201   0.987   1_554 S
H1103  O1241   0.989   .     S
H1104  O1242   0.989   .     S
H1105  O1243   0.988   .     S
H1106  O1244   0.991   .     S
H1107  O1245   0.989   .     S
H1108  O1246   0.989   .     S
H1109  O1247   0.989   .     S
H1110  O1248   0.989   .     S
H1111  O1135   0.990   .     S
H1112  O1136   0.989   .     S
H1113  O1202   0.987   1_556 S
H1114  O1137   0.989   .     S
H1115  O1138   0.989   .     S
H1116  O1139   0.989   .     S
H1117  O1140   0.989   .     S
H1118  O1141   0.989   .     S
H1119  O1142   0.989   .     S
H1120  O1143   0.989   .     S
H1121  O1144   0.989   .     S
H1122  O1146   0.989   .     S
H1123  O1147   0.989   .     S
H1124  O1203   0.988   1_554 S
H1125  O1148   0.989   .     S
H1126  O1149   0.989   .     S
H1127  O1150   0.989   .     S
H1128  O1151   0.989   .     S
H1129  O1152   0.989   .     S
H1130  O1204   0.988   1_556 S
H1131  O1206   0.987   1_554 S
H1132  O1207   0.987   .     S
O1133  Zn1249  1.945   .     S
O1133  Zn1260  1.944   .     S
O1133  Zn1252  1.944   .     S
O1134  Zn1251  1.941   .     S
O1134  C374    1.280   1_565 S
O1145  Zn1254  1.941   .     S
O1153  Zn1253  1.941   .     S
O1154  Zn1263  1.940   .     S
O1155  Zn1262  1.940   .     S
O1156  Zn1257  1.940   .     S
O1157  Zn1249  1.940   .     S
O1158  Zn1259  1.941   .     S
O1159  Zn1258  1.941   .     S
O1160  Zn1261  1.941   .     S
O1161  Zn1255  1.946   .     S
O1161  Zn1257  1.945   .     S
O1161  Zn1261  1.944   .     S
O1162  Zn1260  1.941   .     S
O1163  Zn1252  1.934   .     S
O1164  Zn1251  1.934   .     S
O1165  Zn1254  1.936   .     S
O1166  Zn1253  1.936   .     S
O1167  Zn1256  1.934   .     S
O1168  Zn1255  1.934   .     S
O1169  Zn1250  1.936   .     S
O1170  Zn1264  1.936   .     S
O1171  Zn1251  1.936   .     S
O1172  Zn1262  1.946   .     S
O1172  Zn1250  1.945   .     S
O1172  Zn1258  1.944   .     S
O1173  Zn1252  1.936   .     S
O1174  Zn1264  1.934   .     S
O1175  Zn1250  1.934   .     S
O1176  Zn1255  1.936   .     S
O1177  Zn1256  1.936   .     S
O1178  Zn1253  1.934   .     S
O1179  Zn1254  1.934   .     S
O1180  Zn943   1.934   1_655 S
O1181  Zn1258  1.934   .     S
O1182  Zn629   1.936   1_565 S
O1183  Zn1253  1.944   .     S
O1183  Zn1259  1.944   .     S
O1183  Zn1263  1.946   .     S
O1184  Zn1260  1.936   .     S
O1185  Zn1263  1.934   .     S
O1186  Zn946   1.934   1_655 S
O1187  Zn1257  1.936   .     S
O1188  Zn617   1.936   1_565 S
O1189  Zn942   1.936   1_655 S
O1190  Zn1259  1.936   .     S
O1191  Zn1249  1.934   .     S
O1192  Zn625   1.934   1_565 S
O1193  Zn1262  1.936   .     S
O1194  C373    1.281   1_565 A
O1194  Zn1256  1.940   .     S
O1195  Zn947   1.936   1_655 S
O1196  Zn628   1.934   1_565 S
O1197  Zn1261  1.934   .     S
O1198  H1069   0.987   1_554 S
O1199  H1080   0.988   1_556 S
O1200  H1091   0.988   1_554 S
O1201  H1102   0.987   1_556 S
O1202  H1113   0.987   1_554 S
O1203  H1124   0.988   1_556 S
O1204  H1130   0.988   1_554 S
O1205  Zn1255  1.940   .     S
O1206  H1131   0.987   1_556 S
O1216  Zn1250  1.940   .     S
O1227  Zn1264  1.940   .     S
O1227  C692    1.281   1_655 S
O1238  Zn1252  1.941   .     S
Zn1251 O529    1.944   1_565 S
Zn1254 O856    1.944   1_655 S
Zn1256 O501    1.946   1_565 S
Zn1264 O867    1.945   1_655 S
