data_str_m1_o10_o18_pcu_sym.30
_audit_creation_date              2020-01-03
_audit_creation_method            'Materials Studio'
_symmetry_space_group_name_H-M    'P1'
_symmetry_Int_Tables_number       1
_symmetry_cell_setting            triclinic
loop_
_symmetry_equiv_pos_as_xyz
  x,y,z
_cell_length_a                    32.7217
_cell_length_b                    32.4969
_cell_length_c                    35.6061
_cell_angle_alpha                 97.9360
_cell_angle_beta                  72.5328
_cell_angle_gamma                 98.6570
loop_
_atom_site_label
_atom_site_type_symbol
_atom_site_fract_x
_atom_site_fract_y
_atom_site_fract_z
_atom_site_U_iso_or_equiv
_atom_site_adp_type
_atom_site_occupancy
C1     C     0.05274   0.16014   0.25874   0.00000  Uiso   1.00
C2     C     0.19857   0.13054   0.45827   0.00000  Uiso   1.00
C3     C     0.21946   0.10976   0.47767   0.00000  Uiso   1.00
C4     C     0.28123   0.17338   0.24100   0.00000  Uiso   1.00
C5     C     0.21605   0.12197   0.01824   0.00000  Uiso   1.00
C6     C     0.18442   0.14870   0.04004   0.00000  Uiso   1.00
C7     C     0.24271   0.10857   0.03806   0.00000  Uiso   1.00
C8     C     0.22834   0.11003   0.07973   0.00000  Uiso   1.00
C9     C     0.18223   0.16243   0.08002   0.00000  Uiso   1.00
C10    C     0.32760   0.17471   0.23670   0.00000  Uiso   1.00
C11    C     0.00716   0.15794   0.26331   0.00000  Uiso   1.00
C12    C     0.08745   0.20168   0.42292   0.00000  Uiso   1.00
C13    C     0.18261   0.32304   0.23867   0.00000  Uiso   1.00
C14    C     0.15173   0.01203   0.26175   0.00000  Uiso   1.00
C15    C     0.15545   0.05624   0.25931   0.00000  Uiso   1.00
C16    C     0.17727   0.27789   0.24139   0.00000  Uiso   1.00
C17    C     0.18817   0.14584   0.14386   0.00000  Uiso   1.00
C18    C     0.14376   0.18641   0.35647   0.00000  Uiso   1.00
C19    C     0.12858   0.18967   0.40032   0.00000  Uiso   1.00
C20    C     0.19836   0.13803   0.10076   0.00000  Uiso   1.00
C21    C     0.07705   0.20595   0.46457   0.00000  Uiso   1.00
C22    C     0.15557   0.17763   0.41971   0.00000  Uiso   1.00
C23    C     0.14233   0.17488   0.46064   0.00000  Uiso   1.00
C24    C     0.10330   0.19057   0.48346   0.00000  Uiso   1.00
C25    C     0.16705   0.15682   0.47947   0.00000  Uiso   1.00
C26    C     0.15629   0.16085   0.02115   0.00000  Uiso   1.00
C27    C     0.11569   0.17304   0.04282   0.00000  Uiso   1.00
C28    C     0.08978   0.18782   0.02443   0.00000  Uiso   1.00
H29    H     0.05871   0.19619   0.04275   0.00000  Uiso   1.00
H30    H     0.19493   0.24673   0.04895   0.00000  Uiso   1.00
H31    H     0.21461   0.06786   0.16622   0.00000  Uiso   1.00
H32    H     0.30013   0.04443   0.41383   0.00000  Uiso   1.00
H33    H     0.04675   0.24158   0.00929   0.00000  Uiso   1.00
H34    H     0.04313   0.25416   0.36245   0.00000  Uiso   1.00
H35    H     0.12254   0.33103   0.28160   0.00000  Uiso   1.00
H36    H     0.18728   0.17029   0.40221   0.00000  Uiso   1.00
H37    H     0.10312   0.17020   0.07420   0.00000  Uiso   1.00
H38    H     0.20311   0.12132   0.42711   0.00000  Uiso   1.00
H39    H     0.02151   0.11684   0.03642   0.00000  Uiso   1.00
H40    H     0.01073   0.20260   0.18830   0.00000  Uiso   1.00
H41    H     0.32772   0.13104   0.31174   0.00000  Uiso   1.00
H42    H     0.23835   0.32210   0.19860   0.00000  Uiso   1.00
O43    O     0.16667   0.16667   0.25000   0.00000  Uiso   1.00
O44    O     0.15693   0.12393   0.16625   0.00000  Uiso   1.00
O45    O     0.12687   0.20646   0.33749   0.00000  Uiso   1.00
O46    O     0.21088   0.17493   0.15877   0.00000  Uiso   1.00
O47    O     0.17198   0.16135   0.33749   0.00000  Uiso   1.00
O48    O     0.30953   0.06401   0.00013   0.00000  Uiso   1.00
O49    O     0.31285   0.13388   0.47981   0.00000  Uiso   1.00
O50    O     0.32699   0.12877   0.04640   0.00000  Uiso   1.00
O51    O     0.02520   0.19272   0.20557   0.00000  Uiso   1.00
O52    O     0.31142   0.14111   0.29606   0.00000  Uiso   1.00
O53    O     0.21857   0.00962   0.21312   0.00000  Uiso   1.00
O54    O     0.17849   0.08101   0.27821   0.00000  Uiso   1.00
O55    O     0.12691   0.21027   0.13335   0.00000  Uiso   1.00
O56    O     0.20341   0.23593   0.11949   0.00000  Uiso   1.00
O57    O     0.16556   0.24359   0.06762   0.00000  Uiso   1.00
O58    O     0.27331   0.04578   0.07843   0.00000  Uiso   1.00
O59    O     0.28009   0.10755   0.12504   0.00000  Uiso   1.00
O60    O     0.20906   0.05659   0.14069   0.00000  Uiso   1.00
O61    O     0.23571   0.03168   0.48136   0.00000  Uiso   1.00
O62    O     0.21321   0.04367   0.42472   0.00000  Uiso   1.00
O63    O     0.29106   0.07226   0.42544   0.00000  Uiso   1.00
O64    O     0.04055   0.22424   0.48606   0.00000  Uiso   1.00
O65    O     0.14581   0.26136   0.26767   0.00000  Uiso   1.00
O66    O     0.04457   0.17404   0.36889   0.00000  Uiso   1.00
O67    O     0.00381   0.21089   0.42975   0.00000  Uiso   1.00
O68    O     0.06213   0.25490   0.37964   0.00000  Uiso   1.00
O69    O     0.07452   0.13251   0.23607   0.00000  Uiso   1.00
O70    O     0.26785   0.19179   0.21806   0.00000  Uiso   1.00
O71    O     0.06990   0.18960   0.27820   0.00000  Uiso   1.00
O72    O     0.25440   0.15277   0.26768   0.00000  Uiso   1.00
O73    O     0.13800   0.06903   0.23607   0.00000  Uiso   1.00
O74    O     0.20437   0.25527   0.21805   0.00000  Uiso   1.00
S75    S     0.29904   0.10798   0.01430   0.00000  Uiso   1.00
S76    S     0.16908   0.21382   0.10138   0.00000  Uiso   1.00
S77    S     0.24963   0.07951   0.10572   0.00000  Uiso   1.00
S78    S     0.23941   0.06253   0.45237   0.00000  Uiso   1.00
S79    S     0.04761   0.20943   0.40031   0.00000  Uiso   1.00
Zn80   Zn    0.19244   0.14090   0.28278   0.00000  Uiso   1.00
Zn81   Zn    0.13459   0.12378   0.22258   0.00000  Uiso   1.00
Zn82   Zn    0.21166   0.19664   0.21188   0.00000  Uiso   1.00
Zn83   Zn    0.12798   0.20535   0.28277   0.00000  Uiso   1.00
C84    C     0.38607   0.16014   0.25874   0.00000  Uiso   1.00
C85    C     0.53190   0.13054   0.45827   0.00000  Uiso   1.00
C86    C     0.55279   0.10976   0.47767   0.00000  Uiso   1.00
C87    C     0.61456   0.17338   0.24100   0.00000  Uiso   1.00
C88    C     0.54938   0.12197   0.01824   0.00000  Uiso   1.00
C89    C     0.51775   0.14870   0.04004   0.00000  Uiso   1.00
C90    C     0.57605   0.10857   0.03806   0.00000  Uiso   1.00
C91    C     0.56167   0.11003   0.07973   0.00000  Uiso   1.00
C92    C     0.51556   0.16243   0.08002   0.00000  Uiso   1.00
C93    C     0.66094   0.17471   0.23670   0.00000  Uiso   1.00
C94    C     0.34050   0.15794   0.26331   0.00000  Uiso   1.00
C95    C     0.42078   0.20168   0.42292   0.00000  Uiso   1.00
C96    C     0.51595   0.32304   0.23867   0.00000  Uiso   1.00
C97    C     0.48506   0.01203   0.26175   0.00000  Uiso   1.00
C98    C     0.48879   0.05624   0.25931   0.00000  Uiso   1.00
C99    C     0.51061   0.27789   0.24139   0.00000  Uiso   1.00
C100   C     0.52150   0.14584   0.14386   0.00000  Uiso   1.00
C101   C     0.47709   0.18641   0.35647   0.00000  Uiso   1.00
C102   C     0.46192   0.18967   0.40032   0.00000  Uiso   1.00
C103   C     0.53169   0.13803   0.10076   0.00000  Uiso   1.00
C104   C     0.41038   0.20595   0.46457   0.00000  Uiso   1.00
C105   C     0.48890   0.17763   0.41971   0.00000  Uiso   1.00
C106   C     0.47566   0.17488   0.46064   0.00000  Uiso   1.00
C107   C     0.43664   0.19057   0.48346   0.00000  Uiso   1.00
C108   C     0.50039   0.15682   0.47947   0.00000  Uiso   1.00
C109   C     0.48962   0.16085   0.02115   0.00000  Uiso   1.00
C110   C     0.44903   0.17304   0.04282   0.00000  Uiso   1.00
C111   C     0.42312   0.18782   0.02443   0.00000  Uiso   1.00
H112   H     0.39204   0.19619   0.04275   0.00000  Uiso   1.00
H113   H     0.52826   0.24673   0.04895   0.00000  Uiso   1.00
H114   H     0.54795   0.06786   0.16622   0.00000  Uiso   1.00
H115   H     0.63346   0.04443   0.41383   0.00000  Uiso   1.00
H116   H     0.38009   0.24158   0.00929   0.00000  Uiso   1.00
H117   H     0.37647   0.25416   0.36245   0.00000  Uiso   1.00
H118   H     0.45588   0.33103   0.28160   0.00000  Uiso   1.00
H119   H     0.52061   0.17029   0.40221   0.00000  Uiso   1.00
H120   H     0.43645   0.17020   0.07420   0.00000  Uiso   1.00
H121   H     0.53644   0.12132   0.42711   0.00000  Uiso   1.00
H122   H     0.35484   0.11684   0.03642   0.00000  Uiso   1.00
H123   H     0.34406   0.20260   0.18830   0.00000  Uiso   1.00
H124   H     0.66106   0.13104   0.31174   0.00000  Uiso   1.00
H125   H     0.57169   0.32210   0.19860   0.00000  Uiso   1.00
O126   O     0.50000   0.16667   0.25000   0.00000  Uiso   1.00
O127   O     0.49027   0.12393   0.16625   0.00000  Uiso   1.00
O128   O     0.46020   0.20646   0.33749   0.00000  Uiso   1.00
O129   O     0.54421   0.17493   0.15877   0.00000  Uiso   1.00
O130   O     0.50532   0.16135   0.33749   0.00000  Uiso   1.00
O131   O     0.64286   0.06401   0.00013   0.00000  Uiso   1.00
O132   O     0.64618   0.13388   0.47981   0.00000  Uiso   1.00
O133   O     0.66033   0.12877   0.04640   0.00000  Uiso   1.00
O134   O     0.35854   0.19272   0.20557   0.00000  Uiso   1.00
O135   O     0.64475   0.14111   0.29606   0.00000  Uiso   1.00
O136   O     0.55190   0.00962   0.21312   0.00000  Uiso   1.00
O137   O     0.51182   0.08101   0.27821   0.00000  Uiso   1.00
O138   O     0.46024   0.21027   0.13335   0.00000  Uiso   1.00
O139   O     0.53675   0.23593   0.11949   0.00000  Uiso   1.00
O140   O     0.49890   0.24359   0.06762   0.00000  Uiso   1.00
O141   O     0.60665   0.04578   0.07843   0.00000  Uiso   1.00
O142   O     0.61342   0.10755   0.12504   0.00000  Uiso   1.00
O143   O     0.54239   0.05659   0.14069   0.00000  Uiso   1.00
O144   O     0.56904   0.03168   0.48136   0.00000  Uiso   1.00
O145   O     0.54655   0.04367   0.42472   0.00000  Uiso   1.00
O146   O     0.62440   0.07226   0.42544   0.00000  Uiso   1.00
O147   O     0.37388   0.22424   0.48606   0.00000  Uiso   1.00
O148   O     0.47914   0.26136   0.26767   0.00000  Uiso   1.00
O149   O     0.37790   0.17404   0.36889   0.00000  Uiso   1.00
O150   O     0.33715   0.21089   0.42975   0.00000  Uiso   1.00
O151   O     0.39546   0.25490   0.37964   0.00000  Uiso   1.00
O152   O     0.40785   0.13251   0.23607   0.00000  Uiso   1.00
O153   O     0.60119   0.19179   0.21806   0.00000  Uiso   1.00
O154   O     0.40323   0.18960   0.27820   0.00000  Uiso   1.00
O155   O     0.58773   0.15277   0.26768   0.00000  Uiso   1.00
O156   O     0.47133   0.06903   0.23607   0.00000  Uiso   1.00
O157   O     0.53771   0.25527   0.21805   0.00000  Uiso   1.00
S158   S     0.63237   0.10798   0.01430   0.00000  Uiso   1.00
S159   S     0.50241   0.21382   0.10138   0.00000  Uiso   1.00
S160   S     0.58296   0.07951   0.10572   0.00000  Uiso   1.00
S161   S     0.57274   0.06253   0.45237   0.00000  Uiso   1.00
S162   S     0.38094   0.20943   0.40031   0.00000  Uiso   1.00
Zn163  Zn    0.52577   0.14090   0.28278   0.00000  Uiso   1.00
Zn164  Zn    0.46792   0.12378   0.22258   0.00000  Uiso   1.00
Zn165  Zn    0.54500   0.19664   0.21188   0.00000  Uiso   1.00
Zn166  Zn    0.46131   0.20535   0.28277   0.00000  Uiso   1.00
C167   C     0.71940   0.16014   0.25874   0.00000  Uiso   1.00
C168   C     0.86523   0.13054   0.45827   0.00000  Uiso   1.00
C169   C     0.88613   0.10976   0.47767   0.00000  Uiso   1.00
C170   C     0.94790   0.17338   0.24100   0.00000  Uiso   1.00
C171   C     0.88271   0.12197   0.01824   0.00000  Uiso   1.00
C172   C     0.85108   0.14870   0.04004   0.00000  Uiso   1.00
C173   C     0.90938   0.10857   0.03806   0.00000  Uiso   1.00
C174   C     0.89500   0.11003   0.07973   0.00000  Uiso   1.00
C175   C     0.84889   0.16243   0.08002   0.00000  Uiso   1.00
C176   C     0.99427   0.17471   0.23670   0.00000  Uiso   1.00
C177   C     0.67383   0.15794   0.26331   0.00000  Uiso   1.00
C178   C     0.75411   0.20168   0.42292   0.00000  Uiso   1.00
C179   C     0.84928   0.32304   0.23867   0.00000  Uiso   1.00
C180   C     0.81840   0.01203   0.26175   0.00000  Uiso   1.00
C181   C     0.82212   0.05624   0.25931   0.00000  Uiso   1.00
C182   C     0.84394   0.27789   0.24139   0.00000  Uiso   1.00
C183   C     0.85483   0.14584   0.14386   0.00000  Uiso   1.00
C184   C     0.81042   0.18641   0.35647   0.00000  Uiso   1.00
C185   C     0.79525   0.18967   0.40032   0.00000  Uiso   1.00
C186   C     0.86502   0.13803   0.10076   0.00000  Uiso   1.00
C187   C     0.74372   0.20595   0.46457   0.00000  Uiso   1.00
C188   C     0.82223   0.17763   0.41971   0.00000  Uiso   1.00
C189   C     0.80899   0.17488   0.46064   0.00000  Uiso   1.00
C190   C     0.76997   0.19057   0.48346   0.00000  Uiso   1.00
C191   C     0.83372   0.15682   0.47947   0.00000  Uiso   1.00
C192   C     0.82296   0.16085   0.02115   0.00000  Uiso   1.00
C193   C     0.78236   0.17304   0.04282   0.00000  Uiso   1.00
C194   C     0.75645   0.18782   0.02443   0.00000  Uiso   1.00
H195   H     0.72538   0.19619   0.04275   0.00000  Uiso   1.00
H196   H     0.86160   0.24673   0.04895   0.00000  Uiso   1.00
H197   H     0.88128   0.06786   0.16622   0.00000  Uiso   1.00
H198   H     0.96680   0.04443   0.41383   0.00000  Uiso   1.00
H199   H     0.71342   0.24158   0.00929   0.00000  Uiso   1.00
H200   H     0.70980   0.25416   0.36245   0.00000  Uiso   1.00
H201   H     0.78921   0.33103   0.28160   0.00000  Uiso   1.00
H202   H     0.85395   0.17029   0.40221   0.00000  Uiso   1.00
H203   H     0.76979   0.17020   0.07420   0.00000  Uiso   1.00
H204   H     0.86977   0.12132   0.42711   0.00000  Uiso   1.00
H205   H     0.68818   0.11684   0.03642   0.00000  Uiso   1.00
H206   H     0.67740   0.20260   0.18830   0.00000  Uiso   1.00
H207   H     0.99439   0.13104   0.31174   0.00000  Uiso   1.00
H208   H     0.90502   0.32210   0.19860   0.00000  Uiso   1.00
O209   O     0.83333   0.16667   0.25000   0.00000  Uiso   1.00
O210   O     0.82360   0.12393   0.16625   0.00000  Uiso   1.00
O211   O     0.79354   0.20646   0.33749   0.00000  Uiso   1.00
O212   O     0.87755   0.17493   0.15877   0.00000  Uiso   1.00
O213   O     0.83865   0.16135   0.33749   0.00000  Uiso   1.00
O214   O     0.97620   0.06401   0.00013   0.00000  Uiso   1.00
O215   O     0.97951   0.13388   0.47981   0.00000  Uiso   1.00
O216   O     0.99366   0.12877   0.04640   0.00000  Uiso   1.00
O217   O     0.69187   0.19272   0.20557   0.00000  Uiso   1.00
O218   O     0.97808   0.14111   0.29606   0.00000  Uiso   1.00
O219   O     0.88524   0.00962   0.21312   0.00000  Uiso   1.00
O220   O     0.84515   0.08101   0.27821   0.00000  Uiso   1.00
O221   O     0.79357   0.21027   0.13335   0.00000  Uiso   1.00
O222   O     0.87008   0.23593   0.11949   0.00000  Uiso   1.00
O223   O     0.83223   0.24359   0.06762   0.00000  Uiso   1.00
O224   O     0.93998   0.04578   0.07843   0.00000  Uiso   1.00
O225   O     0.94676   0.10755   0.12504   0.00000  Uiso   1.00
O226   O     0.87572   0.05659   0.14069   0.00000  Uiso   1.00
O227   O     0.90237   0.03168   0.48136   0.00000  Uiso   1.00
O228   O     0.87988   0.04367   0.42472   0.00000  Uiso   1.00
O229   O     0.95773   0.07226   0.42544   0.00000  Uiso   1.00
O230   O     0.70721   0.22424   0.48606   0.00000  Uiso   1.00
O231   O     0.81247   0.26136   0.26767   0.00000  Uiso   1.00
O232   O     0.71123   0.17404   0.36889   0.00000  Uiso   1.00
O233   O     0.67048   0.21089   0.42975   0.00000  Uiso   1.00
O234   O     0.72879   0.25490   0.37964   0.00000  Uiso   1.00
O235   O     0.74119   0.13251   0.23607   0.00000  Uiso   1.00
O236   O     0.93452   0.19179   0.21806   0.00000  Uiso   1.00
O237   O     0.73656   0.18960   0.27820   0.00000  Uiso   1.00
O238   O     0.92106   0.15277   0.26768   0.00000  Uiso   1.00
O239   O     0.80467   0.06903   0.23607   0.00000  Uiso   1.00
O240   O     0.87104   0.25527   0.21805   0.00000  Uiso   1.00
S241   S     0.96570   0.10798   0.01430   0.00000  Uiso   1.00
S242   S     0.83575   0.21382   0.10138   0.00000  Uiso   1.00
S243   S     0.91629   0.07951   0.10572   0.00000  Uiso   1.00
S244   S     0.90607   0.06253   0.45237   0.00000  Uiso   1.00
S245   S     0.71428   0.20943   0.40031   0.00000  Uiso   1.00
Zn246  Zn    0.85910   0.14090   0.28278   0.00000  Uiso   1.00
Zn247  Zn    0.80125   0.12378   0.22258   0.00000  Uiso   1.00
Zn248  Zn    0.87833   0.19664   0.21188   0.00000  Uiso   1.00
Zn249  Zn    0.79465   0.20535   0.28277   0.00000  Uiso   1.00
C250   C     0.05274   0.49347   0.25874   0.00000  Uiso   1.00
C251   C     0.19857   0.46388   0.45827   0.00000  Uiso   1.00
C252   C     0.21946   0.44309   0.47767   0.00000  Uiso   1.00
C253   C     0.28123   0.50671   0.24100   0.00000  Uiso   1.00
C254   C     0.21605   0.45531   0.01824   0.00000  Uiso   1.00
C255   C     0.18442   0.48204   0.04004   0.00000  Uiso   1.00
C256   C     0.24271   0.44190   0.03806   0.00000  Uiso   1.00
C257   C     0.22834   0.44336   0.07973   0.00000  Uiso   1.00
C258   C     0.18223   0.49576   0.08002   0.00000  Uiso   1.00
C259   C     0.32760   0.50804   0.23670   0.00000  Uiso   1.00
C260   C     0.00716   0.49128   0.26331   0.00000  Uiso   1.00
C261   C     0.08745   0.53501   0.42292   0.00000  Uiso   1.00
C262   C     0.18261   0.65637   0.23867   0.00000  Uiso   1.00
C263   C     0.15173   0.34536   0.26175   0.00000  Uiso   1.00
C264   C     0.15545   0.38957   0.25931   0.00000  Uiso   1.00
C265   C     0.17727   0.61123   0.24139   0.00000  Uiso   1.00
C266   C     0.18817   0.47917   0.14386   0.00000  Uiso   1.00
C267   C     0.14376   0.51974   0.35647   0.00000  Uiso   1.00
C268   C     0.12858   0.52300   0.40032   0.00000  Uiso   1.00
C269   C     0.19836   0.47136   0.10076   0.00000  Uiso   1.00
C270   C     0.07705   0.53928   0.46457   0.00000  Uiso   1.00
C271   C     0.15557   0.51096   0.41971   0.00000  Uiso   1.00
C272   C     0.14233   0.50821   0.46064   0.00000  Uiso   1.00
C273   C     0.10330   0.52391   0.48346   0.00000  Uiso   1.00
C274   C     0.16705   0.49016   0.47947   0.00000  Uiso   1.00
C275   C     0.15629   0.49418   0.02115   0.00000  Uiso   1.00
C276   C     0.11569   0.50638   0.04282   0.00000  Uiso   1.00
C277   C     0.08978   0.52115   0.02443   0.00000  Uiso   1.00
H278   H     0.05871   0.52953   0.04275   0.00000  Uiso   1.00
H279   H     0.19493   0.58007   0.04895   0.00000  Uiso   1.00
H280   H     0.21461   0.40120   0.16622   0.00000  Uiso   1.00
H281   H     0.30013   0.37776   0.41383   0.00000  Uiso   1.00
H282   H     0.04675   0.57491   0.00929   0.00000  Uiso   1.00
H283   H     0.04313   0.58750   0.36245   0.00000  Uiso   1.00
H284   H     0.12254   0.66437   0.28160   0.00000  Uiso   1.00
H285   H     0.18728   0.50363   0.40221   0.00000  Uiso   1.00
H286   H     0.10312   0.50353   0.07420   0.00000  Uiso   1.00
H287   H     0.20311   0.45466   0.42711   0.00000  Uiso   1.00
H288   H     0.02151   0.45018   0.03642   0.00000  Uiso   1.00
H289   H     0.01073   0.53594   0.18830   0.00000  Uiso   1.00
H290   H     0.32772   0.46438   0.31174   0.00000  Uiso   1.00
H291   H     0.23835   0.65543   0.19860   0.00000  Uiso   1.00
O292   O     0.16667   0.50000   0.25000   0.00000  Uiso   1.00
O293   O     0.15693   0.45726   0.16625   0.00000  Uiso   1.00
O294   O     0.12687   0.53979   0.33749   0.00000  Uiso   1.00
O295   O     0.21088   0.50826   0.15877   0.00000  Uiso   1.00
O296   O     0.17198   0.49468   0.33749   0.00000  Uiso   1.00
O297   O     0.30953   0.39735   0.00013   0.00000  Uiso   1.00
O298   O     0.31285   0.46721   0.47981   0.00000  Uiso   1.00
O299   O     0.32699   0.46211   0.04640   0.00000  Uiso   1.00
O300   O     0.02520   0.52606   0.20557   0.00000  Uiso   1.00
O301   O     0.31142   0.47444   0.29606   0.00000  Uiso   1.00
O302   O     0.21857   0.34295   0.21312   0.00000  Uiso   1.00
O303   O     0.17849   0.41434   0.27821   0.00000  Uiso   1.00
O304   O     0.12691   0.54360   0.13335   0.00000  Uiso   1.00
O305   O     0.20341   0.56926   0.11949   0.00000  Uiso   1.00
O306   O     0.16556   0.57692   0.06762   0.00000  Uiso   1.00
O307   O     0.27331   0.37912   0.07843   0.00000  Uiso   1.00
O308   O     0.28009   0.44088   0.12504   0.00000  Uiso   1.00
O309   O     0.20906   0.38993   0.14069   0.00000  Uiso   1.00
O310   O     0.23571   0.36501   0.48136   0.00000  Uiso   1.00
O311   O     0.21321   0.37700   0.42472   0.00000  Uiso   1.00
O312   O     0.29106   0.40560   0.42544   0.00000  Uiso   1.00
O313   O     0.04055   0.55757   0.48606   0.00000  Uiso   1.00
O314   O     0.14581   0.59469   0.26767   0.00000  Uiso   1.00
O315   O     0.04457   0.50737   0.36889   0.00000  Uiso   1.00
O316   O     0.00381   0.54422   0.42975   0.00000  Uiso   1.00
O317   O     0.06213   0.58823   0.37964   0.00000  Uiso   1.00
O318   O     0.07452   0.46584   0.23607   0.00000  Uiso   1.00
O319   O     0.26785   0.52512   0.21806   0.00000  Uiso   1.00
O320   O     0.06990   0.52293   0.27820   0.00000  Uiso   1.00
O321   O     0.25440   0.48610   0.26768   0.00000  Uiso   1.00
O322   O     0.13800   0.40236   0.23607   0.00000  Uiso   1.00
O323   O     0.20437   0.58860   0.21805   0.00000  Uiso   1.00
S324   S     0.29904   0.44132   0.01430   0.00000  Uiso   1.00
S325   S     0.16908   0.54715   0.10138   0.00000  Uiso   1.00
S326   S     0.24963   0.41284   0.10572   0.00000  Uiso   1.00
S327   S     0.23941   0.39586   0.45237   0.00000  Uiso   1.00
S328   S     0.04761   0.54276   0.40031   0.00000  Uiso   1.00
Zn329  Zn    0.19244   0.47423   0.28278   0.00000  Uiso   1.00
Zn330  Zn    0.13459   0.45711   0.22258   0.00000  Uiso   1.00
Zn331  Zn    0.21166   0.52997   0.21188   0.00000  Uiso   1.00
Zn332  Zn    0.12798   0.53868   0.28277   0.00000  Uiso   1.00
C333   C     0.38607   0.49347   0.25874   0.00000  Uiso   1.00
C334   C     0.53190   0.46388   0.45827   0.00000  Uiso   1.00
C335   C     0.55279   0.44309   0.47767   0.00000  Uiso   1.00
C336   C     0.61456   0.50671   0.24100   0.00000  Uiso   1.00
C337   C     0.54938   0.45531   0.01824   0.00000  Uiso   1.00
C338   C     0.51775   0.48204   0.04004   0.00000  Uiso   1.00
C339   C     0.57605   0.44190   0.03806   0.00000  Uiso   1.00
C340   C     0.56167   0.44336   0.07973   0.00000  Uiso   1.00
C341   C     0.51556   0.49576   0.08002   0.00000  Uiso   1.00
C342   C     0.66094   0.50804   0.23670   0.00000  Uiso   1.00
C343   C     0.34050   0.49128   0.26331   0.00000  Uiso   1.00
C344   C     0.42078   0.53501   0.42292   0.00000  Uiso   1.00
C345   C     0.51595   0.65637   0.23867   0.00000  Uiso   1.00
C346   C     0.48506   0.34536   0.26175   0.00000  Uiso   1.00
C347   C     0.48879   0.38957   0.25931   0.00000  Uiso   1.00
C348   C     0.51061   0.61123   0.24139   0.00000  Uiso   1.00
C349   C     0.52150   0.47917   0.14386   0.00000  Uiso   1.00
C350   C     0.47709   0.51974   0.35647   0.00000  Uiso   1.00
C351   C     0.46192   0.52300   0.40032   0.00000  Uiso   1.00
C352   C     0.53169   0.47136   0.10076   0.00000  Uiso   1.00
C353   C     0.41038   0.53928   0.46457   0.00000  Uiso   1.00
C354   C     0.48890   0.51096   0.41971   0.00000  Uiso   1.00
C355   C     0.47566   0.50821   0.46064   0.00000  Uiso   1.00
C356   C     0.43664   0.52391   0.48346   0.00000  Uiso   1.00
C357   C     0.50039   0.49016   0.47947   0.00000  Uiso   1.00
C358   C     0.48962   0.49418   0.02115   0.00000  Uiso   1.00
C359   C     0.44903   0.50638   0.04282   0.00000  Uiso   1.00
C360   C     0.42312   0.52115   0.02443   0.00000  Uiso   1.00
H361   H     0.39204   0.52953   0.04275   0.00000  Uiso   1.00
H362   H     0.52826   0.58007   0.04895   0.00000  Uiso   1.00
H363   H     0.54795   0.40120   0.16622   0.00000  Uiso   1.00
H364   H     0.63346   0.37776   0.41383   0.00000  Uiso   1.00
H365   H     0.38009   0.57491   0.00929   0.00000  Uiso   1.00
H366   H     0.37647   0.58750   0.36245   0.00000  Uiso   1.00
H367   H     0.45588   0.66437   0.28160   0.00000  Uiso   1.00
H368   H     0.52061   0.50363   0.40221   0.00000  Uiso   1.00
H369   H     0.43645   0.50353   0.07420   0.00000  Uiso   1.00
H370   H     0.53644   0.45466   0.42711   0.00000  Uiso   1.00
H371   H     0.35484   0.45018   0.03642   0.00000  Uiso   1.00
H372   H     0.34406   0.53594   0.18830   0.00000  Uiso   1.00
H373   H     0.66106   0.46438   0.31174   0.00000  Uiso   1.00
H374   H     0.57169   0.65543   0.19860   0.00000  Uiso   1.00
O375   O     0.50000   0.50000   0.25000   0.00000  Uiso   1.00
O376   O     0.49027   0.45726   0.16625   0.00000  Uiso   1.00
O377   O     0.46020   0.53979   0.33749   0.00000  Uiso   1.00
O378   O     0.54421   0.50826   0.15877   0.00000  Uiso   1.00
O379   O     0.50532   0.49468   0.33749   0.00000  Uiso   1.00
O380   O     0.64286   0.39735   0.00013   0.00000  Uiso   1.00
O381   O     0.64618   0.46721   0.47981   0.00000  Uiso   1.00
O382   O     0.66033   0.46211   0.04640   0.00000  Uiso   1.00
O383   O     0.35854   0.52606   0.20557   0.00000  Uiso   1.00
O384   O     0.64475   0.47444   0.29606   0.00000  Uiso   1.00
O385   O     0.55190   0.34295   0.21312   0.00000  Uiso   1.00
O386   O     0.51182   0.41434   0.27821   0.00000  Uiso   1.00
O387   O     0.46024   0.54360   0.13335   0.00000  Uiso   1.00
O388   O     0.53675   0.56926   0.11949   0.00000  Uiso   1.00
O389   O     0.49890   0.57692   0.06762   0.00000  Uiso   1.00
O390   O     0.60665   0.37912   0.07843   0.00000  Uiso   1.00
O391   O     0.61342   0.44088   0.12504   0.00000  Uiso   1.00
O392   O     0.54239   0.38993   0.14069   0.00000  Uiso   1.00
O393   O     0.56904   0.36501   0.48136   0.00000  Uiso   1.00
O394   O     0.54655   0.37700   0.42472   0.00000  Uiso   1.00
O395   O     0.62440   0.40560   0.42544   0.00000  Uiso   1.00
O396   O     0.37388   0.55757   0.48606   0.00000  Uiso   1.00
O397   O     0.47914   0.59469   0.26767   0.00000  Uiso   1.00
O398   O     0.37790   0.50737   0.36889   0.00000  Uiso   1.00
O399   O     0.33715   0.54422   0.42975   0.00000  Uiso   1.00
O400   O     0.39546   0.58823   0.37964   0.00000  Uiso   1.00
O401   O     0.40785   0.46584   0.23607   0.00000  Uiso   1.00
O402   O     0.60119   0.52512   0.21806   0.00000  Uiso   1.00
O403   O     0.40323   0.52293   0.27820   0.00000  Uiso   1.00
O404   O     0.58773   0.48610   0.26768   0.00000  Uiso   1.00
O405   O     0.47133   0.40236   0.23607   0.00000  Uiso   1.00
O406   O     0.53771   0.58860   0.21805   0.00000  Uiso   1.00
S407   S     0.63237   0.44132   0.01430   0.00000  Uiso   1.00
S408   S     0.50241   0.54715   0.10138   0.00000  Uiso   1.00
S409   S     0.58296   0.41284   0.10572   0.00000  Uiso   1.00
S410   S     0.57274   0.39586   0.45237   0.00000  Uiso   1.00
S411   S     0.38094   0.54276   0.40031   0.00000  Uiso   1.00
Zn412  Zn    0.52577   0.47423   0.28278   0.00000  Uiso   1.00
Zn413  Zn    0.46792   0.45711   0.22258   0.00000  Uiso   1.00
Zn414  Zn    0.54500   0.52997   0.21188   0.00000  Uiso   1.00
Zn415  Zn    0.46131   0.53868   0.28277   0.00000  Uiso   1.00
C416   C     0.71940   0.49347   0.25874   0.00000  Uiso   1.00
C417   C     0.86523   0.46388   0.45827   0.00000  Uiso   1.00
C418   C     0.88613   0.44309   0.47767   0.00000  Uiso   1.00
C419   C     0.94790   0.50671   0.24100   0.00000  Uiso   1.00
C420   C     0.88271   0.45531   0.01824   0.00000  Uiso   1.00
C421   C     0.85108   0.48204   0.04004   0.00000  Uiso   1.00
C422   C     0.90938   0.44190   0.03806   0.00000  Uiso   1.00
C423   C     0.89500   0.44336   0.07973   0.00000  Uiso   1.00
C424   C     0.84889   0.49576   0.08002   0.00000  Uiso   1.00
C425   C     0.99427   0.50804   0.23670   0.00000  Uiso   1.00
C426   C     0.67383   0.49128   0.26331   0.00000  Uiso   1.00
C427   C     0.75411   0.53501   0.42292   0.00000  Uiso   1.00
C428   C     0.84928   0.65637   0.23867   0.00000  Uiso   1.00
C429   C     0.81840   0.34536   0.26175   0.00000  Uiso   1.00
C430   C     0.82212   0.38957   0.25931   0.00000  Uiso   1.00
C431   C     0.84394   0.61123   0.24139   0.00000  Uiso   1.00
C432   C     0.85483   0.47917   0.14386   0.00000  Uiso   1.00
C433   C     0.81042   0.51974   0.35647   0.00000  Uiso   1.00
C434   C     0.79525   0.52300   0.40032   0.00000  Uiso   1.00
C435   C     0.86502   0.47136   0.10076   0.00000  Uiso   1.00
C436   C     0.74372   0.53928   0.46457   0.00000  Uiso   1.00
C437   C     0.82223   0.51096   0.41971   0.00000  Uiso   1.00
C438   C     0.80899   0.50821   0.46064   0.00000  Uiso   1.00
C439   C     0.76997   0.52391   0.48346   0.00000  Uiso   1.00
C440   C     0.83372   0.49016   0.47947   0.00000  Uiso   1.00
C441   C     0.82296   0.49418   0.02115   0.00000  Uiso   1.00
C442   C     0.78236   0.50638   0.04282   0.00000  Uiso   1.00
C443   C     0.75645   0.52115   0.02443   0.00000  Uiso   1.00
H444   H     0.72538   0.52953   0.04275   0.00000  Uiso   1.00
H445   H     0.86160   0.58007   0.04895   0.00000  Uiso   1.00
H446   H     0.88128   0.40120   0.16622   0.00000  Uiso   1.00
H447   H     0.96680   0.37776   0.41383   0.00000  Uiso   1.00
H448   H     0.71342   0.57491   0.00929   0.00000  Uiso   1.00
H449   H     0.70980   0.58750   0.36245   0.00000  Uiso   1.00
H450   H     0.78921   0.66437   0.28160   0.00000  Uiso   1.00
H451   H     0.85395   0.50363   0.40221   0.00000  Uiso   1.00
H452   H     0.76979   0.50353   0.07420   0.00000  Uiso   1.00
H453   H     0.86977   0.45466   0.42711   0.00000  Uiso   1.00
H454   H     0.68818   0.45018   0.03642   0.00000  Uiso   1.00
H455   H     0.67740   0.53594   0.18830   0.00000  Uiso   1.00
H456   H     0.99439   0.46438   0.31174   0.00000  Uiso   1.00
H457   H     0.90502   0.65543   0.19860   0.00000  Uiso   1.00
O458   O     0.83333   0.50000   0.25000   0.00000  Uiso   1.00
O459   O     0.82360   0.45726   0.16625   0.00000  Uiso   1.00
O460   O     0.79354   0.53979   0.33749   0.00000  Uiso   1.00
O461   O     0.87755   0.50826   0.15877   0.00000  Uiso   1.00
O462   O     0.83865   0.49468   0.33749   0.00000  Uiso   1.00
O463   O     0.97620   0.39735   0.00013   0.00000  Uiso   1.00
O464   O     0.97951   0.46721   0.47981   0.00000  Uiso   1.00
O465   O     0.99366   0.46211   0.04640   0.00000  Uiso   1.00
O466   O     0.69187   0.52606   0.20557   0.00000  Uiso   1.00
O467   O     0.97808   0.47444   0.29606   0.00000  Uiso   1.00
O468   O     0.88524   0.34295   0.21312   0.00000  Uiso   1.00
O469   O     0.84515   0.41434   0.27821   0.00000  Uiso   1.00
O470   O     0.79357   0.54360   0.13335   0.00000  Uiso   1.00
O471   O     0.87008   0.56926   0.11949   0.00000  Uiso   1.00
O472   O     0.83223   0.57692   0.06762   0.00000  Uiso   1.00
O473   O     0.93998   0.37912   0.07843   0.00000  Uiso   1.00
O474   O     0.94676   0.44088   0.12504   0.00000  Uiso   1.00
O475   O     0.87572   0.38993   0.14069   0.00000  Uiso   1.00
O476   O     0.90237   0.36501   0.48136   0.00000  Uiso   1.00
O477   O     0.87988   0.37700   0.42472   0.00000  Uiso   1.00
O478   O     0.95773   0.40560   0.42544   0.00000  Uiso   1.00
O479   O     0.70721   0.55757   0.48606   0.00000  Uiso   1.00
O480   O     0.81247   0.59469   0.26767   0.00000  Uiso   1.00
O481   O     0.71123   0.50737   0.36889   0.00000  Uiso   1.00
O482   O     0.67048   0.54422   0.42975   0.00000  Uiso   1.00
O483   O     0.72879   0.58823   0.37964   0.00000  Uiso   1.00
O484   O     0.74119   0.46584   0.23607   0.00000  Uiso   1.00
O485   O     0.93452   0.52512   0.21806   0.00000  Uiso   1.00
O486   O     0.73656   0.52293   0.27820   0.00000  Uiso   1.00
O487   O     0.92106   0.48610   0.26768   0.00000  Uiso   1.00
O488   O     0.80467   0.40236   0.23607   0.00000  Uiso   1.00
O489   O     0.87104   0.58860   0.21805   0.00000  Uiso   1.00
S490   S     0.96570   0.44132   0.01430   0.00000  Uiso   1.00
S491   S     0.83575   0.54715   0.10138   0.00000  Uiso   1.00
S492   S     0.91629   0.41284   0.10572   0.00000  Uiso   1.00
S493   S     0.90607   0.39586   0.45237   0.00000  Uiso   1.00
S494   S     0.71428   0.54276   0.40031   0.00000  Uiso   1.00
Zn495  Zn    0.85910   0.47423   0.28278   0.00000  Uiso   1.00
Zn496  Zn    0.80125   0.45711   0.22258   0.00000  Uiso   1.00
Zn497  Zn    0.87833   0.52997   0.21188   0.00000  Uiso   1.00
Zn498  Zn    0.79465   0.53868   0.28277   0.00000  Uiso   1.00
C499   C     0.05274   0.82680   0.25874   0.00000  Uiso   1.00
C500   C     0.19857   0.79721   0.45827   0.00000  Uiso   1.00
C501   C     0.21946   0.77642   0.47767   0.00000  Uiso   1.00
C502   C     0.28123   0.84005   0.24100   0.00000  Uiso   1.00
C503   C     0.21605   0.78864   0.01824   0.00000  Uiso   1.00
C504   C     0.18442   0.81537   0.04004   0.00000  Uiso   1.00
C505   C     0.24271   0.77523   0.03806   0.00000  Uiso   1.00
C506   C     0.22834   0.77669   0.07973   0.00000  Uiso   1.00
C507   C     0.18223   0.82910   0.08002   0.00000  Uiso   1.00
C508   C     0.32760   0.84138   0.23670   0.00000  Uiso   1.00
C509   C     0.00716   0.82461   0.26331   0.00000  Uiso   1.00
C510   C     0.08745   0.86834   0.42292   0.00000  Uiso   1.00
C511   C     0.18261   0.98970   0.23867   0.00000  Uiso   1.00
C512   C     0.15173   0.67870   0.26175   0.00000  Uiso   1.00
C513   C     0.15545   0.72291   0.25931   0.00000  Uiso   1.00
C514   C     0.17727   0.94456   0.24139   0.00000  Uiso   1.00
C515   C     0.18817   0.81251   0.14386   0.00000  Uiso   1.00
C516   C     0.14376   0.85308   0.35647   0.00000  Uiso   1.00
C517   C     0.12858   0.85634   0.40032   0.00000  Uiso   1.00
C518   C     0.19836   0.80470   0.10076   0.00000  Uiso   1.00
C519   C     0.07705   0.87262   0.46457   0.00000  Uiso   1.00
C520   C     0.15557   0.84430   0.41971   0.00000  Uiso   1.00
C521   C     0.14233   0.84155   0.46064   0.00000  Uiso   1.00
C522   C     0.10330   0.85724   0.48346   0.00000  Uiso   1.00
C523   C     0.16705   0.82349   0.47947   0.00000  Uiso   1.00
C524   C     0.15629   0.82752   0.02115   0.00000  Uiso   1.00
C525   C     0.11569   0.83971   0.04282   0.00000  Uiso   1.00
C526   C     0.08978   0.85449   0.02443   0.00000  Uiso   1.00
H527   H     0.05871   0.86286   0.04275   0.00000  Uiso   1.00
H528   H     0.19493   0.91340   0.04895   0.00000  Uiso   1.00
H529   H     0.21461   0.73453   0.16622   0.00000  Uiso   1.00
H530   H     0.30013   0.71110   0.41383   0.00000  Uiso   1.00
H531   H     0.04675   0.90824   0.00929   0.00000  Uiso   1.00
H532   H     0.04313   0.92083   0.36245   0.00000  Uiso   1.00
H533   H     0.12254   0.99770   0.28160   0.00000  Uiso   1.00
H534   H     0.18728   0.83696   0.40221   0.00000  Uiso   1.00
H535   H     0.10312   0.83687   0.07420   0.00000  Uiso   1.00
H536   H     0.20311   0.78799   0.42711   0.00000  Uiso   1.00
H537   H     0.02151   0.78351   0.03642   0.00000  Uiso   1.00
H538   H     0.01073   0.86927   0.18830   0.00000  Uiso   1.00
H539   H     0.32772   0.79771   0.31174   0.00000  Uiso   1.00
H540   H     0.23835   0.98876   0.19860   0.00000  Uiso   1.00
O541   O     0.16667   0.83333   0.25000   0.00000  Uiso   1.00
O542   O     0.15693   0.79060   0.16625   0.00000  Uiso   1.00
O543   O     0.12687   0.87313   0.33749   0.00000  Uiso   1.00
O544   O     0.21088   0.84159   0.15877   0.00000  Uiso   1.00
O545   O     0.17198   0.82802   0.33749   0.00000  Uiso   1.00
O546   O     0.30953   0.73068   0.00013   0.00000  Uiso   1.00
O547   O     0.31285   0.80055   0.47981   0.00000  Uiso   1.00
O548   O     0.32699   0.79544   0.04640   0.00000  Uiso   1.00
O549   O     0.02520   0.85939   0.20557   0.00000  Uiso   1.00
O550   O     0.31142   0.80777   0.29606   0.00000  Uiso   1.00
O551   O     0.21857   0.67628   0.21312   0.00000  Uiso   1.00
O552   O     0.17849   0.74768   0.27821   0.00000  Uiso   1.00
O553   O     0.12691   0.87694   0.13335   0.00000  Uiso   1.00
O554   O     0.20341   0.90259   0.11949   0.00000  Uiso   1.00
O555   O     0.16556   0.91026   0.06762   0.00000  Uiso   1.00
O556   O     0.27331   0.71245   0.07843   0.00000  Uiso   1.00
O557   O     0.28009   0.77422   0.12504   0.00000  Uiso   1.00
O558   O     0.20906   0.72326   0.14069   0.00000  Uiso   1.00
O559   O     0.23571   0.69834   0.48136   0.00000  Uiso   1.00
O560   O     0.21321   0.71034   0.42472   0.00000  Uiso   1.00
O561   O     0.29106   0.73893   0.42544   0.00000  Uiso   1.00
O562   O     0.04055   0.89091   0.48606   0.00000  Uiso   1.00
O563   O     0.14581   0.92803   0.26767   0.00000  Uiso   1.00
O564   O     0.04457   0.84070   0.36889   0.00000  Uiso   1.00
O565   O     0.00381   0.87756   0.42975   0.00000  Uiso   1.00
O566   O     0.06213   0.92156   0.37964   0.00000  Uiso   1.00
O567   O     0.07452   0.79917   0.23607   0.00000  Uiso   1.00
O568   O     0.26785   0.85845   0.21806   0.00000  Uiso   1.00
O569   O     0.06990   0.85627   0.27820   0.00000  Uiso   1.00
O570   O     0.25440   0.81944   0.26768   0.00000  Uiso   1.00
O571   O     0.13800   0.73570   0.23607   0.00000  Uiso   1.00
O572   O     0.20437   0.92193   0.21805   0.00000  Uiso   1.00
S573   S     0.29904   0.77465   0.01430   0.00000  Uiso   1.00
S574   S     0.16908   0.88049   0.10138   0.00000  Uiso   1.00
S575   S     0.24963   0.74618   0.10572   0.00000  Uiso   1.00
S576   S     0.23941   0.72919   0.45237   0.00000  Uiso   1.00
S577   S     0.04761   0.87610   0.40031   0.00000  Uiso   1.00
Zn578  Zn    0.19244   0.80756   0.28278   0.00000  Uiso   1.00
Zn579  Zn    0.13459   0.79044   0.22258   0.00000  Uiso   1.00
Zn580  Zn    0.21166   0.86331   0.21188   0.00000  Uiso   1.00
Zn581  Zn    0.12798   0.87202   0.28277   0.00000  Uiso   1.00
C582   C     0.38607   0.82680   0.25874   0.00000  Uiso   1.00
C583   C     0.53190   0.79721   0.45827   0.00000  Uiso   1.00
C584   C     0.55279   0.77642   0.47767   0.00000  Uiso   1.00
C585   C     0.61456   0.84005   0.24100   0.00000  Uiso   1.00
C586   C     0.54938   0.78864   0.01824   0.00000  Uiso   1.00
C587   C     0.51775   0.81537   0.04004   0.00000  Uiso   1.00
C588   C     0.57605   0.77523   0.03806   0.00000  Uiso   1.00
C589   C     0.56167   0.77669   0.07973   0.00000  Uiso   1.00
C590   C     0.51556   0.82910   0.08002   0.00000  Uiso   1.00
C591   C     0.66094   0.84138   0.23670   0.00000  Uiso   1.00
C592   C     0.34050   0.82461   0.26331   0.00000  Uiso   1.00
C593   C     0.42078   0.86834   0.42292   0.00000  Uiso   1.00
C594   C     0.51595   0.98970   0.23867   0.00000  Uiso   1.00
C595   C     0.48506   0.67870   0.26175   0.00000  Uiso   1.00
C596   C     0.48879   0.72291   0.25931   0.00000  Uiso   1.00
C597   C     0.51061   0.94456   0.24139   0.00000  Uiso   1.00
C598   C     0.52150   0.81251   0.14386   0.00000  Uiso   1.00
C599   C     0.47709   0.85308   0.35647   0.00000  Uiso   1.00
C600   C     0.46192   0.85634   0.40032   0.00000  Uiso   1.00
C601   C     0.53169   0.80470   0.10076   0.00000  Uiso   1.00
C602   C     0.41038   0.87262   0.46457   0.00000  Uiso   1.00
C603   C     0.48890   0.84430   0.41971   0.00000  Uiso   1.00
C604   C     0.47566   0.84155   0.46064   0.00000  Uiso   1.00
C605   C     0.43664   0.85724   0.48346   0.00000  Uiso   1.00
C606   C     0.50039   0.82349   0.47947   0.00000  Uiso   1.00
C607   C     0.48962   0.82752   0.02115   0.00000  Uiso   1.00
C608   C     0.44903   0.83971   0.04282   0.00000  Uiso   1.00
C609   C     0.42312   0.85449   0.02443   0.00000  Uiso   1.00
H610   H     0.39204   0.86286   0.04275   0.00000  Uiso   1.00
H611   H     0.52826   0.91340   0.04895   0.00000  Uiso   1.00
H612   H     0.54795   0.73453   0.16622   0.00000  Uiso   1.00
H613   H     0.63346   0.71110   0.41383   0.00000  Uiso   1.00
H614   H     0.38009   0.90824   0.00929   0.00000  Uiso   1.00
H615   H     0.37647   0.92083   0.36245   0.00000  Uiso   1.00
H616   H     0.45588   0.99770   0.28160   0.00000  Uiso   1.00
H617   H     0.52061   0.83696   0.40221   0.00000  Uiso   1.00
H618   H     0.43645   0.83687   0.07420   0.00000  Uiso   1.00
H619   H     0.53644   0.78799   0.42711   0.00000  Uiso   1.00
H620   H     0.35484   0.78351   0.03642   0.00000  Uiso   1.00
H621   H     0.34406   0.86927   0.18830   0.00000  Uiso   1.00
H622   H     0.66106   0.79771   0.31174   0.00000  Uiso   1.00
H623   H     0.57169   0.98876   0.19860   0.00000  Uiso   1.00
O624   O     0.50000   0.83333   0.25000   0.00000  Uiso   1.00
O625   O     0.49027   0.79060   0.16625   0.00000  Uiso   1.00
O626   O     0.46020   0.87313   0.33749   0.00000  Uiso   1.00
O627   O     0.54421   0.84159   0.15877   0.00000  Uiso   1.00
O628   O     0.50532   0.82802   0.33749   0.00000  Uiso   1.00
O629   O     0.64286   0.73068   0.00013   0.00000  Uiso   1.00
O630   O     0.64618   0.80055   0.47981   0.00000  Uiso   1.00
O631   O     0.66033   0.79544   0.04640   0.00000  Uiso   1.00
O632   O     0.35854   0.85939   0.20557   0.00000  Uiso   1.00
O633   O     0.64475   0.80777   0.29606   0.00000  Uiso   1.00
O634   O     0.55190   0.67628   0.21312   0.00000  Uiso   1.00
O635   O     0.51182   0.74768   0.27821   0.00000  Uiso   1.00
O636   O     0.46024   0.87694   0.13335   0.00000  Uiso   1.00
O637   O     0.53675   0.90259   0.11949   0.00000  Uiso   1.00
O638   O     0.49890   0.91026   0.06762   0.00000  Uiso   1.00
O639   O     0.60665   0.71245   0.07843   0.00000  Uiso   1.00
O640   O     0.61342   0.77422   0.12504   0.00000  Uiso   1.00
O641   O     0.54239   0.72326   0.14069   0.00000  Uiso   1.00
O642   O     0.56904   0.69834   0.48136   0.00000  Uiso   1.00
O643   O     0.54655   0.71034   0.42472   0.00000  Uiso   1.00
O644   O     0.62440   0.73893   0.42544   0.00000  Uiso   1.00
O645   O     0.37388   0.89091   0.48606   0.00000  Uiso   1.00
O646   O     0.47914   0.92803   0.26767   0.00000  Uiso   1.00
O647   O     0.37790   0.84070   0.36889   0.00000  Uiso   1.00
O648   O     0.33715   0.87756   0.42975   0.00000  Uiso   1.00
O649   O     0.39546   0.92156   0.37964   0.00000  Uiso   1.00
O650   O     0.40785   0.79917   0.23607   0.00000  Uiso   1.00
O651   O     0.60119   0.85845   0.21806   0.00000  Uiso   1.00
O652   O     0.40323   0.85627   0.27820   0.00000  Uiso   1.00
O653   O     0.58773   0.81944   0.26768   0.00000  Uiso   1.00
O654   O     0.47133   0.73570   0.23607   0.00000  Uiso   1.00
O655   O     0.53771   0.92193   0.21805   0.00000  Uiso   1.00
S656   S     0.63237   0.77465   0.01430   0.00000  Uiso   1.00
S657   S     0.50241   0.88049   0.10138   0.00000  Uiso   1.00
S658   S     0.58296   0.74618   0.10572   0.00000  Uiso   1.00
S659   S     0.57274   0.72919   0.45237   0.00000  Uiso   1.00
S660   S     0.38094   0.87610   0.40031   0.00000  Uiso   1.00
Zn661  Zn    0.52577   0.80756   0.28278   0.00000  Uiso   1.00
Zn662  Zn    0.46792   0.79044   0.22258   0.00000  Uiso   1.00
Zn663  Zn    0.54500   0.86331   0.21188   0.00000  Uiso   1.00
Zn664  Zn    0.46131   0.87202   0.28277   0.00000  Uiso   1.00
C665   C     0.71940   0.82680   0.25874   0.00000  Uiso   1.00
C666   C     0.86523   0.79721   0.45827   0.00000  Uiso   1.00
C667   C     0.88613   0.77642   0.47767   0.00000  Uiso   1.00
C668   C     0.94790   0.84005   0.24100   0.00000  Uiso   1.00
C669   C     0.88271   0.78864   0.01824   0.00000  Uiso   1.00
C670   C     0.85108   0.81537   0.04004   0.00000  Uiso   1.00
C671   C     0.90938   0.77523   0.03806   0.00000  Uiso   1.00
C672   C     0.89500   0.77669   0.07973   0.00000  Uiso   1.00
C673   C     0.84889   0.82910   0.08002   0.00000  Uiso   1.00
C674   C     0.99427   0.84138   0.23670   0.00000  Uiso   1.00
C675   C     0.67383   0.82461   0.26331   0.00000  Uiso   1.00
C676   C     0.75411   0.86834   0.42292   0.00000  Uiso   1.00
C677   C     0.84928   0.98970   0.23867   0.00000  Uiso   1.00
C678   C     0.81840   0.67870   0.26175   0.00000  Uiso   1.00
C679   C     0.82212   0.72291   0.25931   0.00000  Uiso   1.00
C680   C     0.84394   0.94456   0.24139   0.00000  Uiso   1.00
C681   C     0.85483   0.81251   0.14386   0.00000  Uiso   1.00
C682   C     0.81042   0.85308   0.35647   0.00000  Uiso   1.00
C683   C     0.79525   0.85634   0.40032   0.00000  Uiso   1.00
C684   C     0.86502   0.80470   0.10076   0.00000  Uiso   1.00
C685   C     0.74372   0.87262   0.46457   0.00000  Uiso   1.00
C686   C     0.82223   0.84430   0.41971   0.00000  Uiso   1.00
C687   C     0.80899   0.84155   0.46064   0.00000  Uiso   1.00
C688   C     0.76997   0.85724   0.48346   0.00000  Uiso   1.00
C689   C     0.83372   0.82349   0.47947   0.00000  Uiso   1.00
C690   C     0.82296   0.82752   0.02115   0.00000  Uiso   1.00
C691   C     0.78236   0.83971   0.04282   0.00000  Uiso   1.00
C692   C     0.75645   0.85449   0.02443   0.00000  Uiso   1.00
H693   H     0.72538   0.86286   0.04275   0.00000  Uiso   1.00
H694   H     0.86160   0.91340   0.04895   0.00000  Uiso   1.00
H695   H     0.88128   0.73453   0.16622   0.00000  Uiso   1.00
H696   H     0.96680   0.71110   0.41383   0.00000  Uiso   1.00
H697   H     0.71342   0.90824   0.00929   0.00000  Uiso   1.00
H698   H     0.70980   0.92083   0.36245   0.00000  Uiso   1.00
H699   H     0.78921   0.99770   0.28160   0.00000  Uiso   1.00
H700   H     0.85395   0.83696   0.40221   0.00000  Uiso   1.00
H701   H     0.76979   0.83687   0.07420   0.00000  Uiso   1.00
H702   H     0.86977   0.78799   0.42711   0.00000  Uiso   1.00
H703   H     0.68818   0.78351   0.03642   0.00000  Uiso   1.00
H704   H     0.67740   0.86927   0.18830   0.00000  Uiso   1.00
H705   H     0.99439   0.79771   0.31174   0.00000  Uiso   1.00
H706   H     0.90502   0.98876   0.19860   0.00000  Uiso   1.00
O707   O     0.83333   0.83333   0.25000   0.00000  Uiso   1.00
O708   O     0.82360   0.79060   0.16625   0.00000  Uiso   1.00
O709   O     0.79354   0.87313   0.33749   0.00000  Uiso   1.00
O710   O     0.87755   0.84159   0.15877   0.00000  Uiso   1.00
O711   O     0.83865   0.82802   0.33749   0.00000  Uiso   1.00
O712   O     0.97620   0.73068   0.00013   0.00000  Uiso   1.00
O713   O     0.97951   0.80055   0.47981   0.00000  Uiso   1.00
O714   O     0.99366   0.79544   0.04640   0.00000  Uiso   1.00
O715   O     0.69187   0.85939   0.20557   0.00000  Uiso   1.00
O716   O     0.97808   0.80777   0.29606   0.00000  Uiso   1.00
O717   O     0.88524   0.67628   0.21312   0.00000  Uiso   1.00
O718   O     0.84515   0.74768   0.27821   0.00000  Uiso   1.00
O719   O     0.79357   0.87694   0.13335   0.00000  Uiso   1.00
O720   O     0.87008   0.90259   0.11949   0.00000  Uiso   1.00
O721   O     0.83223   0.91026   0.06762   0.00000  Uiso   1.00
O722   O     0.93998   0.71245   0.07843   0.00000  Uiso   1.00
O723   O     0.94676   0.77422   0.12504   0.00000  Uiso   1.00
O724   O     0.87572   0.72326   0.14069   0.00000  Uiso   1.00
O725   O     0.90237   0.69834   0.48136   0.00000  Uiso   1.00
O726   O     0.87988   0.71034   0.42472   0.00000  Uiso   1.00
O727   O     0.95773   0.73893   0.42544   0.00000  Uiso   1.00
O728   O     0.70721   0.89091   0.48606   0.00000  Uiso   1.00
O729   O     0.81247   0.92803   0.26767   0.00000  Uiso   1.00
O730   O     0.71123   0.84070   0.36889   0.00000  Uiso   1.00
O731   O     0.67048   0.87756   0.42975   0.00000  Uiso   1.00
O732   O     0.72879   0.92156   0.37964   0.00000  Uiso   1.00
O733   O     0.74119   0.79917   0.23607   0.00000  Uiso   1.00
O734   O     0.93452   0.85845   0.21806   0.00000  Uiso   1.00
O735   O     0.73656   0.85627   0.27820   0.00000  Uiso   1.00
O736   O     0.92106   0.81944   0.26768   0.00000  Uiso   1.00
O737   O     0.80467   0.73570   0.23607   0.00000  Uiso   1.00
O738   O     0.87104   0.92193   0.21805   0.00000  Uiso   1.00
S739   S     0.96570   0.77465   0.01430   0.00000  Uiso   1.00
S740   S     0.83575   0.88049   0.10138   0.00000  Uiso   1.00
S741   S     0.91629   0.74618   0.10572   0.00000  Uiso   1.00
S742   S     0.90607   0.72919   0.45237   0.00000  Uiso   1.00
S743   S     0.71428   0.87610   0.40031   0.00000  Uiso   1.00
Zn744  Zn    0.85910   0.80756   0.28278   0.00000  Uiso   1.00
Zn745  Zn    0.80125   0.79044   0.22258   0.00000  Uiso   1.00
Zn746  Zn    0.87833   0.86331   0.21188   0.00000  Uiso   1.00
Zn747  Zn    0.79465   0.87202   0.28277   0.00000  Uiso   1.00
C748   C     0.05274   0.16014   0.75874   0.00000  Uiso   1.00
C749   C     0.19857   0.13054   0.95827   0.00000  Uiso   1.00
C750   C     0.21946   0.10976   0.97767   0.00000  Uiso   1.00
C751   C     0.28123   0.17338   0.74100   0.00000  Uiso   1.00
C752   C     0.21605   0.12197   0.51824   0.00000  Uiso   1.00
C753   C     0.18442   0.14870   0.54004   0.00000  Uiso   1.00
C754   C     0.24271   0.10857   0.53806   0.00000  Uiso   1.00
C755   C     0.22834   0.11003   0.57973   0.00000  Uiso   1.00
C756   C     0.18223   0.16243   0.58002   0.00000  Uiso   1.00
C757   C     0.32760   0.17471   0.73670   0.00000  Uiso   1.00
C758   C     0.00716   0.15794   0.76331   0.00000  Uiso   1.00
C759   C     0.08745   0.20168   0.92292   0.00000  Uiso   1.00
C760   C     0.18261   0.32304   0.73867   0.00000  Uiso   1.00
C761   C     0.15173   0.01203   0.76175   0.00000  Uiso   1.00
C762   C     0.15545   0.05624   0.75931   0.00000  Uiso   1.00
C763   C     0.17727   0.27789   0.74139   0.00000  Uiso   1.00
C764   C     0.18817   0.14584   0.64386   0.00000  Uiso   1.00
C765   C     0.14376   0.18641   0.85647   0.00000  Uiso   1.00
C766   C     0.12858   0.18967   0.90032   0.00000  Uiso   1.00
C767   C     0.19836   0.13803   0.60076   0.00000  Uiso   1.00
C768   C     0.07705   0.20595   0.96457   0.00000  Uiso   1.00
C769   C     0.15557   0.17763   0.91971   0.00000  Uiso   1.00
C770   C     0.14233   0.17488   0.96064   0.00000  Uiso   1.00
C771   C     0.10330   0.19057   0.98346   0.00000  Uiso   1.00
C772   C     0.16705   0.15682   0.97947   0.00000  Uiso   1.00
C773   C     0.15629   0.16085   0.52115   0.00000  Uiso   1.00
C774   C     0.11569   0.17304   0.54282   0.00000  Uiso   1.00
C775   C     0.08978   0.18782   0.52443   0.00000  Uiso   1.00
H776   H     0.05871   0.19619   0.54275   0.00000  Uiso   1.00
H777   H     0.19493   0.24673   0.54895   0.00000  Uiso   1.00
H778   H     0.21461   0.06786   0.66622   0.00000  Uiso   1.00
H779   H     0.30013   0.04443   0.91383   0.00000  Uiso   1.00
H780   H     0.04675   0.24158   0.50929   0.00000  Uiso   1.00
H781   H     0.04313   0.25416   0.86245   0.00000  Uiso   1.00
H782   H     0.12254   0.33103   0.78160   0.00000  Uiso   1.00
H783   H     0.18728   0.17029   0.90221   0.00000  Uiso   1.00
H784   H     0.10312   0.17020   0.57420   0.00000  Uiso   1.00
H785   H     0.20311   0.12132   0.92711   0.00000  Uiso   1.00
H786   H     0.02151   0.11684   0.53642   0.00000  Uiso   1.00
H787   H     0.01073   0.20260   0.68830   0.00000  Uiso   1.00
H788   H     0.32772   0.13104   0.81174   0.00000  Uiso   1.00
H789   H     0.23835   0.32210   0.69860   0.00000  Uiso   1.00
O790   O     0.16667   0.16667   0.75000   0.00000  Uiso   1.00
O791   O     0.15693   0.12393   0.66625   0.00000  Uiso   1.00
O792   O     0.12687   0.20646   0.83749   0.00000  Uiso   1.00
O793   O     0.21088   0.17493   0.65877   0.00000  Uiso   1.00
O794   O     0.17198   0.16135   0.83749   0.00000  Uiso   1.00
O795   O     0.30953   0.06401   0.50013   0.00000  Uiso   1.00
O796   O     0.31285   0.13388   0.97981   0.00000  Uiso   1.00
O797   O     0.32699   0.12877   0.54640   0.00000  Uiso   1.00
O798   O     0.02520   0.19272   0.70557   0.00000  Uiso   1.00
O799   O     0.31142   0.14111   0.79606   0.00000  Uiso   1.00
O800   O     0.21857   0.00962   0.71312   0.00000  Uiso   1.00
O801   O     0.17849   0.08101   0.77821   0.00000  Uiso   1.00
O802   O     0.12691   0.21027   0.63335   0.00000  Uiso   1.00
O803   O     0.20341   0.23593   0.61949   0.00000  Uiso   1.00
O804   O     0.16556   0.24359   0.56762   0.00000  Uiso   1.00
O805   O     0.27331   0.04578   0.57843   0.00000  Uiso   1.00
O806   O     0.28009   0.10755   0.62504   0.00000  Uiso   1.00
O807   O     0.20906   0.05659   0.64069   0.00000  Uiso   1.00
O808   O     0.23571   0.03168   0.98136   0.00000  Uiso   1.00
O809   O     0.21321   0.04367   0.92472   0.00000  Uiso   1.00
O810   O     0.29106   0.07226   0.92544   0.00000  Uiso   1.00
O811   O     0.04055   0.22424   0.98606   0.00000  Uiso   1.00
O812   O     0.14581   0.26136   0.76767   0.00000  Uiso   1.00
O813   O     0.04457   0.17404   0.86889   0.00000  Uiso   1.00
O814   O     0.00381   0.21089   0.92975   0.00000  Uiso   1.00
O815   O     0.06213   0.25490   0.87964   0.00000  Uiso   1.00
O816   O     0.07452   0.13251   0.73607   0.00000  Uiso   1.00
O817   O     0.26785   0.19179   0.71806   0.00000  Uiso   1.00
O818   O     0.06990   0.18960   0.77820   0.00000  Uiso   1.00
O819   O     0.25440   0.15277   0.76768   0.00000  Uiso   1.00
O820   O     0.13800   0.06903   0.73607   0.00000  Uiso   1.00
O821   O     0.20437   0.25527   0.71805   0.00000  Uiso   1.00
S822   S     0.29904   0.10798   0.51430   0.00000  Uiso   1.00
S823   S     0.16908   0.21382   0.60138   0.00000  Uiso   1.00
S824   S     0.24963   0.07951   0.60572   0.00000  Uiso   1.00
S825   S     0.23941   0.06253   0.95237   0.00000  Uiso   1.00
S826   S     0.04761   0.20943   0.90031   0.00000  Uiso   1.00
Zn827  Zn    0.19244   0.14090   0.78278   0.00000  Uiso   1.00
Zn828  Zn    0.13459   0.12378   0.72258   0.00000  Uiso   1.00
Zn829  Zn    0.21166   0.19664   0.71188   0.00000  Uiso   1.00
Zn830  Zn    0.12798   0.20535   0.78277   0.00000  Uiso   1.00
C831   C     0.38607   0.16014   0.75874   0.00000  Uiso   1.00
C832   C     0.53190   0.13054   0.95827   0.00000  Uiso   1.00
C833   C     0.55279   0.10976   0.97767   0.00000  Uiso   1.00
C834   C     0.61456   0.17338   0.74100   0.00000  Uiso   1.00
C835   C     0.54938   0.12197   0.51824   0.00000  Uiso   1.00
C836   C     0.51775   0.14870   0.54004   0.00000  Uiso   1.00
C837   C     0.57605   0.10857   0.53806   0.00000  Uiso   1.00
C838   C     0.56167   0.11003   0.57973   0.00000  Uiso   1.00
C839   C     0.51556   0.16243   0.58002   0.00000  Uiso   1.00
C840   C     0.66094   0.17471   0.73670   0.00000  Uiso   1.00
C841   C     0.34050   0.15794   0.76331   0.00000  Uiso   1.00
C842   C     0.42078   0.20168   0.92292   0.00000  Uiso   1.00
C843   C     0.51595   0.32304   0.73867   0.00000  Uiso   1.00
C844   C     0.48506   0.01203   0.76175   0.00000  Uiso   1.00
C845   C     0.48879   0.05624   0.75931   0.00000  Uiso   1.00
C846   C     0.51061   0.27789   0.74139   0.00000  Uiso   1.00
C847   C     0.52150   0.14584   0.64386   0.00000  Uiso   1.00
C848   C     0.47709   0.18641   0.85647   0.00000  Uiso   1.00
C849   C     0.46192   0.18967   0.90032   0.00000  Uiso   1.00
C850   C     0.53169   0.13803   0.60076   0.00000  Uiso   1.00
C851   C     0.41038   0.20595   0.96457   0.00000  Uiso   1.00
C852   C     0.48890   0.17763   0.91971   0.00000  Uiso   1.00
C853   C     0.47566   0.17488   0.96064   0.00000  Uiso   1.00
C854   C     0.43664   0.19057   0.98346   0.00000  Uiso   1.00
C855   C     0.50039   0.15682   0.97947   0.00000  Uiso   1.00
C856   C     0.48962   0.16085   0.52115   0.00000  Uiso   1.00
C857   C     0.44903   0.17304   0.54282   0.00000  Uiso   1.00
C858   C     0.42312   0.18782   0.52443   0.00000  Uiso   1.00
H859   H     0.39204   0.19619   0.54275   0.00000  Uiso   1.00
H860   H     0.52826   0.24673   0.54895   0.00000  Uiso   1.00
H861   H     0.54795   0.06786   0.66622   0.00000  Uiso   1.00
H862   H     0.63346   0.04443   0.91383   0.00000  Uiso   1.00
H863   H     0.38009   0.24158   0.50929   0.00000  Uiso   1.00
H864   H     0.37647   0.25416   0.86245   0.00000  Uiso   1.00
H865   H     0.45588   0.33103   0.78160   0.00000  Uiso   1.00
H866   H     0.52061   0.17029   0.90221   0.00000  Uiso   1.00
H867   H     0.43645   0.17020   0.57420   0.00000  Uiso   1.00
H868   H     0.53644   0.12132   0.92711   0.00000  Uiso   1.00
H869   H     0.35484   0.11684   0.53642   0.00000  Uiso   1.00
H870   H     0.34406   0.20260   0.68830   0.00000  Uiso   1.00
H871   H     0.66106   0.13104   0.81174   0.00000  Uiso   1.00
H872   H     0.57169   0.32210   0.69860   0.00000  Uiso   1.00
O873   O     0.50000   0.16667   0.75000   0.00000  Uiso   1.00
O874   O     0.49027   0.12393   0.66625   0.00000  Uiso   1.00
O875   O     0.46020   0.20646   0.83749   0.00000  Uiso   1.00
O876   O     0.54421   0.17493   0.65877   0.00000  Uiso   1.00
O877   O     0.50532   0.16135   0.83749   0.00000  Uiso   1.00
O878   O     0.64286   0.06401   0.50013   0.00000  Uiso   1.00
O879   O     0.64618   0.13388   0.97981   0.00000  Uiso   1.00
O880   O     0.66033   0.12877   0.54640   0.00000  Uiso   1.00
O881   O     0.35854   0.19272   0.70557   0.00000  Uiso   1.00
O882   O     0.64475   0.14111   0.79606   0.00000  Uiso   1.00
O883   O     0.55190   0.00962   0.71312   0.00000  Uiso   1.00
O884   O     0.51182   0.08101   0.77821   0.00000  Uiso   1.00
O885   O     0.46024   0.21027   0.63335   0.00000  Uiso   1.00
O886   O     0.53675   0.23593   0.61949   0.00000  Uiso   1.00
O887   O     0.49890   0.24359   0.56762   0.00000  Uiso   1.00
O888   O     0.60665   0.04578   0.57843   0.00000  Uiso   1.00
O889   O     0.61342   0.10755   0.62504   0.00000  Uiso   1.00
O890   O     0.54239   0.05659   0.64069   0.00000  Uiso   1.00
O891   O     0.56904   0.03168   0.98136   0.00000  Uiso   1.00
O892   O     0.54655   0.04367   0.92472   0.00000  Uiso   1.00
O893   O     0.62440   0.07226   0.92544   0.00000  Uiso   1.00
O894   O     0.37388   0.22424   0.98606   0.00000  Uiso   1.00
O895   O     0.47914   0.26136   0.76767   0.00000  Uiso   1.00
O896   O     0.37790   0.17404   0.86889   0.00000  Uiso   1.00
O897   O     0.33715   0.21089   0.92975   0.00000  Uiso   1.00
O898   O     0.39546   0.25490   0.87964   0.00000  Uiso   1.00
O899   O     0.40785   0.13251   0.73607   0.00000  Uiso   1.00
O900   O     0.60119   0.19179   0.71806   0.00000  Uiso   1.00
O901   O     0.40323   0.18960   0.77820   0.00000  Uiso   1.00
O902   O     0.58773   0.15277   0.76768   0.00000  Uiso   1.00
O903   O     0.47133   0.06903   0.73607   0.00000  Uiso   1.00
O904   O     0.53771   0.25527   0.71805   0.00000  Uiso   1.00
S905   S     0.63237   0.10798   0.51430   0.00000  Uiso   1.00
S906   S     0.50241   0.21382   0.60138   0.00000  Uiso   1.00
S907   S     0.58296   0.07951   0.60572   0.00000  Uiso   1.00
S908   S     0.57274   0.06253   0.95237   0.00000  Uiso   1.00
S909   S     0.38094   0.20943   0.90031   0.00000  Uiso   1.00
Zn910  Zn    0.52577   0.14090   0.78278   0.00000  Uiso   1.00
Zn911  Zn    0.46792   0.12378   0.72258   0.00000  Uiso   1.00
Zn912  Zn    0.54500   0.19664   0.71188   0.00000  Uiso   1.00
Zn913  Zn    0.46131   0.20535   0.78277   0.00000  Uiso   1.00
C914   C     0.71940   0.16014   0.75874   0.00000  Uiso   1.00
C915   C     0.86523   0.13054   0.95827   0.00000  Uiso   1.00
C916   C     0.88613   0.10976   0.97767   0.00000  Uiso   1.00
C917   C     0.94790   0.17338   0.74100   0.00000  Uiso   1.00
C918   C     0.88271   0.12197   0.51824   0.00000  Uiso   1.00
C919   C     0.85108   0.14870   0.54004   0.00000  Uiso   1.00
C920   C     0.90938   0.10857   0.53806   0.00000  Uiso   1.00
C921   C     0.89500   0.11003   0.57973   0.00000  Uiso   1.00
C922   C     0.84889   0.16243   0.58002   0.00000  Uiso   1.00
C923   C     0.99427   0.17471   0.73670   0.00000  Uiso   1.00
C924   C     0.67383   0.15794   0.76331   0.00000  Uiso   1.00
C925   C     0.75411   0.20168   0.92292   0.00000  Uiso   1.00
C926   C     0.84928   0.32304   0.73867   0.00000  Uiso   1.00
C927   C     0.81840   0.01203   0.76175   0.00000  Uiso   1.00
C928   C     0.82212   0.05624   0.75931   0.00000  Uiso   1.00
C929   C     0.84394   0.27789   0.74139   0.00000  Uiso   1.00
C930   C     0.85483   0.14584   0.64386   0.00000  Uiso   1.00
C931   C     0.81042   0.18641   0.85647   0.00000  Uiso   1.00
C932   C     0.79525   0.18967   0.90032   0.00000  Uiso   1.00
C933   C     0.86502   0.13803   0.60076   0.00000  Uiso   1.00
C934   C     0.74372   0.20595   0.96457   0.00000  Uiso   1.00
C935   C     0.82223   0.17763   0.91971   0.00000  Uiso   1.00
C936   C     0.80899   0.17488   0.96064   0.00000  Uiso   1.00
C937   C     0.76997   0.19057   0.98346   0.00000  Uiso   1.00
C938   C     0.83372   0.15682   0.97947   0.00000  Uiso   1.00
C939   C     0.82296   0.16085   0.52115   0.00000  Uiso   1.00
C940   C     0.78236   0.17304   0.54282   0.00000  Uiso   1.00
C941   C     0.75645   0.18782   0.52443   0.00000  Uiso   1.00
H942   H     0.72538   0.19619   0.54275   0.00000  Uiso   1.00
H943   H     0.86160   0.24673   0.54895   0.00000  Uiso   1.00
H944   H     0.88128   0.06786   0.66622   0.00000  Uiso   1.00
H945   H     0.96680   0.04443   0.91383   0.00000  Uiso   1.00
H946   H     0.71342   0.24158   0.50929   0.00000  Uiso   1.00
H947   H     0.70980   0.25416   0.86245   0.00000  Uiso   1.00
H948   H     0.78921   0.33103   0.78160   0.00000  Uiso   1.00
H949   H     0.85395   0.17029   0.90221   0.00000  Uiso   1.00
H950   H     0.76979   0.17020   0.57420   0.00000  Uiso   1.00
H951   H     0.86977   0.12132   0.92711   0.00000  Uiso   1.00
H952   H     0.68818   0.11684   0.53642   0.00000  Uiso   1.00
H953   H     0.67740   0.20260   0.68830   0.00000  Uiso   1.00
H954   H     0.99439   0.13104   0.81174   0.00000  Uiso   1.00
H955   H     0.90502   0.32210   0.69860   0.00000  Uiso   1.00
O956   O     0.83333   0.16667   0.75000   0.00000  Uiso   1.00
O957   O     0.82360   0.12393   0.66625   0.00000  Uiso   1.00
O958   O     0.79354   0.20646   0.83749   0.00000  Uiso   1.00
O959   O     0.87755   0.17493   0.65877   0.00000  Uiso   1.00
O960   O     0.83865   0.16135   0.83749   0.00000  Uiso   1.00
O961   O     0.97620   0.06401   0.50013   0.00000  Uiso   1.00
O962   O     0.97951   0.13388   0.97981   0.00000  Uiso   1.00
O963   O     0.99366   0.12877   0.54640   0.00000  Uiso   1.00
O964   O     0.69187   0.19272   0.70557   0.00000  Uiso   1.00
O965   O     0.97808   0.14111   0.79606   0.00000  Uiso   1.00
O966   O     0.88524   0.00962   0.71312   0.00000  Uiso   1.00
O967   O     0.84515   0.08101   0.77821   0.00000  Uiso   1.00
O968   O     0.79357   0.21027   0.63335   0.00000  Uiso   1.00
O969   O     0.87008   0.23593   0.61949   0.00000  Uiso   1.00
O970   O     0.83223   0.24359   0.56762   0.00000  Uiso   1.00
O971   O     0.93998   0.04578   0.57843   0.00000  Uiso   1.00
O972   O     0.94676   0.10755   0.62504   0.00000  Uiso   1.00
O973   O     0.87572   0.05659   0.64069   0.00000  Uiso   1.00
O974   O     0.90237   0.03168   0.98136   0.00000  Uiso   1.00
O975   O     0.87988   0.04367   0.92472   0.00000  Uiso   1.00
O976   O     0.95773   0.07226   0.92544   0.00000  Uiso   1.00
O977   O     0.70721   0.22424   0.98606   0.00000  Uiso   1.00
O978   O     0.81247   0.26136   0.76767   0.00000  Uiso   1.00
O979   O     0.71123   0.17404   0.86889   0.00000  Uiso   1.00
O980   O     0.67048   0.21089   0.92975   0.00000  Uiso   1.00
O981   O     0.72879   0.25490   0.87964   0.00000  Uiso   1.00
O982   O     0.74119   0.13251   0.73607   0.00000  Uiso   1.00
O983   O     0.93452   0.19179   0.71806   0.00000  Uiso   1.00
O984   O     0.73656   0.18960   0.77820   0.00000  Uiso   1.00
O985   O     0.92106   0.15277   0.76768   0.00000  Uiso   1.00
O986   O     0.80467   0.06903   0.73607   0.00000  Uiso   1.00
O987   O     0.87104   0.25527   0.71805   0.00000  Uiso   1.00
S988   S     0.96570   0.10798   0.51430   0.00000  Uiso   1.00
S989   S     0.83575   0.21382   0.60138   0.00000  Uiso   1.00
S990   S     0.91629   0.07951   0.60572   0.00000  Uiso   1.00
S991   S     0.90607   0.06253   0.95237   0.00000  Uiso   1.00
S992   S     0.71428   0.20943   0.90031   0.00000  Uiso   1.00
Zn993  Zn    0.85910   0.14090   0.78278   0.00000  Uiso   1.00
Zn994  Zn    0.80125   0.12378   0.72258   0.00000  Uiso   1.00
Zn995  Zn    0.87833   0.19664   0.71188   0.00000  Uiso   1.00
Zn996  Zn    0.79465   0.20535   0.78277   0.00000  Uiso   1.00
C997   C     0.05274   0.49347   0.75874   0.00000  Uiso   1.00
C998   C     0.19857   0.46388   0.95827   0.00000  Uiso   1.00
C999   C     0.21946   0.44309   0.97767   0.00000  Uiso   1.00
C1000  C     0.28123   0.50671   0.74100   0.00000  Uiso   1.00
C1001  C     0.21605   0.45531   0.51824   0.00000  Uiso   1.00
C1002  C     0.18442   0.48204   0.54004   0.00000  Uiso   1.00
C1003  C     0.24271   0.44190   0.53806   0.00000  Uiso   1.00
C1004  C     0.22834   0.44336   0.57973   0.00000  Uiso   1.00
C1005  C     0.18223   0.49576   0.58002   0.00000  Uiso   1.00
C1006  C     0.32760   0.50804   0.73670   0.00000  Uiso   1.00
C1007  C     0.00716   0.49128   0.76331   0.00000  Uiso   1.00
C1008  C     0.08745   0.53501   0.92292   0.00000  Uiso   1.00
C1009  C     0.18261   0.65637   0.73867   0.00000  Uiso   1.00
C1010  C     0.15173   0.34536   0.76175   0.00000  Uiso   1.00
C1011  C     0.15545   0.38957   0.75931   0.00000  Uiso   1.00
C1012  C     0.17727   0.61123   0.74139   0.00000  Uiso   1.00
C1013  C     0.18817   0.47917   0.64386   0.00000  Uiso   1.00
C1014  C     0.14376   0.51974   0.85647   0.00000  Uiso   1.00
C1015  C     0.12858   0.52300   0.90032   0.00000  Uiso   1.00
C1016  C     0.19836   0.47136   0.60076   0.00000  Uiso   1.00
C1017  C     0.07705   0.53928   0.96457   0.00000  Uiso   1.00
C1018  C     0.15557   0.51096   0.91971   0.00000  Uiso   1.00
C1019  C     0.14233   0.50821   0.96064   0.00000  Uiso   1.00
C1020  C     0.10330   0.52391   0.98346   0.00000  Uiso   1.00
C1021  C     0.16705   0.49016   0.97947   0.00000  Uiso   1.00
C1022  C     0.15629   0.49418   0.52115   0.00000  Uiso   1.00
C1023  C     0.11569   0.50638   0.54282   0.00000  Uiso   1.00
C1024  C     0.08978   0.52115   0.52443   0.00000  Uiso   1.00
H1025  H     0.05871   0.52953   0.54275   0.00000  Uiso   1.00
H1026  H     0.19493   0.58007   0.54895   0.00000  Uiso   1.00
H1027  H     0.21461   0.40120   0.66622   0.00000  Uiso   1.00
H1028  H     0.30013   0.37776   0.91383   0.00000  Uiso   1.00
H1029  H     0.04675   0.57491   0.50929   0.00000  Uiso   1.00
H1030  H     0.04313   0.58750   0.86245   0.00000  Uiso   1.00
H1031  H     0.12254   0.66437   0.78160   0.00000  Uiso   1.00
H1032  H     0.18728   0.50363   0.90221   0.00000  Uiso   1.00
H1033  H     0.10312   0.50353   0.57420   0.00000  Uiso   1.00
H1034  H     0.20311   0.45466   0.92711   0.00000  Uiso   1.00
H1035  H     0.02151   0.45018   0.53642   0.00000  Uiso   1.00
H1036  H     0.01073   0.53594   0.68830   0.00000  Uiso   1.00
H1037  H     0.32772   0.46438   0.81174   0.00000  Uiso   1.00
H1038  H     0.23835   0.65543   0.69860   0.00000  Uiso   1.00
O1039  O     0.16667   0.50000   0.75000   0.00000  Uiso   1.00
O1040  O     0.15693   0.45726   0.66625   0.00000  Uiso   1.00
O1041  O     0.12687   0.53979   0.83749   0.00000  Uiso   1.00
O1042  O     0.21088   0.50826   0.65877   0.00000  Uiso   1.00
O1043  O     0.17198   0.49468   0.83749   0.00000  Uiso   1.00
O1044  O     0.30953   0.39735   0.50013   0.00000  Uiso   1.00
O1045  O     0.31285   0.46721   0.97981   0.00000  Uiso   1.00
O1046  O     0.32699   0.46211   0.54640   0.00000  Uiso   1.00
O1047  O     0.02520   0.52606   0.70557   0.00000  Uiso   1.00
O1048  O     0.31142   0.47444   0.79606   0.00000  Uiso   1.00
O1049  O     0.21857   0.34295   0.71312   0.00000  Uiso   1.00
O1050  O     0.17849   0.41434   0.77821   0.00000  Uiso   1.00
O1051  O     0.12691   0.54360   0.63335   0.00000  Uiso   1.00
O1052  O     0.20341   0.56926   0.61949   0.00000  Uiso   1.00
O1053  O     0.16556   0.57692   0.56762   0.00000  Uiso   1.00
O1054  O     0.27331   0.37912   0.57843   0.00000  Uiso   1.00
O1055  O     0.28009   0.44088   0.62504   0.00000  Uiso   1.00
O1056  O     0.20906   0.38993   0.64069   0.00000  Uiso   1.00
O1057  O     0.23571   0.36501   0.98136   0.00000  Uiso   1.00
O1058  O     0.21321   0.37700   0.92472   0.00000  Uiso   1.00
O1059  O     0.29106   0.40560   0.92544   0.00000  Uiso   1.00
O1060  O     0.04055   0.55757   0.98606   0.00000  Uiso   1.00
O1061  O     0.14581   0.59469   0.76767   0.00000  Uiso   1.00
O1062  O     0.04457   0.50737   0.86889   0.00000  Uiso   1.00
O1063  O     0.00381   0.54422   0.92975   0.00000  Uiso   1.00
O1064  O     0.06213   0.58823   0.87964   0.00000  Uiso   1.00
O1065  O     0.07452   0.46584   0.73607   0.00000  Uiso   1.00
O1066  O     0.26785   0.52512   0.71806   0.00000  Uiso   1.00
O1067  O     0.06990   0.52293   0.77820   0.00000  Uiso   1.00
O1068  O     0.25440   0.48610   0.76768   0.00000  Uiso   1.00
O1069  O     0.13800   0.40236   0.73607   0.00000  Uiso   1.00
O1070  O     0.20437   0.58860   0.71805   0.00000  Uiso   1.00
S1071  S     0.29904   0.44132   0.51430   0.00000  Uiso   1.00
S1072  S     0.16908   0.54715   0.60138   0.00000  Uiso   1.00
S1073  S     0.24963   0.41284   0.60572   0.00000  Uiso   1.00
S1074  S     0.23941   0.39586   0.95237   0.00000  Uiso   1.00
S1075  S     0.04761   0.54276   0.90031   0.00000  Uiso   1.00
Zn1076 Zn    0.19244   0.47423   0.78278   0.00000  Uiso   1.00
Zn1077 Zn    0.13459   0.45711   0.72258   0.00000  Uiso   1.00
Zn1078 Zn    0.21166   0.52997   0.71188   0.00000  Uiso   1.00
Zn1079 Zn    0.12798   0.53868   0.78277   0.00000  Uiso   1.00
C1080  C     0.38607   0.49347   0.75874   0.00000  Uiso   1.00
C1081  C     0.53190   0.46388   0.95827   0.00000  Uiso   1.00
C1082  C     0.55279   0.44309   0.97767   0.00000  Uiso   1.00
C1083  C     0.61456   0.50671   0.74100   0.00000  Uiso   1.00
C1084  C     0.54938   0.45531   0.51824   0.00000  Uiso   1.00
C1085  C     0.51775   0.48204   0.54004   0.00000  Uiso   1.00
C1086  C     0.57605   0.44190   0.53806   0.00000  Uiso   1.00
C1087  C     0.56167   0.44336   0.57973   0.00000  Uiso   1.00
C1088  C     0.51556   0.49576   0.58002   0.00000  Uiso   1.00
C1089  C     0.66094   0.50804   0.73670   0.00000  Uiso   1.00
C1090  C     0.34050   0.49128   0.76331   0.00000  Uiso   1.00
C1091  C     0.42078   0.53501   0.92292   0.00000  Uiso   1.00
C1092  C     0.51595   0.65637   0.73867   0.00000  Uiso   1.00
C1093  C     0.48506   0.34536   0.76175   0.00000  Uiso   1.00
C1094  C     0.48879   0.38957   0.75931   0.00000  Uiso   1.00
C1095  C     0.51061   0.61123   0.74139   0.00000  Uiso   1.00
C1096  C     0.52150   0.47917   0.64386   0.00000  Uiso   1.00
C1097  C     0.47709   0.51974   0.85647   0.00000  Uiso   1.00
C1098  C     0.46192   0.52300   0.90032   0.00000  Uiso   1.00
C1099  C     0.53169   0.47136   0.60076   0.00000  Uiso   1.00
C1100  C     0.41038   0.53928   0.96457   0.00000  Uiso   1.00
C1101  C     0.48890   0.51096   0.91971   0.00000  Uiso   1.00
C1102  C     0.47566   0.50821   0.96064   0.00000  Uiso   1.00
C1103  C     0.43664   0.52391   0.98346   0.00000  Uiso   1.00
C1104  C     0.50039   0.49016   0.97947   0.00000  Uiso   1.00
C1105  C     0.48962   0.49418   0.52115   0.00000  Uiso   1.00
C1106  C     0.44903   0.50638   0.54282   0.00000  Uiso   1.00
C1107  C     0.42312   0.52115   0.52443   0.00000  Uiso   1.00
H1108  H     0.39204   0.52953   0.54275   0.00000  Uiso   1.00
H1109  H     0.52826   0.58007   0.54895   0.00000  Uiso   1.00
H1110  H     0.54795   0.40120   0.66622   0.00000  Uiso   1.00
H1111  H     0.63346   0.37776   0.91383   0.00000  Uiso   1.00
H1112  H     0.38009   0.57491   0.50929   0.00000  Uiso   1.00
H1113  H     0.37647   0.58750   0.86245   0.00000  Uiso   1.00
H1114  H     0.45588   0.66437   0.78160   0.00000  Uiso   1.00
H1115  H     0.52061   0.50363   0.90221   0.00000  Uiso   1.00
H1116  H     0.43645   0.50353   0.57420   0.00000  Uiso   1.00
H1117  H     0.53644   0.45466   0.92711   0.00000  Uiso   1.00
H1118  H     0.35484   0.45018   0.53642   0.00000  Uiso   1.00
H1119  H     0.34406   0.53594   0.68830   0.00000  Uiso   1.00
H1120  H     0.66106   0.46438   0.81174   0.00000  Uiso   1.00
H1121  H     0.57169   0.65543   0.69860   0.00000  Uiso   1.00
O1122  O     0.50000   0.50000   0.75000   0.00000  Uiso   1.00
O1123  O     0.49027   0.45726   0.66625   0.00000  Uiso   1.00
O1124  O     0.46020   0.53979   0.83749   0.00000  Uiso   1.00
O1125  O     0.54421   0.50826   0.65877   0.00000  Uiso   1.00
O1126  O     0.50532   0.49468   0.83749   0.00000  Uiso   1.00
O1127  O     0.64286   0.39735   0.50013   0.00000  Uiso   1.00
O1128  O     0.64618   0.46721   0.97981   0.00000  Uiso   1.00
O1129  O     0.66033   0.46211   0.54640   0.00000  Uiso   1.00
O1130  O     0.35854   0.52606   0.70557   0.00000  Uiso   1.00
O1131  O     0.64475   0.47444   0.79606   0.00000  Uiso   1.00
O1132  O     0.55190   0.34295   0.71312   0.00000  Uiso   1.00
O1133  O     0.51182   0.41434   0.77821   0.00000  Uiso   1.00
O1134  O     0.46024   0.54360   0.63335   0.00000  Uiso   1.00
O1135  O     0.53675   0.56926   0.61949   0.00000  Uiso   1.00
O1136  O     0.49890   0.57692   0.56762   0.00000  Uiso   1.00
O1137  O     0.60665   0.37912   0.57843   0.00000  Uiso   1.00
O1138  O     0.61342   0.44088   0.62504   0.00000  Uiso   1.00
O1139  O     0.54239   0.38993   0.64069   0.00000  Uiso   1.00
O1140  O     0.56904   0.36501   0.98136   0.00000  Uiso   1.00
O1141  O     0.54655   0.37700   0.92472   0.00000  Uiso   1.00
O1142  O     0.62440   0.40560   0.92544   0.00000  Uiso   1.00
O1143  O     0.37388   0.55757   0.98606   0.00000  Uiso   1.00
O1144  O     0.47914   0.59469   0.76767   0.00000  Uiso   1.00
O1145  O     0.37790   0.50737   0.86889   0.00000  Uiso   1.00
O1146  O     0.33715   0.54422   0.92975   0.00000  Uiso   1.00
O1147  O     0.39546   0.58823   0.87964   0.00000  Uiso   1.00
O1148  O     0.40785   0.46584   0.73607   0.00000  Uiso   1.00
O1149  O     0.60119   0.52512   0.71806   0.00000  Uiso   1.00
O1150  O     0.40323   0.52293   0.77820   0.00000  Uiso   1.00
O1151  O     0.58773   0.48610   0.76768   0.00000  Uiso   1.00
O1152  O     0.47133   0.40236   0.73607   0.00000  Uiso   1.00
O1153  O     0.53771   0.58860   0.71805   0.00000  Uiso   1.00
S1154  S     0.63237   0.44132   0.51430   0.00000  Uiso   1.00
S1155  S     0.50241   0.54715   0.60138   0.00000  Uiso   1.00
S1156  S     0.58296   0.41284   0.60572   0.00000  Uiso   1.00
S1157  S     0.57274   0.39586   0.95237   0.00000  Uiso   1.00
S1158  S     0.38094   0.54276   0.90031   0.00000  Uiso   1.00
Zn1159 Zn    0.52577   0.47423   0.78278   0.00000  Uiso   1.00
Zn1160 Zn    0.46792   0.45711   0.72258   0.00000  Uiso   1.00
Zn1161 Zn    0.54500   0.52997   0.71188   0.00000  Uiso   1.00
Zn1162 Zn    0.46131   0.53868   0.78277   0.00000  Uiso   1.00
C1163  C     0.71940   0.49347   0.75874   0.00000  Uiso   1.00
C1164  C     0.86523   0.46388   0.95827   0.00000  Uiso   1.00
C1165  C     0.88613   0.44309   0.97767   0.00000  Uiso   1.00
C1166  C     0.94790   0.50671   0.74100   0.00000  Uiso   1.00
C1167  C     0.88271   0.45531   0.51824   0.00000  Uiso   1.00
C1168  C     0.85108   0.48204   0.54004   0.00000  Uiso   1.00
C1169  C     0.90938   0.44190   0.53806   0.00000  Uiso   1.00
C1170  C     0.89500   0.44336   0.57973   0.00000  Uiso   1.00
C1171  C     0.84889   0.49576   0.58002   0.00000  Uiso   1.00
C1172  C     0.99427   0.50804   0.73670   0.00000  Uiso   1.00
C1173  C     0.67383   0.49128   0.76331   0.00000  Uiso   1.00
C1174  C     0.75411   0.53501   0.92292   0.00000  Uiso   1.00
C1175  C     0.84928   0.65637   0.73867   0.00000  Uiso   1.00
C1176  C     0.81840   0.34536   0.76175   0.00000  Uiso   1.00
C1177  C     0.82212   0.38957   0.75931   0.00000  Uiso   1.00
C1178  C     0.84394   0.61123   0.74139   0.00000  Uiso   1.00
C1179  C     0.85483   0.47917   0.64386   0.00000  Uiso   1.00
C1180  C     0.81042   0.51974   0.85647   0.00000  Uiso   1.00
C1181  C     0.79525   0.52300   0.90032   0.00000  Uiso   1.00
C1182  C     0.86502   0.47136   0.60076   0.00000  Uiso   1.00
C1183  C     0.74372   0.53928   0.96457   0.00000  Uiso   1.00
C1184  C     0.82223   0.51096   0.91971   0.00000  Uiso   1.00
C1185  C     0.80899   0.50821   0.96064   0.00000  Uiso   1.00
C1186  C     0.76997   0.52391   0.98346   0.00000  Uiso   1.00
C1187  C     0.83372   0.49016   0.97947   0.00000  Uiso   1.00
C1188  C     0.82296   0.49418   0.52115   0.00000  Uiso   1.00
C1189  C     0.78236   0.50638   0.54282   0.00000  Uiso   1.00
C1190  C     0.75645   0.52115   0.52443   0.00000  Uiso   1.00
H1191  H     0.72538   0.52953   0.54275   0.00000  Uiso   1.00
H1192  H     0.86160   0.58007   0.54895   0.00000  Uiso   1.00
H1193  H     0.88128   0.40120   0.66622   0.00000  Uiso   1.00
H1194  H     0.96680   0.37776   0.91383   0.00000  Uiso   1.00
H1195  H     0.71342   0.57491   0.50929   0.00000  Uiso   1.00
H1196  H     0.70980   0.58750   0.86245   0.00000  Uiso   1.00
H1197  H     0.78921   0.66437   0.78160   0.00000  Uiso   1.00
H1198  H     0.85395   0.50363   0.90221   0.00000  Uiso   1.00
H1199  H     0.76979   0.50353   0.57420   0.00000  Uiso   1.00
H1200  H     0.86977   0.45466   0.92711   0.00000  Uiso   1.00
H1201  H     0.68818   0.45018   0.53642   0.00000  Uiso   1.00
H1202  H     0.67740   0.53594   0.68830   0.00000  Uiso   1.00
H1203  H     0.99439   0.46438   0.81174   0.00000  Uiso   1.00
H1204  H     0.90502   0.65543   0.69860   0.00000  Uiso   1.00
O1205  O     0.83333   0.50000   0.75000   0.00000  Uiso   1.00
O1206  O     0.82360   0.45726   0.66625   0.00000  Uiso   1.00
O1207  O     0.79354   0.53979   0.83749   0.00000  Uiso   1.00
O1208  O     0.87755   0.50826   0.65877   0.00000  Uiso   1.00
O1209  O     0.83865   0.49468   0.83749   0.00000  Uiso   1.00
O1210  O     0.97620   0.39735   0.50013   0.00000  Uiso   1.00
O1211  O     0.97951   0.46721   0.97981   0.00000  Uiso   1.00
O1212  O     0.99366   0.46211   0.54640   0.00000  Uiso   1.00
O1213  O     0.69187   0.52606   0.70557   0.00000  Uiso   1.00
O1214  O     0.97808   0.47444   0.79606   0.00000  Uiso   1.00
O1215  O     0.88524   0.34295   0.71312   0.00000  Uiso   1.00
O1216  O     0.84515   0.41434   0.77821   0.00000  Uiso   1.00
O1217  O     0.79357   0.54360   0.63335   0.00000  Uiso   1.00
O1218  O     0.87008   0.56926   0.61949   0.00000  Uiso   1.00
O1219  O     0.83223   0.57692   0.56762   0.00000  Uiso   1.00
O1220  O     0.93998   0.37912   0.57843   0.00000  Uiso   1.00
O1221  O     0.94676   0.44088   0.62504   0.00000  Uiso   1.00
O1222  O     0.87572   0.38993   0.64069   0.00000  Uiso   1.00
O1223  O     0.90237   0.36501   0.98136   0.00000  Uiso   1.00
O1224  O     0.87988   0.37700   0.92472   0.00000  Uiso   1.00
O1225  O     0.95773   0.40560   0.92544   0.00000  Uiso   1.00
O1226  O     0.70721   0.55757   0.98606   0.00000  Uiso   1.00
O1227  O     0.81247   0.59469   0.76767   0.00000  Uiso   1.00
O1228  O     0.71123   0.50737   0.86889   0.00000  Uiso   1.00
O1229  O     0.67048   0.54422   0.92975   0.00000  Uiso   1.00
O1230  O     0.72879   0.58823   0.87964   0.00000  Uiso   1.00
O1231  O     0.74119   0.46584   0.73607   0.00000  Uiso   1.00
O1232  O     0.93452   0.52512   0.71806   0.00000  Uiso   1.00
O1233  O     0.73656   0.52293   0.77820   0.00000  Uiso   1.00
O1234  O     0.92106   0.48610   0.76768   0.00000  Uiso   1.00
O1235  O     0.80467   0.40236   0.73607   0.00000  Uiso   1.00
O1236  O     0.87104   0.58860   0.71805   0.00000  Uiso   1.00
S1237  S     0.96570   0.44132   0.51430   0.00000  Uiso   1.00
S1238  S     0.83575   0.54715   0.60138   0.00000  Uiso   1.00
S1239  S     0.91629   0.41284   0.60572   0.00000  Uiso   1.00
S1240  S     0.90607   0.39586   0.95237   0.00000  Uiso   1.00
S1241  S     0.71428   0.54276   0.90031   0.00000  Uiso   1.00
Zn1242 Zn    0.85910   0.47423   0.78278   0.00000  Uiso   1.00
Zn1243 Zn    0.80125   0.45711   0.72258   0.00000  Uiso   1.00
Zn1244 Zn    0.87833   0.52997   0.71188   0.00000  Uiso   1.00
Zn1245 Zn    0.79465   0.53868   0.78277   0.00000  Uiso   1.00
C1246  C     0.05274   0.82680   0.75874   0.00000  Uiso   1.00
C1247  C     0.19857   0.79721   0.95827   0.00000  Uiso   1.00
C1248  C     0.21946   0.77642   0.97767   0.00000  Uiso   1.00
C1249  C     0.28123   0.84005   0.74100   0.00000  Uiso   1.00
C1250  C     0.21605   0.78864   0.51824   0.00000  Uiso   1.00
C1251  C     0.18442   0.81537   0.54004   0.00000  Uiso   1.00
C1252  C     0.24271   0.77523   0.53806   0.00000  Uiso   1.00
C1253  C     0.22834   0.77669   0.57973   0.00000  Uiso   1.00
C1254  C     0.18223   0.82910   0.58002   0.00000  Uiso   1.00
C1255  C     0.32760   0.84138   0.73670   0.00000  Uiso   1.00
C1256  C     0.00716   0.82461   0.76331   0.00000  Uiso   1.00
C1257  C     0.08745   0.86834   0.92292   0.00000  Uiso   1.00
C1258  C     0.18261   0.98970   0.73867   0.00000  Uiso   1.00
C1259  C     0.15173   0.67870   0.76175   0.00000  Uiso   1.00
C1260  C     0.15545   0.72291   0.75931   0.00000  Uiso   1.00
C1261  C     0.17727   0.94456   0.74139   0.00000  Uiso   1.00
C1262  C     0.18817   0.81251   0.64386   0.00000  Uiso   1.00
C1263  C     0.14376   0.85308   0.85647   0.00000  Uiso   1.00
C1264  C     0.12858   0.85634   0.90032   0.00000  Uiso   1.00
C1265  C     0.19836   0.80470   0.60076   0.00000  Uiso   1.00
C1266  C     0.07705   0.87262   0.96457   0.00000  Uiso   1.00
C1267  C     0.15557   0.84430   0.91971   0.00000  Uiso   1.00
C1268  C     0.14233   0.84155   0.96064   0.00000  Uiso   1.00
C1269  C     0.10330   0.85724   0.98346   0.00000  Uiso   1.00
C1270  C     0.16705   0.82349   0.97947   0.00000  Uiso   1.00
C1271  C     0.15629   0.82752   0.52115   0.00000  Uiso   1.00
C1272  C     0.11569   0.83971   0.54282   0.00000  Uiso   1.00
C1273  C     0.08978   0.85449   0.52443   0.00000  Uiso   1.00
H1274  H     0.05871   0.86286   0.54275   0.00000  Uiso   1.00
H1275  H     0.19493   0.91340   0.54895   0.00000  Uiso   1.00
H1276  H     0.21461   0.73453   0.66622   0.00000  Uiso   1.00
H1277  H     0.30013   0.71110   0.91383   0.00000  Uiso   1.00
H1278  H     0.04675   0.90824   0.50929   0.00000  Uiso   1.00
H1279  H     0.04313   0.92083   0.86245   0.00000  Uiso   1.00
H1280  H     0.12254   0.99770   0.78160   0.00000  Uiso   1.00
H1281  H     0.18728   0.83696   0.90221   0.00000  Uiso   1.00
H1282  H     0.10312   0.83687   0.57420   0.00000  Uiso   1.00
H1283  H     0.20311   0.78799   0.92711   0.00000  Uiso   1.00
H1284  H     0.02151   0.78351   0.53642   0.00000  Uiso   1.00
H1285  H     0.01073   0.86927   0.68830   0.00000  Uiso   1.00
H1286  H     0.32772   0.79771   0.81174   0.00000  Uiso   1.00
H1287  H     0.23835   0.98876   0.69860   0.00000  Uiso   1.00
O1288  O     0.16667   0.83333   0.75000   0.00000  Uiso   1.00
O1289  O     0.15693   0.79060   0.66625   0.00000  Uiso   1.00
O1290  O     0.12687   0.87313   0.83749   0.00000  Uiso   1.00
O1291  O     0.21088   0.84159   0.65877   0.00000  Uiso   1.00
O1292  O     0.17198   0.82802   0.83749   0.00000  Uiso   1.00
O1293  O     0.30953   0.73068   0.50013   0.00000  Uiso   1.00
O1294  O     0.31285   0.80055   0.97981   0.00000  Uiso   1.00
O1295  O     0.32699   0.79544   0.54640   0.00000  Uiso   1.00
O1296  O     0.02520   0.85939   0.70557   0.00000  Uiso   1.00
O1297  O     0.31142   0.80777   0.79606   0.00000  Uiso   1.00
O1298  O     0.21857   0.67628   0.71312   0.00000  Uiso   1.00
O1299  O     0.17849   0.74768   0.77821   0.00000  Uiso   1.00
O1300  O     0.12691   0.87694   0.63335   0.00000  Uiso   1.00
O1301  O     0.20341   0.90259   0.61949   0.00000  Uiso   1.00
O1302  O     0.16556   0.91026   0.56762   0.00000  Uiso   1.00
O1303  O     0.27331   0.71245   0.57843   0.00000  Uiso   1.00
O1304  O     0.28009   0.77422   0.62504   0.00000  Uiso   1.00
O1305  O     0.20906   0.72326   0.64069   0.00000  Uiso   1.00
O1306  O     0.23571   0.69834   0.98136   0.00000  Uiso   1.00
O1307  O     0.21321   0.71034   0.92472   0.00000  Uiso   1.00
O1308  O     0.29106   0.73893   0.92544   0.00000  Uiso   1.00
O1309  O     0.04055   0.89091   0.98606   0.00000  Uiso   1.00
O1310  O     0.14581   0.92803   0.76767   0.00000  Uiso   1.00
O1311  O     0.04457   0.84070   0.86889   0.00000  Uiso   1.00
O1312  O     0.00381   0.87756   0.92975   0.00000  Uiso   1.00
O1313  O     0.06213   0.92156   0.87964   0.00000  Uiso   1.00
O1314  O     0.07452   0.79917   0.73607   0.00000  Uiso   1.00
O1315  O     0.26785   0.85845   0.71806   0.00000  Uiso   1.00
O1316  O     0.06990   0.85627   0.77820   0.00000  Uiso   1.00
O1317  O     0.25440   0.81944   0.76768   0.00000  Uiso   1.00
O1318  O     0.13800   0.73570   0.73607   0.00000  Uiso   1.00
O1319  O     0.20437   0.92193   0.71805   0.00000  Uiso   1.00
S1320  S     0.29904   0.77465   0.51430   0.00000  Uiso   1.00
S1321  S     0.16908   0.88049   0.60138   0.00000  Uiso   1.00
S1322  S     0.24963   0.74618   0.60572   0.00000  Uiso   1.00
S1323  S     0.23941   0.72919   0.95237   0.00000  Uiso   1.00
S1324  S     0.04761   0.87610   0.90031   0.00000  Uiso   1.00
Zn1325 Zn    0.19244   0.80756   0.78278   0.00000  Uiso   1.00
Zn1326 Zn    0.13459   0.79044   0.72258   0.00000  Uiso   1.00
Zn1327 Zn    0.21166   0.86331   0.71188   0.00000  Uiso   1.00
Zn1328 Zn    0.12798   0.87202   0.78277   0.00000  Uiso   1.00
C1329  C     0.38607   0.82680   0.75874   0.00000  Uiso   1.00
C1330  C     0.53190   0.79721   0.95827   0.00000  Uiso   1.00
C1331  C     0.55279   0.77642   0.97767   0.00000  Uiso   1.00
C1332  C     0.61456   0.84005   0.74100   0.00000  Uiso   1.00
C1333  C     0.54938   0.78864   0.51824   0.00000  Uiso   1.00
C1334  C     0.51775   0.81537   0.54004   0.00000  Uiso   1.00
C1335  C     0.57605   0.77523   0.53806   0.00000  Uiso   1.00
C1336  C     0.56167   0.77669   0.57973   0.00000  Uiso   1.00
C1337  C     0.51556   0.82910   0.58002   0.00000  Uiso   1.00
C1338  C     0.66094   0.84138   0.73670   0.00000  Uiso   1.00
C1339  C     0.34050   0.82461   0.76331   0.00000  Uiso   1.00
C1340  C     0.42078   0.86834   0.92292   0.00000  Uiso   1.00
C1341  C     0.51595   0.98970   0.73867   0.00000  Uiso   1.00
C1342  C     0.48506   0.67870   0.76175   0.00000  Uiso   1.00
C1343  C     0.48879   0.72291   0.75931   0.00000  Uiso   1.00
C1344  C     0.51061   0.94456   0.74139   0.00000  Uiso   1.00
C1345  C     0.52150   0.81251   0.64386   0.00000  Uiso   1.00
C1346  C     0.47709   0.85308   0.85647   0.00000  Uiso   1.00
C1347  C     0.46192   0.85634   0.90032   0.00000  Uiso   1.00
C1348  C     0.53169   0.80470   0.60076   0.00000  Uiso   1.00
C1349  C     0.41038   0.87262   0.96457   0.00000  Uiso   1.00
C1350  C     0.48890   0.84430   0.91971   0.00000  Uiso   1.00
C1351  C     0.47566   0.84155   0.96064   0.00000  Uiso   1.00
C1352  C     0.43664   0.85724   0.98346   0.00000  Uiso   1.00
C1353  C     0.50039   0.82349   0.97947   0.00000  Uiso   1.00
C1354  C     0.48962   0.82752   0.52115   0.00000  Uiso   1.00
C1355  C     0.44903   0.83971   0.54282   0.00000  Uiso   1.00
C1356  C     0.42312   0.85449   0.52443   0.00000  Uiso   1.00
H1357  H     0.39204   0.86286   0.54275   0.00000  Uiso   1.00
H1358  H     0.52826   0.91340   0.54895   0.00000  Uiso   1.00
H1359  H     0.54795   0.73453   0.66622   0.00000  Uiso   1.00
H1360  H     0.63346   0.71110   0.91383   0.00000  Uiso   1.00
H1361  H     0.38009   0.90824   0.50929   0.00000  Uiso   1.00
H1362  H     0.37647   0.92083   0.86245   0.00000  Uiso   1.00
H1363  H     0.45588   0.99770   0.78160   0.00000  Uiso   1.00
H1364  H     0.52061   0.83696   0.90221   0.00000  Uiso   1.00
H1365  H     0.43645   0.83687   0.57420   0.00000  Uiso   1.00
H1366  H     0.53644   0.78799   0.92711   0.00000  Uiso   1.00
H1367  H     0.35484   0.78351   0.53642   0.00000  Uiso   1.00
H1368  H     0.34406   0.86927   0.68830   0.00000  Uiso   1.00
H1369  H     0.66106   0.79771   0.81174   0.00000  Uiso   1.00
H1370  H     0.57169   0.98876   0.69860   0.00000  Uiso   1.00
O1371  O     0.50000   0.83333   0.75000   0.00000  Uiso   1.00
O1372  O     0.49027   0.79060   0.66625   0.00000  Uiso   1.00
O1373  O     0.46020   0.87313   0.83749   0.00000  Uiso   1.00
O1374  O     0.54421   0.84159   0.65877   0.00000  Uiso   1.00
O1375  O     0.50532   0.82802   0.83749   0.00000  Uiso   1.00
O1376  O     0.64286   0.73068   0.50013   0.00000  Uiso   1.00
O1377  O     0.64618   0.80055   0.97981   0.00000  Uiso   1.00
O1378  O     0.66033   0.79544   0.54640   0.00000  Uiso   1.00
O1379  O     0.35854   0.85939   0.70557   0.00000  Uiso   1.00
O1380  O     0.64475   0.80777   0.79606   0.00000  Uiso   1.00
O1381  O     0.55190   0.67628   0.71312   0.00000  Uiso   1.00
O1382  O     0.51182   0.74768   0.77821   0.00000  Uiso   1.00
O1383  O     0.46024   0.87694   0.63335   0.00000  Uiso   1.00
O1384  O     0.53675   0.90259   0.61949   0.00000  Uiso   1.00
O1385  O     0.49890   0.91026   0.56762   0.00000  Uiso   1.00
O1386  O     0.60665   0.71245   0.57843   0.00000  Uiso   1.00
O1387  O     0.61342   0.77422   0.62504   0.00000  Uiso   1.00
O1388  O     0.54239   0.72326   0.64069   0.00000  Uiso   1.00
O1389  O     0.56904   0.69834   0.98136   0.00000  Uiso   1.00
O1390  O     0.54655   0.71034   0.92472   0.00000  Uiso   1.00
O1391  O     0.62440   0.73893   0.92544   0.00000  Uiso   1.00
O1392  O     0.37388   0.89091   0.98606   0.00000  Uiso   1.00
O1393  O     0.47914   0.92803   0.76767   0.00000  Uiso   1.00
O1394  O     0.37790   0.84070   0.86889   0.00000  Uiso   1.00
O1395  O     0.33715   0.87756   0.92975   0.00000  Uiso   1.00
O1396  O     0.39546   0.92156   0.87964   0.00000  Uiso   1.00
O1397  O     0.40785   0.79917   0.73607   0.00000  Uiso   1.00
O1398  O     0.60119   0.85845   0.71806   0.00000  Uiso   1.00
O1399  O     0.40323   0.85627   0.77820   0.00000  Uiso   1.00
O1400  O     0.58773   0.81944   0.76768   0.00000  Uiso   1.00
O1401  O     0.47133   0.73570   0.73607   0.00000  Uiso   1.00
O1402  O     0.53771   0.92193   0.71805   0.00000  Uiso   1.00
S1403  S     0.63237   0.77465   0.51430   0.00000  Uiso   1.00
S1404  S     0.50241   0.88049   0.60138   0.00000  Uiso   1.00
S1405  S     0.58296   0.74618   0.60572   0.00000  Uiso   1.00
S1406  S     0.57274   0.72919   0.95237   0.00000  Uiso   1.00
S1407  S     0.38094   0.87610   0.90031   0.00000  Uiso   1.00
Zn1408 Zn    0.52577   0.80756   0.78278   0.00000  Uiso   1.00
Zn1409 Zn    0.46792   0.79044   0.72258   0.00000  Uiso   1.00
Zn1410 Zn    0.54500   0.86331   0.71188   0.00000  Uiso   1.00
Zn1411 Zn    0.46131   0.87202   0.78277   0.00000  Uiso   1.00
C1412  C     0.71940   0.82680   0.75874   0.00000  Uiso   1.00
C1413  C     0.86523   0.79721   0.95827   0.00000  Uiso   1.00
C1414  C     0.88613   0.77642   0.97767   0.00000  Uiso   1.00
C1415  C     0.94790   0.84005   0.74100   0.00000  Uiso   1.00
C1416  C     0.88271   0.78864   0.51824   0.00000  Uiso   1.00
C1417  C     0.85108   0.81537   0.54004   0.00000  Uiso   1.00
C1418  C     0.90938   0.77523   0.53806   0.00000  Uiso   1.00
C1419  C     0.89500   0.77669   0.57973   0.00000  Uiso   1.00
C1420  C     0.84889   0.82910   0.58002   0.00000  Uiso   1.00
C1421  C     0.99427   0.84138   0.73670   0.00000  Uiso   1.00
C1422  C     0.67383   0.82461   0.76331   0.00000  Uiso   1.00
C1423  C     0.75411   0.86834   0.92292   0.00000  Uiso   1.00
C1424  C     0.84928   0.98970   0.73867   0.00000  Uiso   1.00
C1425  C     0.81840   0.67870   0.76175   0.00000  Uiso   1.00
C1426  C     0.82212   0.72291   0.75931   0.00000  Uiso   1.00
C1427  C     0.84394   0.94456   0.74139   0.00000  Uiso   1.00
C1428  C     0.85483   0.81251   0.64386   0.00000  Uiso   1.00
C1429  C     0.81042   0.85308   0.85647   0.00000  Uiso   1.00
C1430  C     0.79525   0.85634   0.90032   0.00000  Uiso   1.00
C1431  C     0.86502   0.80470   0.60076   0.00000  Uiso   1.00
C1432  C     0.74372   0.87262   0.96457   0.00000  Uiso   1.00
C1433  C     0.82223   0.84430   0.91971   0.00000  Uiso   1.00
C1434  C     0.80899   0.84155   0.96064   0.00000  Uiso   1.00
C1435  C     0.76997   0.85724   0.98346   0.00000  Uiso   1.00
C1436  C     0.83372   0.82349   0.97947   0.00000  Uiso   1.00
C1437  C     0.82296   0.82752   0.52115   0.00000  Uiso   1.00
C1438  C     0.78236   0.83971   0.54282   0.00000  Uiso   1.00
C1439  C     0.75645   0.85449   0.52443   0.00000  Uiso   1.00
H1440  H     0.72538   0.86286   0.54275   0.00000  Uiso   1.00
H1441  H     0.86160   0.91340   0.54895   0.00000  Uiso   1.00
H1442  H     0.88128   0.73453   0.66622   0.00000  Uiso   1.00
H1443  H     0.96680   0.71110   0.91383   0.00000  Uiso   1.00
H1444  H     0.71342   0.90824   0.50929   0.00000  Uiso   1.00
H1445  H     0.70980   0.92083   0.86245   0.00000  Uiso   1.00
H1446  H     0.78921   0.99770   0.78160   0.00000  Uiso   1.00
H1447  H     0.85395   0.83696   0.90221   0.00000  Uiso   1.00
H1448  H     0.76979   0.83687   0.57420   0.00000  Uiso   1.00
H1449  H     0.86977   0.78799   0.92711   0.00000  Uiso   1.00
H1450  H     0.68818   0.78351   0.53642   0.00000  Uiso   1.00
H1451  H     0.67740   0.86927   0.68830   0.00000  Uiso   1.00
H1452  H     0.99439   0.79771   0.81174   0.00000  Uiso   1.00
H1453  H     0.90502   0.98876   0.69860   0.00000  Uiso   1.00
O1454  O     0.83333   0.83333   0.75000   0.00000  Uiso   1.00
O1455  O     0.82360   0.79060   0.66625   0.00000  Uiso   1.00
O1456  O     0.79354   0.87313   0.83749   0.00000  Uiso   1.00
O1457  O     0.87755   0.84159   0.65877   0.00000  Uiso   1.00
O1458  O     0.83865   0.82802   0.83749   0.00000  Uiso   1.00
O1459  O     0.97620   0.73068   0.50013   0.00000  Uiso   1.00
O1460  O     0.97951   0.80055   0.97981   0.00000  Uiso   1.00
O1461  O     0.99366   0.79544   0.54640   0.00000  Uiso   1.00
O1462  O     0.69187   0.85939   0.70557   0.00000  Uiso   1.00
O1463  O     0.97808   0.80777   0.79606   0.00000  Uiso   1.00
O1464  O     0.88524   0.67628   0.71312   0.00000  Uiso   1.00
O1465  O     0.84515   0.74768   0.77821   0.00000  Uiso   1.00
O1466  O     0.79357   0.87694   0.63335   0.00000  Uiso   1.00
O1467  O     0.87008   0.90259   0.61949   0.00000  Uiso   1.00
O1468  O     0.83223   0.91026   0.56762   0.00000  Uiso   1.00
O1469  O     0.93998   0.71245   0.57843   0.00000  Uiso   1.00
O1470  O     0.94676   0.77422   0.62504   0.00000  Uiso   1.00
O1471  O     0.87572   0.72326   0.64069   0.00000  Uiso   1.00
O1472  O     0.90237   0.69834   0.98136   0.00000  Uiso   1.00
O1473  O     0.87988   0.71034   0.92472   0.00000  Uiso   1.00
O1474  O     0.95773   0.73893   0.92544   0.00000  Uiso   1.00
O1475  O     0.70721   0.89091   0.98606   0.00000  Uiso   1.00
O1476  O     0.81247   0.92803   0.76767   0.00000  Uiso   1.00
O1477  O     0.71123   0.84070   0.86889   0.00000  Uiso   1.00
O1478  O     0.67048   0.87756   0.92975   0.00000  Uiso   1.00
O1479  O     0.72879   0.92156   0.87964   0.00000  Uiso   1.00
O1480  O     0.74119   0.79917   0.73607   0.00000  Uiso   1.00
O1481  O     0.93452   0.85845   0.71806   0.00000  Uiso   1.00
O1482  O     0.73656   0.85627   0.77820   0.00000  Uiso   1.00
O1483  O     0.92106   0.81944   0.76768   0.00000  Uiso   1.00
O1484  O     0.80467   0.73570   0.73607   0.00000  Uiso   1.00
O1485  O     0.87104   0.92193   0.71805   0.00000  Uiso   1.00
S1486  S     0.96570   0.77465   0.51430   0.00000  Uiso   1.00
S1487  S     0.83575   0.88049   0.60138   0.00000  Uiso   1.00
S1488  S     0.91629   0.74618   0.60572   0.00000  Uiso   1.00
S1489  S     0.90607   0.72919   0.95237   0.00000  Uiso   1.00
S1490  S     0.71428   0.87610   0.90031   0.00000  Uiso   1.00
Zn1491 Zn    0.85910   0.80756   0.78278   0.00000  Uiso   1.00
Zn1492 Zn    0.80125   0.79044   0.72258   0.00000  Uiso   1.00
Zn1493 Zn    0.87833   0.86331   0.71188   0.00000  Uiso   1.00
Zn1494 Zn    0.79465   0.87202   0.78277   0.00000  Uiso   1.00
loop_
_geom_bond_atom_site_label_1
_geom_bond_atom_site_label_2
_geom_bond_distance
_geom_bond_site_symmetry_2
_ccdc_geom_bond_type
C1     C11     1.442   .     S
C1     O69     1.270   .     A
C1     O71     1.265   .     A
C2     H38     1.080   .     S
C2     C3      1.397   .     A
C2     C25     1.408   .     A
C3     S78     1.778   .     S
C3     C752    1.420   .     S
C4     O70     1.283   .     A
C4     C10     1.473   .     S
C4     O72     1.273   .     A
C5     C6      1.425   .     A
C5     C7      1.421   .     A
C5     C750    1.420   1_554 S
C6     C9      1.415   .     A
C6     C26     1.418   .     A
C7     C8      1.412   .     A
C7     S75     1.784   .     S
C8     C20     1.411   .     A
C8     S77     1.781   .     S
C9     S76     1.795   .     S
C9     C20     1.405   .     A
C10    C94     1.351   .     S
C10    O134    1.387   .     S
C11    C176    1.351   1_455 S
C11    O218    1.385   1_455 S
C12    S79     1.788   .     S
C12    C21     1.410   .     A
C12    C19     1.426   .     A
C13    C16     1.464   .     S
C13    C263    1.334   .     S
C13    O302    1.386   .     S
C14    C15     1.436   .     S
C14    C511    1.334   1_545 S
C14    H533    1.086   1_545 S
C15    O54     1.281   .     A
C15    O73     1.278   .     A
C16    O74     1.266   .     A
C16    O65     1.272   .     A
C17    C20     1.463   .     S
C17    O46     1.271   .     A
C17    O44     1.279   .     A
C18    O47     1.293   .     A
C18    C19     1.483   .     S
C18    O45     1.281   .     A
C19    C22     1.398   .     A
C21    O64     1.380   .     S
C21    C24     1.417   .     A
C22    H36     1.080   .     S
C22    C23     1.402   .     A
C23    C24     1.418   .     A
C23    C25     1.423   .     A
C24    C775    1.403   .     S
C25    C773    1.411   .     S
C26    C27     1.406   .     A
C26    C772    1.411   1_554 S
C27    H37     1.080   .     S
C27    C28     1.386   .     A
C28    H29     1.081   .     S
C28    C771    1.403   1_554 S
H30    O57     0.991   .     S
H31    O60     0.990   .     S
H32    O63     0.991   .     S
H33    O811    0.990   1_554 S
H34    O68     0.991   .     S
H35    C263    1.086   .     S
H39    O216    0.990   1_455 S
H40    O51     0.990   .     S
H41    O52     0.992   .     S
H42    O302    0.990   .     S
O43    Zn83    1.932   .     S
O43    Zn81    1.949   .     S
O43    Zn80    1.961   .     S
O43    Zn82    1.922   .     S
O44    Zn81    1.918   .     S
O45    Zn83    1.933   .     S
O46    Zn82    1.931   .     S
O47    Zn80    1.918   .     S
O48    S75     1.503   .     D
O49    S822    1.503   .     S
O50    S75     1.682   .     S
O50    H122    0.990   .     S
O51    C176    1.387   1_455 S
O52    C94     1.385   .     S
O53    C511    1.386   1_545 S
O53    H540    0.990   1_545 S
O54    Zn80    1.927   .     S
O55    S76     1.503   .     D
O56    S76     1.503   .     D
O57    S76     1.683   .     S
O58    S77     1.502   .     D
O59    S77     1.504   .     D
O60    S77     1.683   .     S
O61    S78     1.503   .     D
O62    S78     1.504   .     D
O63    S78     1.681   .     S
O64    H780    0.990   .     S
O65    Zn83    1.925   .     S
O66    S79     1.504   .     D
O67    S79     1.503   .     D
O68    S79     1.682   .     S
O69    Zn81    1.933   .     S
O70    Zn82    1.948   .     S
O71    Zn83    1.942   .     S
O72    Zn80    1.928   .     S
O73    Zn81    1.933   .     S
O74    Zn82    1.930   .     S
S75    O796    1.503   1_554 S
C84    C94     1.442   .     S
C84    O152    1.270   .     A
C84    O154    1.265   .     A
C85    H121    1.080   .     S
C85    C86     1.397   .     A
C85    C108    1.408   .     A
C86    S161    1.778   .     S
C86    C835    1.420   .     S
C87    O153    1.283   .     A
C87    C93     1.473   .     S
C87    O155    1.273   .     A
C88    C89     1.425   .     A
C88    C90     1.421   .     A
C88    C833    1.420   1_554 S
C89    C92     1.415   .     A
C89    C109    1.418   .     A
C90    C91     1.412   .     A
C90    S158    1.784   .     S
C91    C103    1.411   .     A
C91    S160    1.781   .     S
C92    S159    1.795   .     S
C92    C103    1.405   .     A
C93    C177    1.351   .     S
C93    O217    1.387   .     S
C95    S162    1.788   .     S
C95    C104    1.410   .     A
C95    C102    1.426   .     A
C96    C99     1.464   .     S
C96    C346    1.334   .     S
C96    O385    1.386   .     S
C97    C98     1.436   .     S
C97    C594    1.334   1_545 S
C97    H616    1.086   1_545 S
C98    O137    1.281   .     A
C98    O156    1.278   .     A
C99    O157    1.266   .     A
C99    O148    1.272   .     A
C100   C103    1.463   .     S
C100   O129    1.271   .     A
C100   O127    1.279   .     A
C101   O130    1.293   .     A
C101   C102    1.483   .     S
C101   O128    1.281   .     A
C102   C105    1.398   .     A
C104   O147    1.380   .     S
C104   C107    1.417   .     A
C105   H119    1.080   .     S
C105   C106    1.402   .     A
C106   C107    1.418   .     A
C106   C108    1.423   .     A
C107   C858    1.403   .     S
C108   C856    1.411   .     S
C109   C110    1.406   .     A
C109   C855    1.411   1_554 S
C110   H120    1.080   .     S
C110   C111    1.386   .     A
C111   H112    1.081   .     S
C111   C854    1.403   1_554 S
H113   O140    0.991   .     S
H114   O143    0.990   .     S
H115   O146    0.991   .     S
H116   O894    0.990   1_554 S
H117   O151    0.991   .     S
H118   C346    1.086   .     S
H123   O134    0.990   .     S
H124   O135    0.992   .     S
H125   O385    0.990   .     S
O126   Zn166   1.932   .     S
O126   Zn164   1.949   .     S
O126   Zn163   1.961   .     S
O126   Zn165   1.922   .     S
O127   Zn164   1.918   .     S
O128   Zn166   1.933   .     S
O129   Zn165   1.931   .     S
O130   Zn163   1.918   .     S
O131   S158    1.503   .     D
O132   S905    1.503   .     S
O133   S158    1.682   .     S
O133   H205    0.990   .     S
O135   C177    1.385   .     S
O136   C594    1.386   1_545 S
O136   H623    0.990   1_545 S
O137   Zn163   1.927   .     S
O138   S159    1.503   .     D
O139   S159    1.503   .     D
O140   S159    1.683   .     S
O141   S160    1.502   .     D
O142   S160    1.504   .     D
O143   S160    1.683   .     S
O144   S161    1.503   .     D
O145   S161    1.504   .     D
O146   S161    1.681   .     S
O147   H863    0.990   .     S
O148   Zn166   1.925   .     S
O149   S162    1.504   .     D
O150   S162    1.503   .     D
O151   S162    1.682   .     S
O152   Zn164   1.933   .     S
O153   Zn165   1.948   .     S
O154   Zn166   1.942   .     S
O155   Zn163   1.928   .     S
O156   Zn164   1.933   .     S
O157   Zn165   1.930   .     S
S158   O879    1.503   1_554 S
C167   C177    1.442   .     S
C167   O235    1.270   .     A
C167   O237    1.265   .     A
C168   H204    1.080   .     S
C168   C169    1.397   .     A
C168   C191    1.408   .     A
C169   S244    1.778   .     S
C169   C918    1.420   .     S
C170   O236    1.283   .     A
C170   C176    1.473   .     S
C170   O238    1.273   .     A
C171   C172    1.425   .     A
C171   C173    1.421   .     A
C171   C916    1.420   1_554 S
C172   C175    1.415   .     A
C172   C192    1.418   .     A
C173   C174    1.412   .     A
C173   S241    1.784   .     S
C174   C186    1.411   .     A
C174   S243    1.781   .     S
C175   S242    1.795   .     S
C175   C186    1.405   .     A
C176   C11     1.351   1_655 S
C176   O51     1.387   1_655 S
C178   S245    1.788   .     S
C178   C187    1.410   .     A
C178   C185    1.426   .     A
C179   C182    1.464   .     S
C179   C429    1.334   .     S
C179   O468    1.386   .     S
C180   C181    1.436   .     S
C180   C677    1.334   1_545 S
C180   H699    1.086   1_545 S
C181   O220    1.281   .     A
C181   O239    1.278   .     A
C182   O240    1.266   .     A
C182   O231    1.272   .     A
C183   C186    1.463   .     S
C183   O212    1.271   .     A
C183   O210    1.279   .     A
C184   O213    1.293   .     A
C184   C185    1.483   .     S
C184   O211    1.281   .     A
C185   C188    1.398   .     A
C187   O230    1.380   .     S
C187   C190    1.417   .     A
C188   H202    1.080   .     S
C188   C189    1.402   .     A
C189   C190    1.418   .     A
C189   C191    1.423   .     A
C190   C941    1.403   .     S
C191   C939    1.411   .     S
C192   C193    1.406   .     A
C192   C938    1.411   1_554 S
C193   H203    1.080   .     S
C193   C194    1.386   .     A
C194   H195    1.081   .     S
C194   C937    1.403   1_554 S
H196   O223    0.991   .     S
H197   O226    0.990   .     S
H198   O229    0.991   .     S
H199   O977    0.990   1_554 S
H200   O234    0.991   .     S
H201   C429    1.086   .     S
H206   O217    0.990   .     S
H207   O218    0.992   .     S
H208   O468    0.990   .     S
O209   Zn249   1.932   .     S
O209   Zn247   1.949   .     S
O209   Zn246   1.961   .     S
O209   Zn248   1.922   .     S
O210   Zn247   1.918   .     S
O211   Zn249   1.933   .     S
O212   Zn248   1.931   .     S
O213   Zn246   1.918   .     S
O214   S241    1.503   .     D
O215   S988    1.503   .     S
O216   S241    1.682   .     S
O216   H39     0.990   1_655 S
O218   C11     1.385   1_655 S
O219   C677    1.386   1_545 S
O219   H706    0.990   1_545 S
O220   Zn246   1.927   .     S
O221   S242    1.503   .     D
O222   S242    1.503   .     D
O223   S242    1.683   .     S
O224   S243    1.502   .     D
O225   S243    1.504   .     D
O226   S243    1.683   .     S
O227   S244    1.503   .     D
O228   S244    1.504   .     D
O229   S244    1.681   .     S
O230   H946    0.990   .     S
O231   Zn249   1.925   .     S
O232   S245    1.504   .     D
O233   S245    1.503   .     D
O234   S245    1.682   .     S
O235   Zn247   1.933   .     S
O236   Zn248   1.948   .     S
O237   Zn249   1.942   .     S
O238   Zn246   1.928   .     S
O239   Zn247   1.933   .     S
O240   Zn248   1.930   .     S
S241   O962    1.503   1_554 S
C250   C260    1.442   .     S
C250   O318    1.270   .     A
C250   O320    1.265   .     A
C251   H287    1.080   .     S
C251   C252    1.397   .     A
C251   C274    1.408   .     A
C252   S327    1.778   .     S
C252   C1001   1.420   .     S
C253   O319    1.283   .     A
C253   C259    1.473   .     S
C253   O321    1.273   .     A
C254   C255    1.425   .     A
C254   C256    1.421   .     A
C254   C999    1.420   1_554 S
C255   C258    1.415   .     A
C255   C275    1.418   .     A
C256   C257    1.412   .     A
C256   S324    1.784   .     S
C257   C269    1.411   .     A
C257   S326    1.781   .     S
C258   S325    1.795   .     S
C258   C269    1.405   .     A
C259   C343    1.351   .     S
C259   O383    1.387   .     S
C260   C425    1.351   1_455 S
C260   O467    1.385   1_455 S
C261   S328    1.788   .     S
C261   C270    1.410   .     A
C261   C268    1.426   .     A
C262   C265    1.464   .     S
C262   C512    1.334   .     S
C262   O551    1.386   .     S
C263   C264    1.436   .     S
C264   O303    1.281   .     A
C264   O322    1.278   .     A
C265   O323    1.266   .     A
C265   O314    1.272   .     A
C266   C269    1.463   .     S
C266   O295    1.271   .     A
C266   O293    1.279   .     A
C267   O296    1.293   .     A
C267   C268    1.483   .     S
C267   O294    1.281   .     A
C268   C271    1.398   .     A
C270   O313    1.380   .     S
C270   C273    1.417   .     A
C271   H285    1.080   .     S
C271   C272    1.402   .     A
C272   C273    1.418   .     A
C272   C274    1.423   .     A
C273   C1024   1.403   .     S
C274   C1022   1.411   .     S
C275   C276    1.406   .     A
C275   C1021   1.411   1_554 S
C276   H286    1.080   .     S
C276   C277    1.386   .     A
C277   H278    1.081   .     S
C277   C1020   1.403   1_554 S
H279   O306    0.991   .     S
H280   O309    0.990   .     S
H281   O312    0.991   .     S
H282   O1060   0.990   1_554 S
H283   O317    0.991   .     S
H284   C512    1.086   .     S
H288   O465    0.990   1_455 S
H289   O300    0.990   .     S
H290   O301    0.992   .     S
H291   O551    0.990   .     S
O292   Zn332   1.932   .     S
O292   Zn330   1.949   .     S
O292   Zn329   1.961   .     S
O292   Zn331   1.922   .     S
O293   Zn330   1.918   .     S
O294   Zn332   1.933   .     S
O295   Zn331   1.931   .     S
O296   Zn329   1.918   .     S
O297   S324    1.503   .     D
O298   S1071   1.503   .     S
O299   S324    1.682   .     S
O299   H371    0.990   .     S
O300   C425    1.387   1_455 S
O301   C343    1.385   .     S
O303   Zn329   1.927   .     S
O304   S325    1.503   .     D
O305   S325    1.503   .     D
O306   S325    1.683   .     S
O307   S326    1.502   .     D
O308   S326    1.504   .     D
O309   S326    1.683   .     S
O310   S327    1.503   .     D
O311   S327    1.504   .     D
O312   S327    1.681   .     S
O313   H1029   0.990   .     S
O314   Zn332   1.925   .     S
O315   S328    1.504   .     D
O316   S328    1.503   .     D
O317   S328    1.682   .     S
O318   Zn330   1.933   .     S
O319   Zn331   1.948   .     S
O320   Zn332   1.942   .     S
O321   Zn329   1.928   .     S
O322   Zn330   1.933   .     S
O323   Zn331   1.930   .     S
S324   O1045   1.503   1_554 S
C333   C343    1.442   .     S
C333   O401    1.270   .     A
C333   O403    1.265   .     A
C334   H370    1.080   .     S
C334   C335    1.397   .     A
C334   C357    1.408   .     A
C335   S410    1.778   .     S
C335   C1084   1.420   .     S
C336   O402    1.283   .     A
C336   C342    1.473   .     S
C336   O404    1.273   .     A
C337   C338    1.425   .     A
C337   C339    1.421   .     A
C337   C1082   1.420   1_554 S
C338   C341    1.415   .     A
C338   C358    1.418   .     A
C339   C340    1.412   .     A
C339   S407    1.784   .     S
C340   C352    1.411   .     A
C340   S409    1.781   .     S
C341   S408    1.795   .     S
C341   C352    1.405   .     A
C342   C426    1.351   .     S
C342   O466    1.387   .     S
C344   S411    1.788   .     S
C344   C353    1.410   .     A
C344   C351    1.426   .     A
C345   C348    1.464   .     S
C345   C595    1.334   .     S
C345   O634    1.386   .     S
C346   C347    1.436   .     S
C347   O386    1.281   .     A
C347   O405    1.278   .     A
C348   O406    1.266   .     A
C348   O397    1.272   .     A
C349   C352    1.463   .     S
C349   O378    1.271   .     A
C349   O376    1.279   .     A
C350   O379    1.293   .     A
C350   C351    1.483   .     S
C350   O377    1.281   .     A
C351   C354    1.398   .     A
C353   O396    1.380   .     S
C353   C356    1.417   .     A
C354   H368    1.080   .     S
C354   C355    1.402   .     A
C355   C356    1.418   .     A
C355   C357    1.423   .     A
C356   C1107   1.403   .     S
C357   C1105   1.411   .     S
C358   C359    1.406   .     A
C358   C1104   1.411   1_554 S
C359   H369    1.080   .     S
C359   C360    1.386   .     A
C360   H361    1.081   .     S
C360   C1103   1.403   1_554 S
H362   O389    0.991   .     S
H363   O392    0.990   .     S
H364   O395    0.991   .     S
H365   O1143   0.990   1_554 S
H366   O400    0.991   .     S
H367   C595    1.086   .     S
H372   O383    0.990   .     S
H373   O384    0.992   .     S
H374   O634    0.990   .     S
O375   Zn415   1.932   .     S
O375   Zn413   1.949   .     S
O375   Zn412   1.961   .     S
O375   Zn414   1.922   .     S
O376   Zn413   1.918   .     S
O377   Zn415   1.933   .     S
O378   Zn414   1.931   .     S
O379   Zn412   1.918   .     S
O380   S407    1.503   .     D
O381   S1154   1.503   .     S
O382   S407    1.682   .     S
O382   H454    0.990   .     S
O384   C426    1.385   .     S
O386   Zn412   1.927   .     S
O387   S408    1.503   .     D
O388   S408    1.503   .     D
O389   S408    1.683   .     S
O390   S409    1.502   .     D
O391   S409    1.504   .     D
O392   S409    1.683   .     S
O393   S410    1.503   .     D
O394   S410    1.504   .     D
O395   S410    1.681   .     S
O396   H1112   0.990   .     S
O397   Zn415   1.925   .     S
O398   S411    1.504   .     D
O399   S411    1.503   .     D
O400   S411    1.682   .     S
O401   Zn413   1.933   .     S
O402   Zn414   1.948   .     S
O403   Zn415   1.942   .     S
O404   Zn412   1.928   .     S
O405   Zn413   1.933   .     S
O406   Zn414   1.930   .     S
S407   O1128   1.503   1_554 S
C416   C426    1.442   .     S
C416   O484    1.270   .     A
C416   O486    1.265   .     A
C417   H453    1.080   .     S
C417   C418    1.397   .     A
C417   C440    1.408   .     A
C418   S493    1.778   .     S
C418   C1167   1.420   .     S
C419   O485    1.283   .     A
C419   C425    1.473   .     S
C419   O487    1.273   .     A
C420   C421    1.425   .     A
C420   C422    1.421   .     A
C420   C1165   1.420   1_554 S
C421   C424    1.415   .     A
C421   C441    1.418   .     A
C422   C423    1.412   .     A
C422   S490    1.784   .     S
C423   C435    1.411   .     A
C423   S492    1.781   .     S
C424   S491    1.795   .     S
C424   C435    1.405   .     A
C425   C260    1.351   1_655 S
C425   O300    1.387   1_655 S
C427   S494    1.788   .     S
C427   C436    1.410   .     A
C427   C434    1.426   .     A
C428   C431    1.464   .     S
C428   C678    1.334   .     S
C428   O717    1.386   .     S
C429   C430    1.436   .     S
C430   O469    1.281   .     A
C430   O488    1.278   .     A
C431   O489    1.266   .     A
C431   O480    1.272   .     A
C432   C435    1.463   .     S
C432   O461    1.271   .     A
C432   O459    1.279   .     A
C433   O462    1.293   .     A
C433   C434    1.483   .     S
C433   O460    1.281   .     A
C434   C437    1.398   .     A
C436   O479    1.380   .     S
C436   C439    1.417   .     A
C437   H451    1.080   .     S
C437   C438    1.402   .     A
C438   C439    1.418   .     A
C438   C440    1.423   .     A
C439   C1190   1.403   .     S
C440   C1188   1.411   .     S
C441   C442    1.406   .     A
C441   C1187   1.411   1_554 S
C442   H452    1.080   .     S
C442   C443    1.386   .     A
C443   H444    1.081   .     S
C443   C1186   1.403   1_554 S
H445   O472    0.991   .     S
H446   O475    0.990   .     S
H447   O478    0.991   .     S
H448   O1226   0.990   1_554 S
H449   O483    0.991   .     S
H450   C678    1.086   .     S
H455   O466    0.990   .     S
H456   O467    0.992   .     S
H457   O717    0.990   .     S
O458   Zn498   1.932   .     S
O458   Zn496   1.949   .     S
O458   Zn495   1.961   .     S
O458   Zn497   1.922   .     S
O459   Zn496   1.918   .     S
O460   Zn498   1.933   .     S
O461   Zn497   1.931   .     S
O462   Zn495   1.918   .     S
O463   S490    1.503   .     D
O464   S1237   1.503   .     S
O465   S490    1.682   .     S
O465   H288    0.990   1_655 S
O467   C260    1.385   1_655 S
O469   Zn495   1.927   .     S
O470   S491    1.503   .     D
O471   S491    1.503   .     D
O472   S491    1.683   .     S
O473   S492    1.502   .     D
O474   S492    1.504   .     D
O475   S492    1.683   .     S
O476   S493    1.503   .     D
O477   S493    1.504   .     D
O478   S493    1.681   .     S
O479   H1195   0.990   .     S
O480   Zn498   1.925   .     S
O481   S494    1.504   .     D
O482   S494    1.503   .     D
O483   S494    1.682   .     S
O484   Zn496   1.933   .     S
O485   Zn497   1.948   .     S
O486   Zn498   1.942   .     S
O487   Zn495   1.928   .     S
O488   Zn496   1.933   .     S
O489   Zn497   1.930   .     S
S490   O1211   1.503   1_554 S
C499   C509    1.442   .     S
C499   O567    1.270   .     A
C499   O569    1.265   .     A
C500   H536    1.080   .     S
C500   C501    1.397   .     A
C500   C523    1.408   .     A
C501   S576    1.778   .     S
C501   C1250   1.420   .     S
C502   O568    1.283   .     A
C502   C508    1.473   .     S
C502   O570    1.273   .     A
C503   C504    1.425   .     A
C503   C505    1.421   .     A
C503   C1248   1.420   1_554 S
C504   C507    1.415   .     A
C504   C524    1.418   .     A
C505   C506    1.412   .     A
C505   S573    1.784   .     S
C506   C518    1.411   .     A
C506   S575    1.781   .     S
C507   S574    1.795   .     S
C507   C518    1.405   .     A
C508   C592    1.351   .     S
C508   O632    1.387   .     S
C509   C674    1.351   1_455 S
C509   O716    1.385   1_455 S
C510   S577    1.788   .     S
C510   C519    1.410   .     A
C510   C517    1.426   .     A
C511   C514    1.464   .     S
C511   C14     1.334   1_565 S
C511   O53     1.386   1_565 S
C512   C513    1.436   .     S
C513   O552    1.281   .     A
C513   O571    1.278   .     A
C514   O572    1.266   .     A
C514   O563    1.272   .     A
C515   C518    1.463   .     S
C515   O544    1.271   .     A
C515   O542    1.279   .     A
C516   O545    1.293   .     A
C516   C517    1.483   .     S
C516   O543    1.281   .     A
C517   C520    1.398   .     A
C519   O562    1.380   .     S
C519   C522    1.417   .     A
C520   H534    1.080   .     S
C520   C521    1.402   .     A
C521   C522    1.418   .     A
C521   C523    1.423   .     A
C522   C1273   1.403   .     S
C523   C1271   1.411   .     S
C524   C525    1.406   .     A
C524   C1270   1.411   1_554 S
C525   H535    1.080   .     S
C525   C526    1.386   .     A
C526   H527    1.081   .     S
C526   C1269   1.403   1_554 S
H528   O555    0.991   .     S
H529   O558    0.990   .     S
H530   O561    0.991   .     S
H531   O1309   0.990   1_554 S
H532   O566    0.991   .     S
H533   C14     1.086   1_565 S
H537   O714    0.990   1_455 S
H538   O549    0.990   .     S
H539   O550    0.992   .     S
H540   O53     0.990   1_565 S
O541   Zn581   1.932   .     S
O541   Zn579   1.949   .     S
O541   Zn578   1.961   .     S
O541   Zn580   1.922   .     S
O542   Zn579   1.918   .     S
O543   Zn581   1.933   .     S
O544   Zn580   1.931   .     S
O545   Zn578   1.918   .     S
O546   S573    1.503   .     D
O547   S1320   1.503   .     S
O548   S573    1.682   .     S
O548   H620    0.990   .     S
O549   C674    1.387   1_455 S
O550   C592    1.385   .     S
O552   Zn578   1.927   .     S
O553   S574    1.503   .     D
O554   S574    1.503   .     D
O555   S574    1.683   .     S
O556   S575    1.502   .     D
O557   S575    1.504   .     D
O558   S575    1.683   .     S
O559   S576    1.503   .     D
O560   S576    1.504   .     D
O561   S576    1.681   .     S
O562   H1278   0.990   .     S
O563   Zn581   1.925   .     S
O564   S577    1.504   .     D
O565   S577    1.503   .     D
O566   S577    1.682   .     S
O567   Zn579   1.933   .     S
O568   Zn580   1.948   .     S
O569   Zn581   1.942   .     S
O570   Zn578   1.928   .     S
O571   Zn579   1.933   .     S
O572   Zn580   1.930   .     S
S573   O1294   1.503   1_554 S
C582   C592    1.442   .     S
C582   O650    1.270   .     A
C582   O652    1.265   .     A
C583   H619    1.080   .     S
C583   C584    1.397   .     A
C583   C606    1.408   .     A
C584   S659    1.778   .     S
C584   C1333   1.420   .     S
C585   O651    1.283   .     A
C585   C591    1.473   .     S
C585   O653    1.273   .     A
C586   C587    1.425   .     A
C586   C588    1.421   .     A
C586   C1331   1.420   1_554 S
C587   C590    1.415   .     A
C587   C607    1.418   .     A
C588   C589    1.412   .     A
C588   S656    1.784   .     S
C589   C601    1.411   .     A
C589   S658    1.781   .     S
C590   S657    1.795   .     S
C590   C601    1.405   .     A
C591   C675    1.351   .     S
C591   O715    1.387   .     S
C593   S660    1.788   .     S
C593   C602    1.410   .     A
C593   C600    1.426   .     A
C594   C597    1.464   .     S
C594   C97     1.334   1_565 S
C594   O136    1.386   1_565 S
C595   C596    1.436   .     S
C596   O635    1.281   .     A
C596   O654    1.278   .     A
C597   O655    1.266   .     A
C597   O646    1.272   .     A
C598   C601    1.463   .     S
C598   O627    1.271   .     A
C598   O625    1.279   .     A
C599   O628    1.293   .     A
C599   C600    1.483   .     S
C599   O626    1.281   .     A
C600   C603    1.398   .     A
C602   O645    1.380   .     S
C602   C605    1.417   .     A
C603   H617    1.080   .     S
C603   C604    1.402   .     A
C604   C605    1.418   .     A
C604   C606    1.423   .     A
C605   C1356   1.403   .     S
C606   C1354   1.411   .     S
C607   C608    1.406   .     A
C607   C1353   1.411   1_554 S
C608   H618    1.080   .     S
C608   C609    1.386   .     A
C609   H610    1.081   .     S
C609   C1352   1.403   1_554 S
H611   O638    0.991   .     S
H612   O641    0.990   .     S
H613   O644    0.991   .     S
H614   O1392   0.990   1_554 S
H615   O649    0.991   .     S
H616   C97     1.086   1_565 S
H621   O632    0.990   .     S
H622   O633    0.992   .     S
H623   O136    0.990   1_565 S
O624   Zn664   1.932   .     S
O624   Zn662   1.949   .     S
O624   Zn661   1.961   .     S
O624   Zn663   1.922   .     S
O625   Zn662   1.918   .     S
O626   Zn664   1.933   .     S
O627   Zn663   1.931   .     S
O628   Zn661   1.918   .     S
O629   S656    1.503   .     D
O630   S1403   1.503   .     S
O631   S656    1.682   .     S
O631   H703    0.990   .     S
O633   C675    1.385   .     S
O635   Zn661   1.927   .     S
O636   S657    1.503   .     D
O637   S657    1.503   .     D
O638   S657    1.683   .     S
O639   S658    1.502   .     D
O640   S658    1.504   .     D
O641   S658    1.683   .     S
O642   S659    1.503   .     D
O643   S659    1.504   .     D
O644   S659    1.681   .     S
O645   H1361   0.990   .     S
O646   Zn664   1.925   .     S
O647   S660    1.504   .     D
O648   S660    1.503   .     D
O649   S660    1.682   .     S
O650   Zn662   1.933   .     S
O651   Zn663   1.948   .     S
O652   Zn664   1.942   .     S
O653   Zn661   1.928   .     S
O654   Zn662   1.933   .     S
O655   Zn663   1.930   .     S
S656   O1377   1.503   1_554 S
C665   C675    1.442   .     S
C665   O733    1.270   .     A
C665   O735    1.265   .     A
C666   H702    1.080   .     S
C666   C667    1.397   .     A
C666   C689    1.408   .     A
C667   S742    1.778   .     S
C667   C1416   1.420   .     S
C668   O734    1.283   .     A
C668   C674    1.473   .     S
C668   O736    1.273   .     A
C669   C670    1.425   .     A
C669   C671    1.421   .     A
C669   C1414   1.420   1_554 S
C670   C673    1.415   .     A
C670   C690    1.418   .     A
C671   C672    1.412   .     A
C671   S739    1.784   .     S
C672   C684    1.411   .     A
C672   S741    1.781   .     S
C673   S740    1.795   .     S
C673   C684    1.405   .     A
C674   C509    1.351   1_655 S
C674   O549    1.387   1_655 S
C676   S743    1.788   .     S
C676   C685    1.410   .     A
C676   C683    1.426   .     A
C677   C680    1.464   .     S
C677   C180    1.334   1_565 S
C677   O219    1.386   1_565 S
C678   C679    1.436   .     S
C679   O718    1.281   .     A
C679   O737    1.278   .     A
C680   O738    1.266   .     A
C680   O729    1.272   .     A
C681   C684    1.463   .     S
C681   O710    1.271   .     A
C681   O708    1.279   .     A
C682   O711    1.293   .     A
C682   C683    1.483   .     S
C682   O709    1.281   .     A
C683   C686    1.398   .     A
C685   O728    1.380   .     S
C685   C688    1.417   .     A
C686   H700    1.080   .     S
C686   C687    1.402   .     A
C687   C688    1.418   .     A
C687   C689    1.423   .     A
C688   C1439   1.403   .     S
C689   C1437   1.411   .     S
C690   C691    1.406   .     A
C690   C1436   1.411   1_554 S
C691   H701    1.080   .     S
C691   C692    1.386   .     A
C692   H693    1.081   .     S
C692   C1435   1.403   1_554 S
H694   O721    0.991   .     S
H695   O724    0.990   .     S
H696   O727    0.991   .     S
H697   O1475   0.990   1_554 S
H698   O732    0.991   .     S
H699   C180    1.086   1_565 S
H704   O715    0.990   .     S
H705   O716    0.992   .     S
H706   O219    0.990   1_565 S
O707   Zn747   1.932   .     S
O707   Zn745   1.949   .     S
O707   Zn744   1.961   .     S
O707   Zn746   1.922   .     S
O708   Zn745   1.918   .     S
O709   Zn747   1.933   .     S
O710   Zn746   1.931   .     S
O711   Zn744   1.918   .     S
O712   S739    1.503   .     D
O713   S1486   1.503   .     S
O714   S739    1.682   .     S
O714   H537    0.990   1_655 S
O716   C509    1.385   1_655 S
O718   Zn744   1.927   .     S
O719   S740    1.503   .     D
O720   S740    1.503   .     D
O721   S740    1.683   .     S
O722   S741    1.502   .     D
O723   S741    1.504   .     D
O724   S741    1.683   .     S
O725   S742    1.503   .     D
O726   S742    1.504   .     D
O727   S742    1.681   .     S
O728   H1444   0.990   .     S
O729   Zn747   1.925   .     S
O730   S743    1.504   .     D
O731   S743    1.503   .     D
O732   S743    1.682   .     S
O733   Zn745   1.933   .     S
O734   Zn746   1.948   .     S
O735   Zn747   1.942   .     S
O736   Zn744   1.928   .     S
O737   Zn745   1.933   .     S
O738   Zn746   1.930   .     S
S739   O1460   1.503   1_554 S
C748   C758    1.442   .     S
C748   O816    1.270   .     A
C748   O818    1.265   .     A
C749   H785    1.080   .     S
C749   C750    1.397   .     A
C749   C772    1.408   .     A
C750   S825    1.778   .     S
C750   C5      1.420   1_556 S
C751   O817    1.283   .     A
C751   C757    1.473   .     S
C751   O819    1.273   .     A
C752   C753    1.425   .     A
C752   C754    1.421   .     A
C753   C756    1.415   .     A
C753   C773    1.418   .     A
C754   C755    1.412   .     A
C754   S822    1.784   .     S
C755   C767    1.411   .     A
C755   S824    1.781   .     S
C756   S823    1.795   .     S
C756   C767    1.405   .     A
C757   C841    1.351   .     S
C757   O881    1.387   .     S
C758   C923    1.351   1_455 S
C758   O965    1.385   1_455 S
C759   S826    1.788   .     S
C759   C768    1.410   .     A
C759   C766    1.426   .     A
C760   C763    1.464   .     S
C760   C1010   1.334   .     S
C760   O1049   1.386   .     S
C761   C762    1.436   .     S
C761   C1258   1.334   1_545 S
C761   H1280   1.086   1_545 S
C762   O801    1.281   .     A
C762   O820    1.278   .     A
C763   O821    1.266   .     A
C763   O812    1.272   .     A
C764   C767    1.463   .     S
C764   O793    1.271   .     A
C764   O791    1.279   .     A
C765   O794    1.293   .     A
C765   C766    1.483   .     S
C765   O792    1.281   .     A
C766   C769    1.398   .     A
C768   O811    1.380   .     S
C768   C771    1.417   .     A
C769   H783    1.080   .     S
C769   C770    1.402   .     A
C770   C771    1.418   .     A
C770   C772    1.423   .     A
C771   C28     1.403   1_556 S
C772   C26     1.411   1_556 S
C773   C774    1.406   .     A
C774   H784    1.080   .     S
C774   C775    1.386   .     A
C775   H776    1.081   .     S
H777   O804    0.991   .     S
H778   O807    0.990   .     S
H779   O810    0.991   .     S
H781   O815    0.991   .     S
H782   C1010   1.086   .     S
H786   O963    0.990   1_455 S
H787   O798    0.990   .     S
H788   O799    0.992   .     S
H789   O1049   0.990   .     S
O790   Zn830   1.932   .     S
O790   Zn828   1.949   .     S
O790   Zn827   1.961   .     S
O790   Zn829   1.922   .     S
O791   Zn828   1.918   .     S
O792   Zn830   1.933   .     S
O793   Zn829   1.931   .     S
O794   Zn827   1.918   .     S
O795   S822    1.503   .     D
O796   S75     1.503   1_556 S
O797   S822    1.682   .     S
O797   H869    0.990   .     S
O798   C923    1.387   1_455 S
O799   C841    1.385   .     S
O800   C1258   1.386   1_545 S
O800   H1287   0.990   1_545 S
O801   Zn827   1.927   .     S
O802   S823    1.503   .     D
O803   S823    1.503   .     D
O804   S823    1.683   .     S
O805   S824    1.502   .     D
O806   S824    1.504   .     D
O807   S824    1.683   .     S
O808   S825    1.503   .     D
O809   S825    1.504   .     D
O810   S825    1.681   .     S
O811   H33     0.990   1_556 S
O812   Zn830   1.925   .     S
O813   S826    1.504   .     D
O814   S826    1.503   .     D
O815   S826    1.682   .     S
O816   Zn828   1.933   .     S
O817   Zn829   1.948   .     S
O818   Zn830   1.942   .     S
O819   Zn827   1.928   .     S
O820   Zn828   1.933   .     S
O821   Zn829   1.930   .     S
C831   C841    1.442   .     S
C831   O899    1.270   .     A
C831   O901    1.265   .     A
C832   H868    1.080   .     S
C832   C833    1.397   .     A
C832   C855    1.408   .     A
C833   S908    1.778   .     S
C833   C88     1.420   1_556 S
C834   O900    1.283   .     A
C834   C840    1.473   .     S
C834   O902    1.273   .     A
C835   C836    1.425   .     A
C835   C837    1.421   .     A
C836   C839    1.415   .     A
C836   C856    1.418   .     A
C837   C838    1.412   .     A
C837   S905    1.784   .     S
C838   C850    1.411   .     A
C838   S907    1.781   .     S
C839   S906    1.795   .     S
C839   C850    1.405   .     A
C840   C924    1.351   .     S
C840   O964    1.387   .     S
C842   S909    1.788   .     S
C842   C851    1.410   .     A
C842   C849    1.426   .     A
C843   C846    1.464   .     S
C843   C1093   1.334   .     S
C843   O1132   1.386   .     S
C844   C845    1.436   .     S
C844   C1341   1.334   1_545 S
C844   H1363   1.086   1_545 S
C845   O884    1.281   .     A
C845   O903    1.278   .     A
C846   O904    1.266   .     A
C846   O895    1.272   .     A
C847   C850    1.463   .     S
C847   O876    1.271   .     A
C847   O874    1.279   .     A
C848   O877    1.293   .     A
C848   C849    1.483   .     S
C848   O875    1.281   .     A
C849   C852    1.398   .     A
C851   O894    1.380   .     S
C851   C854    1.417   .     A
C852   H866    1.080   .     S
C852   C853    1.402   .     A
C853   C854    1.418   .     A
C853   C855    1.423   .     A
C854   C111    1.403   1_556 S
C855   C109    1.411   1_556 S
C856   C857    1.406   .     A
C857   H867    1.080   .     S
C857   C858    1.386   .     A
C858   H859    1.081   .     S
H860   O887    0.991   .     S
H861   O890    0.990   .     S
H862   O893    0.991   .     S
H864   O898    0.991   .     S
H865   C1093   1.086   .     S
H870   O881    0.990   .     S
H871   O882    0.992   .     S
H872   O1132   0.990   .     S
O873   Zn913   1.932   .     S
O873   Zn911   1.949   .     S
O873   Zn910   1.961   .     S
O873   Zn912   1.922   .     S
O874   Zn911   1.918   .     S
O875   Zn913   1.933   .     S
O876   Zn912   1.931   .     S
O877   Zn910   1.918   .     S
O878   S905    1.503   .     D
O879   S158    1.503   1_556 S
O880   S905    1.682   .     S
O880   H952    0.990   .     S
O882   C924    1.385   .     S
O883   C1341   1.386   1_545 S
O883   H1370   0.990   1_545 S
O884   Zn910   1.927   .     S
O885   S906    1.503   .     D
O886   S906    1.503   .     D
O887   S906    1.683   .     S
O888   S907    1.502   .     D
O889   S907    1.504   .     D
O890   S907    1.683   .     S
O891   S908    1.503   .     D
O892   S908    1.504   .     D
O893   S908    1.681   .     S
O894   H116    0.990   1_556 S
O895   Zn913   1.925   .     S
O896   S909    1.504   .     D
O897   S909    1.503   .     D
O898   S909    1.682   .     S
O899   Zn911   1.933   .     S
O900   Zn912   1.948   .     S
O901   Zn913   1.942   .     S
O902   Zn910   1.928   .     S
O903   Zn911   1.933   .     S
O904   Zn912   1.930   .     S
C914   C924    1.442   .     S
C914   O982    1.270   .     A
C914   O984    1.265   .     A
C915   H951    1.080   .     S
C915   C916    1.397   .     A
C915   C938    1.408   .     A
C916   S991    1.778   .     S
C916   C171    1.420   1_556 S
C917   O983    1.283   .     A
C917   C923    1.473   .     S
C917   O985    1.273   .     A
C918   C919    1.425   .     A
C918   C920    1.421   .     A
C919   C922    1.415   .     A
C919   C939    1.418   .     A
C920   C921    1.412   .     A
C920   S988    1.784   .     S
C921   C933    1.411   .     A
C921   S990    1.781   .     S
C922   S989    1.795   .     S
C922   C933    1.405   .     A
C923   C758    1.351   1_655 S
C923   O798    1.387   1_655 S
C925   S992    1.788   .     S
C925   C934    1.410   .     A
C925   C932    1.426   .     A
C926   C929    1.464   .     S
C926   C1176   1.334   .     S
C926   O1215   1.386   .     S
C927   C928    1.436   .     S
C927   C1424   1.334   1_545 S
C927   H1446   1.086   1_545 S
C928   O967    1.281   .     A
C928   O986    1.278   .     A
C929   O987    1.266   .     A
C929   O978    1.272   .     A
C930   C933    1.463   .     S
C930   O959    1.271   .     A
C930   O957    1.279   .     A
C931   O960    1.293   .     A
C931   C932    1.483   .     S
C931   O958    1.281   .     A
C932   C935    1.398   .     A
C934   O977    1.380   .     S
C934   C937    1.417   .     A
C935   H949    1.080   .     S
C935   C936    1.402   .     A
C936   C937    1.418   .     A
C936   C938    1.423   .     A
C937   C194    1.403   1_556 S
C938   C192    1.411   1_556 S
C939   C940    1.406   .     A
C940   H950    1.080   .     S
C940   C941    1.386   .     A
C941   H942    1.081   .     S
H943   O970    0.991   .     S
H944   O973    0.990   .     S
H945   O976    0.991   .     S
H947   O981    0.991   .     S
H948   C1176   1.086   .     S
H953   O964    0.990   .     S
H954   O965    0.992   .     S
H955   O1215   0.990   .     S
O956   Zn996   1.932   .     S
O956   Zn994   1.949   .     S
O956   Zn993   1.961   .     S
O956   Zn995   1.922   .     S
O957   Zn994   1.918   .     S
O958   Zn996   1.933   .     S
O959   Zn995   1.931   .     S
O960   Zn993   1.918   .     S
O961   S988    1.503   .     D
O962   S241    1.503   1_556 S
O963   S988    1.682   .     S
O963   H786    0.990   1_655 S
O965   C758    1.385   1_655 S
O966   C1424   1.386   1_545 S
O966   H1453   0.990   1_545 S
O967   Zn993   1.927   .     S
O968   S989    1.503   .     D
O969   S989    1.503   .     D
O970   S989    1.683   .     S
O971   S990    1.502   .     D
O972   S990    1.504   .     D
O973   S990    1.683   .     S
O974   S991    1.503   .     D
O975   S991    1.504   .     D
O976   S991    1.681   .     S
O977   H199    0.990   1_556 S
O978   Zn996   1.925   .     S
O979   S992    1.504   .     D
O980   S992    1.503   .     D
O981   S992    1.682   .     S
O982   Zn994   1.933   .     S
O983   Zn995   1.948   .     S
O984   Zn996   1.942   .     S
O985   Zn993   1.928   .     S
O986   Zn994   1.933   .     S
O987   Zn995   1.930   .     S
C997   C1007   1.442   .     S
C997   O1065   1.270   .     A
C997   O1067   1.265   .     A
C998   H1034   1.080   .     S
C998   C999    1.397   .     A
C998   C1021   1.408   .     A
C999   S1074   1.778   .     S
C999   C254    1.420   1_556 S
C1000  O1066   1.283   .     A
C1000  C1006   1.473   .     S
C1000  O1068   1.273   .     A
C1001  C1002   1.425   .     A
C1001  C1003   1.421   .     A
C1002  C1005   1.415   .     A
C1002  C1022   1.418   .     A
C1003  C1004   1.412   .     A
C1003  S1071   1.784   .     S
C1004  C1016   1.411   .     A
C1004  S1073   1.781   .     S
C1005  S1072   1.795   .     S
C1005  C1016   1.405   .     A
C1006  C1090   1.351   .     S
C1006  O1130   1.387   .     S
C1007  C1172   1.351   1_455 S
C1007  O1214   1.385   1_455 S
C1008  S1075   1.788   .     S
C1008  C1017   1.410   .     A
C1008  C1015   1.426   .     A
C1009  C1012   1.464   .     S
C1009  C1259   1.334   .     S
C1009  O1298   1.386   .     S
C1010  C1011   1.436   .     S
C1011  O1050   1.281   .     A
C1011  O1069   1.278   .     A
C1012  O1070   1.266   .     A
C1012  O1061   1.272   .     A
C1013  C1016   1.463   .     S
C1013  O1042   1.271   .     A
C1013  O1040   1.279   .     A
C1014  O1043   1.293   .     A
C1014  C1015   1.483   .     S
C1014  O1041   1.281   .     A
C1015  C1018   1.398   .     A
C1017  O1060   1.380   .     S
C1017  C1020   1.417   .     A
C1018  H1032   1.080   .     S
C1018  C1019   1.402   .     A
C1019  C1020   1.418   .     A
C1019  C1021   1.423   .     A
C1020  C277    1.403   1_556 S
C1021  C275    1.411   1_556 S
C1022  C1023   1.406   .     A
C1023  H1033   1.080   .     S
C1023  C1024   1.386   .     A
C1024  H1025   1.081   .     S
H1026  O1053   0.991   .     S
H1027  O1056   0.990   .     S
H1028  O1059   0.991   .     S
H1030  O1064   0.991   .     S
H1031  C1259   1.086   .     S
H1035  O1212   0.990   1_455 S
H1036  O1047   0.990   .     S
H1037  O1048   0.992   .     S
H1038  O1298   0.990   .     S
O1039  Zn1079  1.932   .     S
O1039  Zn1077  1.949   .     S
O1039  Zn1076  1.961   .     S
O1039  Zn1078  1.922   .     S
O1040  Zn1077  1.918   .     S
O1041  Zn1079  1.933   .     S
O1042  Zn1078  1.931   .     S
O1043  Zn1076  1.918   .     S
O1044  S1071   1.503   .     D
O1045  S324    1.503   1_556 S
O1046  S1071   1.682   .     S
O1046  H1118   0.990   .     S
O1047  C1172   1.387   1_455 S
O1048  C1090   1.385   .     S
O1050  Zn1076  1.927   .     S
O1051  S1072   1.503   .     D
O1052  S1072   1.503   .     D
O1053  S1072   1.683   .     S
O1054  S1073   1.502   .     D
O1055  S1073   1.504   .     D
O1056  S1073   1.683   .     S
O1057  S1074   1.503   .     D
O1058  S1074   1.504   .     D
O1059  S1074   1.681   .     S
O1060  H282    0.990   1_556 S
O1061  Zn1079  1.925   .     S
O1062  S1075   1.504   .     D
O1063  S1075   1.503   .     D
O1064  S1075   1.682   .     S
O1065  Zn1077  1.933   .     S
O1066  Zn1078  1.948   .     S
O1067  Zn1079  1.942   .     S
O1068  Zn1076  1.928   .     S
O1069  Zn1077  1.933   .     S
O1070  Zn1078  1.930   .     S
C1080  C1090   1.442   .     S
C1080  O1148   1.270   .     A
C1080  O1150   1.265   .     A
C1081  H1117   1.080   .     S
C1081  C1082   1.397   .     A
C1081  C1104   1.408   .     A
C1082  S1157   1.778   .     S
C1082  C337    1.420   1_556 S
C1083  O1149   1.283   .     A
C1083  C1089   1.473   .     S
C1083  O1151   1.273   .     A
C1084  C1085   1.425   .     A
C1084  C1086   1.421   .     A
C1085  C1088   1.415   .     A
C1085  C1105   1.418   .     A
C1086  C1087   1.412   .     A
C1086  S1154   1.784   .     S
C1087  C1099   1.411   .     A
C1087  S1156   1.781   .     S
C1088  S1155   1.795   .     S
C1088  C1099   1.405   .     A
C1089  C1173   1.351   .     S
C1089  O1213   1.387   .     S
C1091  S1158   1.788   .     S
C1091  C1100   1.410   .     A
C1091  C1098   1.426   .     A
C1092  C1095   1.464   .     S
C1092  C1342   1.334   .     S
C1092  O1381   1.386   .     S
C1093  C1094   1.436   .     S
C1094  O1133   1.281   .     A
C1094  O1152   1.278   .     A
C1095  O1153   1.266   .     A
C1095  O1144   1.272   .     A
C1096  C1099   1.463   .     S
C1096  O1125   1.271   .     A
C1096  O1123   1.279   .     A
C1097  O1126   1.293   .     A
C1097  C1098   1.483   .     S
C1097  O1124   1.281   .     A
C1098  C1101   1.398   .     A
C1100  O1143   1.380   .     S
C1100  C1103   1.417   .     A
C1101  H1115   1.080   .     S
C1101  C1102   1.402   .     A
C1102  C1103   1.418   .     A
C1102  C1104   1.423   .     A
C1103  C360    1.403   1_556 S
C1104  C358    1.411   1_556 S
C1105  C1106   1.406   .     A
C1106  H1116   1.080   .     S
C1106  C1107   1.386   .     A
C1107  H1108   1.081   .     S
H1109  O1136   0.991   .     S
H1110  O1139   0.990   .     S
H1111  O1142   0.991   .     S
H1113  O1147   0.991   .     S
H1114  C1342   1.086   .     S
H1119  O1130   0.990   .     S
H1120  O1131   0.992   .     S
H1121  O1381   0.990   .     S
O1122  Zn1162  1.932   .     S
O1122  Zn1160  1.949   .     S
O1122  Zn1159  1.961   .     S
O1122  Zn1161  1.922   .     S
O1123  Zn1160  1.918   .     S
O1124  Zn1162  1.933   .     S
O1125  Zn1161  1.931   .     S
O1126  Zn1159  1.918   .     S
O1127  S1154   1.503   .     D
O1128  S407    1.503   1_556 S
O1129  S1154   1.682   .     S
O1129  H1201   0.990   .     S
O1131  C1173   1.385   .     S
O1133  Zn1159  1.927   .     S
O1134  S1155   1.503   .     D
O1135  S1155   1.503   .     D
O1136  S1155   1.683   .     S
O1137  S1156   1.502   .     D
O1138  S1156   1.504   .     D
O1139  S1156   1.683   .     S
O1140  S1157   1.503   .     D
O1141  S1157   1.504   .     D
O1142  S1157   1.681   .     S
O1143  H365    0.990   1_556 S
O1144  Zn1162  1.925   .     S
O1145  S1158   1.504   .     D
O1146  S1158   1.503   .     D
O1147  S1158   1.682   .     S
O1148  Zn1160  1.933   .     S
O1149  Zn1161  1.948   .     S
O1150  Zn1162  1.942   .     S
O1151  Zn1159  1.928   .     S
O1152  Zn1160  1.933   .     S
O1153  Zn1161  1.930   .     S
C1163  C1173   1.442   .     S
C1163  O1231   1.270   .     A
C1163  O1233   1.265   .     A
C1164  H1200   1.080   .     S
C1164  C1165   1.397   .     A
C1164  C1187   1.408   .     A
C1165  S1240   1.778   .     S
C1165  C420    1.420   1_556 S
C1166  O1232   1.283   .     A
C1166  C1172   1.473   .     S
C1166  O1234   1.273   .     A
C1167  C1168   1.425   .     A
C1167  C1169   1.421   .     A
C1168  C1171   1.415   .     A
C1168  C1188   1.418   .     A
C1169  C1170   1.412   .     A
C1169  S1237   1.784   .     S
C1170  C1182   1.411   .     A
C1170  S1239   1.781   .     S
C1171  S1238   1.795   .     S
C1171  C1182   1.405   .     A
C1172  C1007   1.351   1_655 S
C1172  O1047   1.387   1_655 S
C1174  S1241   1.788   .     S
C1174  C1183   1.410   .     A
C1174  C1181   1.426   .     A
C1175  C1178   1.464   .     S
C1175  C1425   1.334   .     S
C1175  O1464   1.386   .     S
C1176  C1177   1.436   .     S
C1177  O1216   1.281   .     A
C1177  O1235   1.278   .     A
C1178  O1236   1.266   .     A
C1178  O1227   1.272   .     A
C1179  C1182   1.463   .     S
C1179  O1208   1.271   .     A
C1179  O1206   1.279   .     A
C1180  O1209   1.293   .     A
C1180  C1181   1.483   .     S
C1180  O1207   1.281   .     A
C1181  C1184   1.398   .     A
C1183  O1226   1.380   .     S
C1183  C1186   1.417   .     A
C1184  H1198   1.080   .     S
C1184  C1185   1.402   .     A
C1185  C1186   1.418   .     A
C1185  C1187   1.423   .     A
C1186  C443    1.403   1_556 S
C1187  C441    1.411   1_556 S
C1188  C1189   1.406   .     A
C1189  H1199   1.080   .     S
C1189  C1190   1.386   .     A
C1190  H1191   1.081   .     S
H1192  O1219   0.991   .     S
H1193  O1222   0.990   .     S
H1194  O1225   0.991   .     S
H1196  O1230   0.991   .     S
H1197  C1425   1.086   .     S
H1202  O1213   0.990   .     S
H1203  O1214   0.992   .     S
H1204  O1464   0.990   .     S
O1205  Zn1245  1.932   .     S
O1205  Zn1243  1.949   .     S
O1205  Zn1242  1.961   .     S
O1205  Zn1244  1.922   .     S
O1206  Zn1243  1.918   .     S
O1207  Zn1245  1.933   .     S
O1208  Zn1244  1.931   .     S
O1209  Zn1242  1.918   .     S
O1210  S1237   1.503   .     D
O1211  S490    1.503   1_556 S
O1212  S1237   1.682   .     S
O1212  H1035   0.990   1_655 S
O1214  C1007   1.385   1_655 S
O1216  Zn1242  1.927   .     S
O1217  S1238   1.503   .     D
O1218  S1238   1.503   .     D
O1219  S1238   1.683   .     S
O1220  S1239   1.502   .     D
O1221  S1239   1.504   .     D
O1222  S1239   1.683   .     S
O1223  S1240   1.503   .     D
O1224  S1240   1.504   .     D
O1225  S1240   1.681   .     S
O1226  H448    0.990   1_556 S
O1227  Zn1245  1.925   .     S
O1228  S1241   1.504   .     D
O1229  S1241   1.503   .     D
O1230  S1241   1.682   .     S
O1231  Zn1243  1.933   .     S
O1232  Zn1244  1.948   .     S
O1233  Zn1245  1.942   .     S
O1234  Zn1242  1.928   .     S
O1235  Zn1243  1.933   .     S
O1236  Zn1244  1.930   .     S
C1246  C1256   1.442   .     S
C1246  O1314   1.270   .     A
C1246  O1316   1.265   .     A
C1247  H1283   1.080   .     S
C1247  C1248   1.397   .     A
C1247  C1270   1.408   .     A
C1248  S1323   1.778   .     S
C1248  C503    1.420   1_556 S
C1249  O1315   1.283   .     A
C1249  C1255   1.473   .     S
C1249  O1317   1.273   .     A
C1250  C1251   1.425   .     A
C1250  C1252   1.421   .     A
C1251  C1254   1.415   .     A
C1251  C1271   1.418   .     A
C1252  C1253   1.412   .     A
C1252  S1320   1.784   .     S
C1253  C1265   1.411   .     A
C1253  S1322   1.781   .     S
C1254  S1321   1.795   .     S
C1254  C1265   1.405   .     A
C1255  C1339   1.351   .     S
C1255  O1379   1.387   .     S
C1256  C1421   1.351   1_455 S
C1256  O1463   1.385   1_455 S
C1257  S1324   1.788   .     S
C1257  C1266   1.410   .     A
C1257  C1264   1.426   .     A
C1258  C1261   1.464   .     S
C1258  C761    1.334   1_565 S
C1258  O800    1.386   1_565 S
C1259  C1260   1.436   .     S
C1260  O1299   1.281   .     A
C1260  O1318   1.278   .     A
C1261  O1319   1.266   .     A
C1261  O1310   1.272   .     A
C1262  C1265   1.463   .     S
C1262  O1291   1.271   .     A
C1262  O1289   1.279   .     A
C1263  O1292   1.293   .     A
C1263  C1264   1.483   .     S
C1263  O1290   1.281   .     A
C1264  C1267   1.398   .     A
C1266  O1309   1.380   .     S
C1266  C1269   1.417   .     A
C1267  H1281   1.080   .     S
C1267  C1268   1.402   .     A
C1268  C1269   1.418   .     A
C1268  C1270   1.423   .     A
C1269  C526    1.403   1_556 S
C1270  C524    1.411   1_556 S
C1271  C1272   1.406   .     A
C1272  H1282   1.080   .     S
C1272  C1273   1.386   .     A
C1273  H1274   1.081   .     S
H1275  O1302   0.991   .     S
H1276  O1305   0.990   .     S
H1277  O1308   0.991   .     S
H1279  O1313   0.991   .     S
H1280  C761    1.086   1_565 S
H1284  O1461   0.990   1_455 S
H1285  O1296   0.990   .     S
H1286  O1297   0.992   .     S
H1287  O800    0.990   1_565 S
O1288  Zn1328  1.932   .     S
O1288  Zn1326  1.949   .     S
O1288  Zn1325  1.961   .     S
O1288  Zn1327  1.922   .     S
O1289  Zn1326  1.918   .     S
O1290  Zn1328  1.933   .     S
O1291  Zn1327  1.931   .     S
O1292  Zn1325  1.918   .     S
O1293  S1320   1.503   .     D
O1294  S573    1.503   1_556 S
O1295  S1320   1.682   .     S
O1295  H1367   0.990   .     S
O1296  C1421   1.387   1_455 S
O1297  C1339   1.385   .     S
O1299  Zn1325  1.927   .     S
O1300  S1321   1.503   .     D
O1301  S1321   1.503   .     D
O1302  S1321   1.683   .     S
O1303  S1322   1.502   .     D
O1304  S1322   1.504   .     D
O1305  S1322   1.683   .     S
O1306  S1323   1.503   .     D
O1307  S1323   1.504   .     D
O1308  S1323   1.681   .     S
O1309  H531    0.990   1_556 S
O1310  Zn1328  1.925   .     S
O1311  S1324   1.504   .     D
O1312  S1324   1.503   .     D
O1313  S1324   1.682   .     S
O1314  Zn1326  1.933   .     S
O1315  Zn1327  1.948   .     S
O1316  Zn1328  1.942   .     S
O1317  Zn1325  1.928   .     S
O1318  Zn1326  1.933   .     S
O1319  Zn1327  1.930   .     S
C1329  C1339   1.442   .     S
C1329  O1397   1.270   .     A
C1329  O1399   1.265   .     A
C1330  H1366   1.080   .     S
C1330  C1331   1.397   .     A
C1330  C1353   1.408   .     A
C1331  S1406   1.778   .     S
C1331  C586    1.420   1_556 S
C1332  O1398   1.283   .     A
C1332  C1338   1.473   .     S
C1332  O1400   1.273   .     A
C1333  C1334   1.425   .     A
C1333  C1335   1.421   .     A
C1334  C1337   1.415   .     A
C1334  C1354   1.418   .     A
C1335  C1336   1.412   .     A
C1335  S1403   1.784   .     S
C1336  C1348   1.411   .     A
C1336  S1405   1.781   .     S
C1337  S1404   1.795   .     S
C1337  C1348   1.405   .     A
C1338  C1422   1.351   .     S
C1338  O1462   1.387   .     S
C1340  S1407   1.788   .     S
C1340  C1349   1.410   .     A
C1340  C1347   1.426   .     A
C1341  C1344   1.464   .     S
C1341  C844    1.334   1_565 S
C1341  O883    1.386   1_565 S
C1342  C1343   1.436   .     S
C1343  O1382   1.281   .     A
C1343  O1401   1.278   .     A
C1344  O1402   1.266   .     A
C1344  O1393   1.272   .     A
C1345  C1348   1.463   .     S
C1345  O1374   1.271   .     A
C1345  O1372   1.279   .     A
C1346  O1375   1.293   .     A
C1346  C1347   1.483   .     S
C1346  O1373   1.281   .     A
C1347  C1350   1.398   .     A
C1349  O1392   1.380   .     S
C1349  C1352   1.417   .     A
C1350  H1364   1.080   .     S
C1350  C1351   1.402   .     A
C1351  C1352   1.418   .     A
C1351  C1353   1.423   .     A
C1352  C609    1.403   1_556 S
C1353  C607    1.411   1_556 S
C1354  C1355   1.406   .     A
C1355  H1365   1.080   .     S
C1355  C1356   1.386   .     A
C1356  H1357   1.081   .     S
H1358  O1385   0.991   .     S
H1359  O1388   0.990   .     S
H1360  O1391   0.991   .     S
H1362  O1396   0.991   .     S
H1363  C844    1.086   1_565 S
H1368  O1379   0.990   .     S
H1369  O1380   0.992   .     S
H1370  O883    0.990   1_565 S
O1371  Zn1411  1.932   .     S
O1371  Zn1409  1.949   .     S
O1371  Zn1408  1.961   .     S
O1371  Zn1410  1.922   .     S
O1372  Zn1409  1.918   .     S
O1373  Zn1411  1.933   .     S
O1374  Zn1410  1.931   .     S
O1375  Zn1408  1.918   .     S
O1376  S1403   1.503   .     D
O1377  S656    1.503   1_556 S
O1378  S1403   1.682   .     S
O1378  H1450   0.990   .     S
O1380  C1422   1.385   .     S
O1382  Zn1408  1.927   .     S
O1383  S1404   1.503   .     D
O1384  S1404   1.503   .     D
O1385  S1404   1.683   .     S
O1386  S1405   1.502   .     D
O1387  S1405   1.504   .     D
O1388  S1405   1.683   .     S
O1389  S1406   1.503   .     D
O1390  S1406   1.504   .     D
O1391  S1406   1.681   .     S
O1392  H614    0.990   1_556 S
O1393  Zn1411  1.925   .     S
O1394  S1407   1.504   .     D
O1395  S1407   1.503   .     D
O1396  S1407   1.682   .     S
O1397  Zn1409  1.933   .     S
O1398  Zn1410  1.948   .     S
O1399  Zn1411  1.942   .     S
O1400  Zn1408  1.928   .     S
O1401  Zn1409  1.933   .     S
O1402  Zn1410  1.930   .     S
C1412  C1422   1.442   .     S
C1412  O1480   1.270   .     A
C1412  O1482   1.265   .     A
C1413  H1449   1.080   .     S
C1413  C1414   1.397   .     A
C1413  C1436   1.408   .     A
C1414  S1489   1.778   .     S
C1414  C669    1.420   1_556 S
C1415  O1481   1.283   .     A
C1415  C1421   1.473   .     S
C1415  O1483   1.273   .     A
C1416  C1417   1.425   .     A
C1416  C1418   1.421   .     A
C1417  C1420   1.415   .     A
C1417  C1437   1.418   .     A
C1418  C1419   1.412   .     A
C1418  S1486   1.784   .     S
C1419  C1431   1.411   .     A
C1419  S1488   1.781   .     S
C1420  S1487   1.795   .     S
C1420  C1431   1.405   .     A
C1421  C1256   1.351   1_655 S
C1421  O1296   1.387   1_655 S
C1423  S1490   1.788   .     S
C1423  C1432   1.410   .     A
C1423  C1430   1.426   .     A
C1424  C1427   1.464   .     S
C1424  C927    1.334   1_565 S
C1424  O966    1.386   1_565 S
C1425  C1426   1.436   .     S
C1426  O1465   1.281   .     A
C1426  O1484   1.278   .     A
C1427  O1485   1.266   .     A
C1427  O1476   1.272   .     A
C1428  C1431   1.463   .     S
C1428  O1457   1.271   .     A
C1428  O1455   1.279   .     A
C1429  O1458   1.293   .     A
C1429  C1430   1.483   .     S
C1429  O1456   1.281   .     A
C1430  C1433   1.398   .     A
C1432  O1475   1.380   .     S
C1432  C1435   1.417   .     A
C1433  H1447   1.080   .     S
C1433  C1434   1.402   .     A
C1434  C1435   1.418   .     A
C1434  C1436   1.423   .     A
C1435  C692    1.403   1_556 S
C1436  C690    1.411   1_556 S
C1437  C1438   1.406   .     A
C1438  H1448   1.080   .     S
C1438  C1439   1.386   .     A
C1439  H1440   1.081   .     S
H1441  O1468   0.991   .     S
H1442  O1471   0.990   .     S
H1443  O1474   0.991   .     S
H1445  O1479   0.991   .     S
H1446  C927    1.086   1_565 S
H1451  O1462   0.990   .     S
H1452  O1463   0.992   .     S
H1453  O966    0.990   1_565 S
O1454  Zn1494  1.932   .     S
O1454  Zn1492  1.949   .     S
O1454  Zn1491  1.961   .     S
O1454  Zn1493  1.922   .     S
O1455  Zn1492  1.918   .     S
O1456  Zn1494  1.933   .     S
O1457  Zn1493  1.931   .     S
O1458  Zn1491  1.918   .     S
O1459  S1486   1.503   .     D
O1460  S739    1.503   1_556 S
O1461  S1486   1.682   .     S
O1461  H1284   0.990   1_655 S
O1463  C1256   1.385   1_655 S
O1465  Zn1491  1.927   .     S
O1466  S1487   1.503   .     D
O1467  S1487   1.503   .     D
O1468  S1487   1.683   .     S
O1469  S1488   1.502   .     D
O1470  S1488   1.504   .     D
O1471  S1488   1.683   .     S
O1472  S1489   1.503   .     D
O1473  S1489   1.504   .     D
O1474  S1489   1.681   .     S
O1475  H697    0.990   1_556 S
O1476  Zn1494  1.925   .     S
O1477  S1490   1.504   .     D
O1478  S1490   1.503   .     D
O1479  S1490   1.682   .     S
O1480  Zn1492  1.933   .     S
O1481  Zn1493  1.948   .     S
O1482  Zn1494  1.942   .     S
O1483  Zn1491  1.928   .     S
O1484  Zn1492  1.933   .     S
O1485  Zn1493  1.930   .     S
