data_str_m1_o10_o18_pcu_sym.236
_audit_creation_date              2020-01-03
_audit_creation_method            'Materials Studio'
_symmetry_space_group_name_H-M    'P1'
_symmetry_Int_Tables_number       1
_symmetry_cell_setting            triclinic
loop_
_symmetry_equiv_pos_as_xyz
  x,y,z
_cell_length_a                    32.5737
_cell_length_b                    32.5711
_cell_length_c                    35.6575
_cell_angle_alpha                 98.1197
_cell_angle_beta                  72.9683
_cell_angle_gamma                 98.5542
loop_
_atom_site_label
_atom_site_type_symbol
_atom_site_fract_x
_atom_site_fract_y
_atom_site_fract_z
_atom_site_U_iso_or_equiv
_atom_site_adp_type
_atom_site_occupancy
C1     C     0.05275   0.16022   0.25841   0.00000  Uiso   1.00
C2     C     0.21196   0.14468   0.45812   0.00000  Uiso   1.00
C3     C     0.23658   0.12821   0.47718   0.00000  Uiso   1.00
C4     C     0.28102   0.17353   0.24142   0.00000  Uiso   1.00
C5     C     0.22686   0.13448   0.01870   0.00000  Uiso   1.00
C6     C     0.19262   0.15864   0.04000   0.00000  Uiso   1.00
C7     C     0.24959   0.11625   0.03938   0.00000  Uiso   1.00
C8     C     0.23490   0.11927   0.08082   0.00000  Uiso   1.00
C9     C     0.17451   0.15493   0.08076   0.00000  Uiso   1.00
C10    C     0.32687   0.17448   0.23780   0.00000  Uiso   1.00
C11    C     0.00693   0.15679   0.26343   0.00000  Uiso   1.00
C12    C     0.10499   0.22038   0.42151   0.00000  Uiso   1.00
C13    C     0.18292   0.32338   0.24178   0.00000  Uiso   1.00
C14    C     0.15001   0.01203   0.26217   0.00000  Uiso   1.00
C15    C     0.15577   0.05626   0.25890   0.00000  Uiso   1.00
C16    C     0.17718   0.27787   0.24184   0.00000  Uiso   1.00
C17    C     0.18802   0.14563   0.14399   0.00000  Uiso   1.00
C18    C     0.14632   0.18853   0.35600   0.00000  Uiso   1.00
C19    C     0.14023   0.19974   0.39851   0.00000  Uiso   1.00
C20    C     0.19781   0.13799   0.10119   0.00000  Uiso   1.00
C21    C     0.10021   0.23149   0.46160   0.00000  Uiso   1.00
C22    C     0.31930   0.09913   0.03483   0.00000  Uiso   1.00
C23    C     0.17096   0.19097   0.41605   0.00000  Uiso   1.00
C24    C     0.00614   0.14475   0.03938   0.00000  Uiso   1.00
C25    C     0.04507   0.14795   0.05562   0.00000  Uiso   1.00
C26    C     0.31935   0.10366   0.30497   0.00000  Uiso   1.00
C27    C     0.30134   0.06830   0.27885   0.00000  Uiso   1.00
C28    C     0.30790   0.02566   0.28775   0.00000  Uiso   1.00
C29    C     0.08884   0.00828   0.31568   0.00000  Uiso   1.00
C30    C     0.10180   0.31975   0.34517   0.00000  Uiso   1.00
C31    C     0.08004   0.00253   0.38764   0.00000  Uiso   1.00
C32    C     0.30270   0.12450   0.43293   0.00000  Uiso   1.00
C33    C     0.00347   0.09531   0.41146   0.00000  Uiso   1.00
C34    C     0.16127   0.19408   0.45766   0.00000  Uiso   1.00
C35    C     0.04481   0.11958   0.38854   0.00000  Uiso   1.00
C36    C     0.23980   0.22199   0.39417   0.00000  Uiso   1.00
C37    C     0.28247   0.21808   0.36220   0.00000  Uiso   1.00
C38    C     0.31446   0.25719   0.36369   0.00000  Uiso   1.00
C39    C     0.12810   0.21845   0.47982   0.00000  Uiso   1.00
C40    C     0.18356   0.17443   0.47782   0.00000  Uiso   1.00
C41    C     0.17524   0.18306   0.01932   0.00000  Uiso   1.00
C42    C     0.15073   0.21650   0.03851   0.00000  Uiso   1.00
C43    C     0.12485   0.23145   0.01938   0.00000  Uiso   1.00
H44    H     0.10299   0.25417   0.03515   0.00000  Uiso   1.00
H45    H     0.31553   0.16429   0.05995   0.00000  Uiso   1.00
H46    H     0.03609   0.13295   0.08347   0.00000  Uiso   1.00
H47    H     0.05638   0.18128   0.06215   0.00000  Uiso   1.00
H48    H     0.07182   0.13274   0.03374   0.00000  Uiso   1.00
H49    H     0.30201   0.09937   0.33624   0.00000  Uiso   1.00
H50    H     0.02067   0.10175   0.30194   0.00000  Uiso   1.00
H51    H     0.26622   0.06985   0.28405   0.00000  Uiso   1.00
H52    H     0.31781   0.07193   0.24727   0.00000  Uiso   1.00
H53    H     0.00960   0.02286   0.28111   0.00000  Uiso   1.00
H54    H     0.29360   0.00074   0.26912   0.00000  Uiso   1.00
H55    H     0.01686   0.18872   0.21315   0.00000  Uiso   1.00
H56    H     0.29190   0.02118   0.31924   0.00000  Uiso   1.00
H57    H     0.24316   0.32384   0.21058   0.00000  Uiso   1.00
H58    H     0.05328   0.00166   0.32092   0.00000  Uiso   1.00
H59    H     0.09567   0.04275   0.32114   0.00000  Uiso   1.00
H60    H     0.09216   0.28561   0.34077   0.00000  Uiso   1.00
H61    H     0.13742   0.32510   0.34005   0.00000  Uiso   1.00
H62    H     0.09102   0.03616   0.39341   0.00000  Uiso   1.00
H63    H     0.08879   0.31830   0.40816   0.00000  Uiso   1.00
H64    H     0.04434   0.33154   0.39339   0.00000  Uiso   1.00
H65    H     0.12194   0.15510   0.12535   0.00000  Uiso   1.00
H66    H     0.25125   0.10620   0.09791   0.00000  Uiso   1.00
H67    H     0.31669   0.14891   0.45243   0.00000  Uiso   1.00
H68    H     0.29430   0.13968   0.41051   0.00000  Uiso   1.00
H69    H     0.01114   0.07858   0.43324   0.00000  Uiso   1.00
H70    H     0.32395   0.07178   0.39071   0.00000  Uiso   1.00
H71    H     0.03793   0.13773   0.36738   0.00000  Uiso   1.00
H72    H     0.06839   0.09766   0.37187   0.00000  Uiso   1.00
H73    H     0.05943   0.14118   0.40931   0.00000  Uiso   1.00
H74    H     0.24646   0.22788   0.42348   0.00000  Uiso   1.00
H75    H     0.22545   0.24915   0.38925   0.00000  Uiso   1.00
H76    H     0.29706   0.19086   0.36617   0.00000  Uiso   1.00
H77    H     0.07415   0.24942   0.47854   0.00000  Uiso   1.00
H78    H     0.27611   0.21299   0.33282   0.00000  Uiso   1.00
H79    H     0.30090   0.28492   0.35930   0.00000  Uiso   1.00
H80    H     0.01155   0.25322   0.33989   0.00000  Uiso   1.00
H81    H     0.32206   0.26244   0.39251   0.00000  Uiso   1.00
H82    H     0.13587   0.25879   0.08334   0.00000  Uiso   1.00
H83    H     0.08185   0.22889   0.40830   0.00000  Uiso   1.00
H84    H     0.21557   0.13303   0.42765   0.00000  Uiso   1.00
H85    H     0.01132   0.08106   0.01425   0.00000  Uiso   1.00
H86    H     0.31057   0.08445   0.06277   0.00000  Uiso   1.00
H87    H     0.01654   0.15738   0.01026   0.00000  Uiso   1.00
O88    O     0.16667   0.16667   0.25000   0.00000  Uiso   1.00
O89    O     0.15693   0.12393   0.16625   0.00000  Uiso   1.00
O90    O     0.12687   0.20646   0.33749   0.00000  Uiso   1.00
O91    O     0.21088   0.17493   0.15877   0.00000  Uiso   1.00
O92    O     0.17198   0.16135   0.33749   0.00000  Uiso   1.00
O93    O     0.28426   0.09427   0.01795   0.00000  Uiso   1.00
O94    O     0.31135   0.14299   0.29779   0.00000  Uiso   1.00
O95    O     0.22198   0.01091   0.22222   0.00000  Uiso   1.00
O96    O     0.10839   0.32545   0.27645   0.00000  Uiso   1.00
O97    O     0.13287   0.16489   0.09884   0.00000  Uiso   1.00
O98    O     0.26587   0.10111   0.45534   0.00000  Uiso   1.00
O99    O     0.17849   0.08101   0.27821   0.00000  Uiso   1.00
O100   O     0.21196   0.18449   0.39213   0.00000  Uiso   1.00
O101   O     0.15453   0.23584   0.07463   0.00000  Uiso   1.00
O102   O     0.14581   0.26136   0.26767   0.00000  Uiso   1.00
O103   O     0.07452   0.13251   0.23607   0.00000  Uiso   1.00
O104   O     0.26785   0.19179   0.21806   0.00000  Uiso   1.00
O105   O     0.06990   0.18960   0.27820   0.00000  Uiso   1.00
O106   O     0.25440   0.15277   0.26768   0.00000  Uiso   1.00
O107   O     0.13800   0.06903   0.23607   0.00000  Uiso   1.00
O108   O     0.20437   0.25527   0.21806   0.00000  Uiso   1.00
Zn109  Zn    0.19244   0.14090   0.28278   0.00000  Uiso   1.00
Zn110  Zn    0.13459   0.12378   0.22258   0.00000  Uiso   1.00
Zn111  Zn    0.21166   0.19664   0.21188   0.00000  Uiso   1.00
Zn112  Zn    0.12798   0.20535   0.28277   0.00000  Uiso   1.00
C113   C     0.38608   0.16022   0.25841   0.00000  Uiso   1.00
C114   C     0.54529   0.14468   0.45812   0.00000  Uiso   1.00
C115   C     0.56991   0.12821   0.47718   0.00000  Uiso   1.00
C116   C     0.61435   0.17353   0.24142   0.00000  Uiso   1.00
C117   C     0.56020   0.13448   0.01870   0.00000  Uiso   1.00
C118   C     0.52595   0.15864   0.04000   0.00000  Uiso   1.00
C119   C     0.58292   0.11625   0.03938   0.00000  Uiso   1.00
C120   C     0.56824   0.11927   0.08082   0.00000  Uiso   1.00
C121   C     0.50784   0.15493   0.08076   0.00000  Uiso   1.00
C122   C     0.66020   0.17448   0.23780   0.00000  Uiso   1.00
C123   C     0.34026   0.15679   0.26343   0.00000  Uiso   1.00
C124   C     0.43832   0.22038   0.42151   0.00000  Uiso   1.00
C125   C     0.51625   0.32338   0.24178   0.00000  Uiso   1.00
C126   C     0.48334   0.01203   0.26217   0.00000  Uiso   1.00
C127   C     0.48910   0.05626   0.25890   0.00000  Uiso   1.00
C128   C     0.51052   0.27787   0.24184   0.00000  Uiso   1.00
C129   C     0.52135   0.14563   0.14399   0.00000  Uiso   1.00
C130   C     0.47965   0.18853   0.35600   0.00000  Uiso   1.00
C131   C     0.47357   0.19974   0.39851   0.00000  Uiso   1.00
C132   C     0.53114   0.13799   0.10119   0.00000  Uiso   1.00
C133   C     0.43355   0.23149   0.46160   0.00000  Uiso   1.00
C134   C     0.65264   0.09913   0.03483   0.00000  Uiso   1.00
C135   C     0.50429   0.19097   0.41605   0.00000  Uiso   1.00
C136   C     0.33947   0.14475   0.03938   0.00000  Uiso   1.00
C137   C     0.37840   0.14795   0.05562   0.00000  Uiso   1.00
C138   C     0.65268   0.10366   0.30497   0.00000  Uiso   1.00
C139   C     0.63467   0.06830   0.27885   0.00000  Uiso   1.00
C140   C     0.64123   0.02566   0.28775   0.00000  Uiso   1.00
C141   C     0.42218   0.00828   0.31568   0.00000  Uiso   1.00
C142   C     0.43513   0.31975   0.34517   0.00000  Uiso   1.00
C143   C     0.41338   0.00253   0.38764   0.00000  Uiso   1.00
C144   C     0.63604   0.12450   0.43293   0.00000  Uiso   1.00
C145   C     0.33681   0.09531   0.41146   0.00000  Uiso   1.00
C146   C     0.49460   0.19408   0.45766   0.00000  Uiso   1.00
C147   C     0.37815   0.11958   0.38854   0.00000  Uiso   1.00
C148   C     0.57313   0.22199   0.39417   0.00000  Uiso   1.00
C149   C     0.61580   0.21808   0.36220   0.00000  Uiso   1.00
C150   C     0.64779   0.25719   0.36369   0.00000  Uiso   1.00
C151   C     0.46143   0.21845   0.47982   0.00000  Uiso   1.00
C152   C     0.51690   0.17443   0.47782   0.00000  Uiso   1.00
C153   C     0.50858   0.18306   0.01932   0.00000  Uiso   1.00
C154   C     0.48406   0.21650   0.03851   0.00000  Uiso   1.00
C155   C     0.45818   0.23145   0.01938   0.00000  Uiso   1.00
H156   H     0.43633   0.25417   0.03515   0.00000  Uiso   1.00
H157   H     0.64886   0.16429   0.05995   0.00000  Uiso   1.00
H158   H     0.36943   0.13295   0.08347   0.00000  Uiso   1.00
H159   H     0.38971   0.18128   0.06215   0.00000  Uiso   1.00
H160   H     0.40515   0.13274   0.03374   0.00000  Uiso   1.00
H161   H     0.63535   0.09937   0.33624   0.00000  Uiso   1.00
H162   H     0.35400   0.10175   0.30194   0.00000  Uiso   1.00
H163   H     0.59955   0.06985   0.28405   0.00000  Uiso   1.00
H164   H     0.65115   0.07193   0.24727   0.00000  Uiso   1.00
H165   H     0.34293   0.02286   0.28111   0.00000  Uiso   1.00
H166   H     0.62694   0.00074   0.26912   0.00000  Uiso   1.00
H167   H     0.35019   0.18872   0.21315   0.00000  Uiso   1.00
H168   H     0.62523   0.02118   0.31924   0.00000  Uiso   1.00
H169   H     0.57649   0.32384   0.21058   0.00000  Uiso   1.00
H170   H     0.38662   0.00166   0.32092   0.00000  Uiso   1.00
H171   H     0.42900   0.04275   0.32114   0.00000  Uiso   1.00
H172   H     0.42549   0.28561   0.34077   0.00000  Uiso   1.00
H173   H     0.47076   0.32510   0.34005   0.00000  Uiso   1.00
H174   H     0.42436   0.03616   0.39341   0.00000  Uiso   1.00
H175   H     0.42213   0.31830   0.40816   0.00000  Uiso   1.00
H176   H     0.37768   0.33154   0.39339   0.00000  Uiso   1.00
H177   H     0.45527   0.15510   0.12535   0.00000  Uiso   1.00
H178   H     0.58458   0.10620   0.09791   0.00000  Uiso   1.00
H179   H     0.65002   0.14891   0.45243   0.00000  Uiso   1.00
H180   H     0.62763   0.13968   0.41051   0.00000  Uiso   1.00
H181   H     0.34447   0.07858   0.43324   0.00000  Uiso   1.00
H182   H     0.65729   0.07178   0.39071   0.00000  Uiso   1.00
H183   H     0.37127   0.13773   0.36738   0.00000  Uiso   1.00
H184   H     0.40172   0.09766   0.37187   0.00000  Uiso   1.00
H185   H     0.39277   0.14118   0.40931   0.00000  Uiso   1.00
H186   H     0.57980   0.22788   0.42348   0.00000  Uiso   1.00
H187   H     0.55879   0.24915   0.38925   0.00000  Uiso   1.00
H188   H     0.63040   0.19086   0.36617   0.00000  Uiso   1.00
H189   H     0.40748   0.24942   0.47854   0.00000  Uiso   1.00
H190   H     0.60945   0.21299   0.33282   0.00000  Uiso   1.00
H191   H     0.63424   0.28492   0.35930   0.00000  Uiso   1.00
H192   H     0.34488   0.25322   0.33989   0.00000  Uiso   1.00
H193   H     0.65539   0.26244   0.39251   0.00000  Uiso   1.00
H194   H     0.46920   0.25879   0.08334   0.00000  Uiso   1.00
H195   H     0.41519   0.22889   0.40830   0.00000  Uiso   1.00
H196   H     0.54890   0.13303   0.42765   0.00000  Uiso   1.00
H197   H     0.34465   0.08106   0.01425   0.00000  Uiso   1.00
H198   H     0.64391   0.08445   0.06277   0.00000  Uiso   1.00
H199   H     0.34987   0.15738   0.01026   0.00000  Uiso   1.00
O200   O     0.50000   0.16667   0.25000   0.00000  Uiso   1.00
O201   O     0.49027   0.12393   0.16625   0.00000  Uiso   1.00
O202   O     0.46020   0.20646   0.33749   0.00000  Uiso   1.00
O203   O     0.54421   0.17493   0.15877   0.00000  Uiso   1.00
O204   O     0.50532   0.16135   0.33749   0.00000  Uiso   1.00
O205   O     0.61760   0.09427   0.01795   0.00000  Uiso   1.00
O206   O     0.64468   0.14299   0.29779   0.00000  Uiso   1.00
O207   O     0.55531   0.01091   0.22222   0.00000  Uiso   1.00
O208   O     0.44172   0.32545   0.27645   0.00000  Uiso   1.00
O209   O     0.46620   0.16489   0.09884   0.00000  Uiso   1.00
O210   O     0.59921   0.10111   0.45534   0.00000  Uiso   1.00
O211   O     0.51182   0.08101   0.27821   0.00000  Uiso   1.00
O212   O     0.54529   0.18449   0.39213   0.00000  Uiso   1.00
O213   O     0.48787   0.23584   0.07463   0.00000  Uiso   1.00
O214   O     0.47914   0.26136   0.26767   0.00000  Uiso   1.00
O215   O     0.40785   0.13251   0.23607   0.00000  Uiso   1.00
O216   O     0.60119   0.19179   0.21806   0.00000  Uiso   1.00
O217   O     0.40323   0.18960   0.27820   0.00000  Uiso   1.00
O218   O     0.58773   0.15277   0.26768   0.00000  Uiso   1.00
O219   O     0.47133   0.06903   0.23607   0.00000  Uiso   1.00
O220   O     0.53771   0.25527   0.21806   0.00000  Uiso   1.00
Zn221  Zn    0.52577   0.14090   0.28278   0.00000  Uiso   1.00
Zn222  Zn    0.46792   0.12378   0.22258   0.00000  Uiso   1.00
Zn223  Zn    0.54500   0.19664   0.21188   0.00000  Uiso   1.00
Zn224  Zn    0.46131   0.20535   0.28277   0.00000  Uiso   1.00
C225   C     0.71942   0.16022   0.25841   0.00000  Uiso   1.00
C226   C     0.87862   0.14468   0.45812   0.00000  Uiso   1.00
C227   C     0.90324   0.12821   0.47718   0.00000  Uiso   1.00
C228   C     0.94769   0.17353   0.24142   0.00000  Uiso   1.00
C229   C     0.89353   0.13448   0.01870   0.00000  Uiso   1.00
C230   C     0.85929   0.15864   0.04000   0.00000  Uiso   1.00
C231   C     0.91626   0.11625   0.03938   0.00000  Uiso   1.00
C232   C     0.90157   0.11927   0.08082   0.00000  Uiso   1.00
C233   C     0.84118   0.15493   0.08076   0.00000  Uiso   1.00
C234   C     0.99354   0.17448   0.23780   0.00000  Uiso   1.00
C235   C     0.67360   0.15679   0.26343   0.00000  Uiso   1.00
C236   C     0.77166   0.22038   0.42151   0.00000  Uiso   1.00
C237   C     0.84958   0.32338   0.24178   0.00000  Uiso   1.00
C238   C     0.81667   0.01203   0.26217   0.00000  Uiso   1.00
C239   C     0.82244   0.05626   0.25890   0.00000  Uiso   1.00
C240   C     0.84385   0.27787   0.24184   0.00000  Uiso   1.00
C241   C     0.85468   0.14563   0.14399   0.00000  Uiso   1.00
C242   C     0.81298   0.18853   0.35600   0.00000  Uiso   1.00
C243   C     0.80690   0.19974   0.39851   0.00000  Uiso   1.00
C244   C     0.86448   0.13799   0.10119   0.00000  Uiso   1.00
C245   C     0.76688   0.23149   0.46160   0.00000  Uiso   1.00
C246   C     0.98597   0.09913   0.03483   0.00000  Uiso   1.00
C247   C     0.83762   0.19097   0.41605   0.00000  Uiso   1.00
C248   C     0.67281   0.14475   0.03938   0.00000  Uiso   1.00
C249   C     0.71173   0.14795   0.05562   0.00000  Uiso   1.00
C250   C     0.98601   0.10366   0.30497   0.00000  Uiso   1.00
C251   C     0.96800   0.06830   0.27885   0.00000  Uiso   1.00
C252   C     0.97457   0.02566   0.28775   0.00000  Uiso   1.00
C253   C     0.75551   0.00828   0.31568   0.00000  Uiso   1.00
C254   C     0.76846   0.31975   0.34517   0.00000  Uiso   1.00
C255   C     0.74671   0.00253   0.38764   0.00000  Uiso   1.00
C256   C     0.96937   0.12450   0.43293   0.00000  Uiso   1.00
C257   C     0.67014   0.09531   0.41146   0.00000  Uiso   1.00
C258   C     0.82794   0.19408   0.45766   0.00000  Uiso   1.00
C259   C     0.71148   0.11958   0.38854   0.00000  Uiso   1.00
C260   C     0.90646   0.22199   0.39417   0.00000  Uiso   1.00
C261   C     0.94913   0.21808   0.36220   0.00000  Uiso   1.00
C262   C     0.98112   0.25719   0.36369   0.00000  Uiso   1.00
C263   C     0.79477   0.21845   0.47982   0.00000  Uiso   1.00
C264   C     0.85023   0.17443   0.47782   0.00000  Uiso   1.00
C265   C     0.84191   0.18306   0.01932   0.00000  Uiso   1.00
C266   C     0.81739   0.21650   0.03851   0.00000  Uiso   1.00
C267   C     0.79151   0.23145   0.01938   0.00000  Uiso   1.00
H268   H     0.76966   0.25417   0.03515   0.00000  Uiso   1.00
H269   H     0.98220   0.16429   0.05995   0.00000  Uiso   1.00
H270   H     0.70276   0.13295   0.08347   0.00000  Uiso   1.00
H271   H     0.72304   0.18128   0.06215   0.00000  Uiso   1.00
H272   H     0.73848   0.13274   0.03374   0.00000  Uiso   1.00
H273   H     0.96868   0.09937   0.33624   0.00000  Uiso   1.00
H274   H     0.68734   0.10175   0.30194   0.00000  Uiso   1.00
H275   H     0.93289   0.06985   0.28405   0.00000  Uiso   1.00
H276   H     0.98448   0.07193   0.24727   0.00000  Uiso   1.00
H277   H     0.67627   0.02286   0.28111   0.00000  Uiso   1.00
H278   H     0.96027   0.00074   0.26912   0.00000  Uiso   1.00
H279   H     0.68352   0.18872   0.21315   0.00000  Uiso   1.00
H280   H     0.95857   0.02118   0.31924   0.00000  Uiso   1.00
H281   H     0.90983   0.32384   0.21058   0.00000  Uiso   1.00
H282   H     0.71995   0.00166   0.32092   0.00000  Uiso   1.00
H283   H     0.76233   0.04275   0.32114   0.00000  Uiso   1.00
H284   H     0.75883   0.28561   0.34077   0.00000  Uiso   1.00
H285   H     0.80409   0.32510   0.34005   0.00000  Uiso   1.00
H286   H     0.75769   0.03616   0.39341   0.00000  Uiso   1.00
H287   H     0.75546   0.31830   0.40816   0.00000  Uiso   1.00
H288   H     0.71101   0.33154   0.39339   0.00000  Uiso   1.00
H289   H     0.78860   0.15510   0.12535   0.00000  Uiso   1.00
H290   H     0.91791   0.10620   0.09791   0.00000  Uiso   1.00
H291   H     0.98336   0.14891   0.45243   0.00000  Uiso   1.00
H292   H     0.96097   0.13968   0.41051   0.00000  Uiso   1.00
H293   H     0.67781   0.07858   0.43324   0.00000  Uiso   1.00
H294   H     0.99062   0.07178   0.39071   0.00000  Uiso   1.00
H295   H     0.70460   0.13773   0.36738   0.00000  Uiso   1.00
H296   H     0.73505   0.09766   0.37187   0.00000  Uiso   1.00
H297   H     0.72610   0.14118   0.40931   0.00000  Uiso   1.00
H298   H     0.91313   0.22788   0.42348   0.00000  Uiso   1.00
H299   H     0.89212   0.24915   0.38925   0.00000  Uiso   1.00
H300   H     0.96373   0.19086   0.36617   0.00000  Uiso   1.00
H301   H     0.74082   0.24942   0.47854   0.00000  Uiso   1.00
H302   H     0.94278   0.21299   0.33282   0.00000  Uiso   1.00
H303   H     0.96757   0.28492   0.35930   0.00000  Uiso   1.00
H304   H     0.67821   0.25322   0.33989   0.00000  Uiso   1.00
H305   H     0.98873   0.26244   0.39251   0.00000  Uiso   1.00
H306   H     0.80254   0.25879   0.08334   0.00000  Uiso   1.00
H307   H     0.74852   0.22889   0.40830   0.00000  Uiso   1.00
H308   H     0.88224   0.13303   0.42765   0.00000  Uiso   1.00
H309   H     0.67798   0.08106   0.01425   0.00000  Uiso   1.00
H310   H     0.97724   0.08445   0.06277   0.00000  Uiso   1.00
H311   H     0.68321   0.15738   0.01026   0.00000  Uiso   1.00
O312   O     0.83333   0.16667   0.25000   0.00000  Uiso   1.00
O313   O     0.82360   0.12393   0.16625   0.00000  Uiso   1.00
O314   O     0.79354   0.20646   0.33749   0.00000  Uiso   1.00
O315   O     0.87755   0.17493   0.15877   0.00000  Uiso   1.00
O316   O     0.83865   0.16135   0.33749   0.00000  Uiso   1.00
O317   O     0.95093   0.09427   0.01795   0.00000  Uiso   1.00
O318   O     0.97801   0.14299   0.29779   0.00000  Uiso   1.00
O319   O     0.88865   0.01091   0.22222   0.00000  Uiso   1.00
O320   O     0.77506   0.32545   0.27645   0.00000  Uiso   1.00
O321   O     0.79954   0.16489   0.09884   0.00000  Uiso   1.00
O322   O     0.93254   0.10111   0.45534   0.00000  Uiso   1.00
O323   O     0.84515   0.08101   0.27821   0.00000  Uiso   1.00
O324   O     0.87863   0.18449   0.39213   0.00000  Uiso   1.00
O325   O     0.82120   0.23584   0.07463   0.00000  Uiso   1.00
O326   O     0.81247   0.26136   0.26767   0.00000  Uiso   1.00
O327   O     0.74119   0.13251   0.23607   0.00000  Uiso   1.00
O328   O     0.93452   0.19179   0.21806   0.00000  Uiso   1.00
O329   O     0.73656   0.18960   0.27820   0.00000  Uiso   1.00
O330   O     0.92106   0.15277   0.26768   0.00000  Uiso   1.00
O331   O     0.80467   0.06903   0.23607   0.00000  Uiso   1.00
O332   O     0.87104   0.25527   0.21806   0.00000  Uiso   1.00
Zn333  Zn    0.85910   0.14090   0.28278   0.00000  Uiso   1.00
Zn334  Zn    0.80125   0.12378   0.22258   0.00000  Uiso   1.00
Zn335  Zn    0.87833   0.19664   0.21188   0.00000  Uiso   1.00
Zn336  Zn    0.79465   0.20535   0.28277   0.00000  Uiso   1.00
C337   C     0.05275   0.49355   0.25841   0.00000  Uiso   1.00
C338   C     0.21196   0.47802   0.45812   0.00000  Uiso   1.00
C339   C     0.23658   0.46154   0.47718   0.00000  Uiso   1.00
C340   C     0.28102   0.50686   0.24142   0.00000  Uiso   1.00
C341   C     0.22686   0.46782   0.01870   0.00000  Uiso   1.00
C342   C     0.19262   0.49198   0.04000   0.00000  Uiso   1.00
C343   C     0.24959   0.44958   0.03938   0.00000  Uiso   1.00
C344   C     0.23490   0.45260   0.08082   0.00000  Uiso   1.00
C345   C     0.17451   0.48826   0.08076   0.00000  Uiso   1.00
C346   C     0.32687   0.50781   0.23780   0.00000  Uiso   1.00
C347   C     0.00693   0.49013   0.26343   0.00000  Uiso   1.00
C348   C     0.10499   0.55371   0.42151   0.00000  Uiso   1.00
C349   C     0.18292   0.65671   0.24178   0.00000  Uiso   1.00
C350   C     0.15001   0.34536   0.26217   0.00000  Uiso   1.00
C351   C     0.15577   0.38959   0.25890   0.00000  Uiso   1.00
C352   C     0.17718   0.61121   0.24184   0.00000  Uiso   1.00
C353   C     0.18802   0.47897   0.14399   0.00000  Uiso   1.00
C354   C     0.14632   0.52186   0.35600   0.00000  Uiso   1.00
C355   C     0.14023   0.53307   0.39851   0.00000  Uiso   1.00
C356   C     0.19781   0.47133   0.10119   0.00000  Uiso   1.00
C357   C     0.10021   0.56482   0.46160   0.00000  Uiso   1.00
C358   C     0.31930   0.43247   0.03483   0.00000  Uiso   1.00
C359   C     0.17096   0.52430   0.41605   0.00000  Uiso   1.00
C360   C     0.00614   0.47808   0.03938   0.00000  Uiso   1.00
C361   C     0.04507   0.48128   0.05562   0.00000  Uiso   1.00
C362   C     0.31935   0.43700   0.30497   0.00000  Uiso   1.00
C363   C     0.30134   0.40163   0.27885   0.00000  Uiso   1.00
C364   C     0.30790   0.35899   0.28775   0.00000  Uiso   1.00
C365   C     0.08884   0.34161   0.31568   0.00000  Uiso   1.00
C366   C     0.10180   0.65308   0.34517   0.00000  Uiso   1.00
C367   C     0.08004   0.33586   0.38764   0.00000  Uiso   1.00
C368   C     0.30270   0.45784   0.43293   0.00000  Uiso   1.00
C369   C     0.00347   0.42864   0.41146   0.00000  Uiso   1.00
C370   C     0.16127   0.52741   0.45766   0.00000  Uiso   1.00
C371   C     0.04481   0.45291   0.38854   0.00000  Uiso   1.00
C372   C     0.23980   0.55532   0.39417   0.00000  Uiso   1.00
C373   C     0.28247   0.55142   0.36220   0.00000  Uiso   1.00
C374   C     0.31446   0.59052   0.36369   0.00000  Uiso   1.00
C375   C     0.12810   0.55178   0.47982   0.00000  Uiso   1.00
C376   C     0.18356   0.50776   0.47782   0.00000  Uiso   1.00
C377   C     0.17524   0.51639   0.01932   0.00000  Uiso   1.00
C378   C     0.15073   0.54983   0.03851   0.00000  Uiso   1.00
C379   C     0.12485   0.56478   0.01938   0.00000  Uiso   1.00
H380   H     0.10299   0.58751   0.03515   0.00000  Uiso   1.00
H381   H     0.31553   0.49762   0.05995   0.00000  Uiso   1.00
H382   H     0.03609   0.46629   0.08347   0.00000  Uiso   1.00
H383   H     0.05638   0.51461   0.06215   0.00000  Uiso   1.00
H384   H     0.07182   0.46607   0.03374   0.00000  Uiso   1.00
H385   H     0.30201   0.43270   0.33624   0.00000  Uiso   1.00
H386   H     0.02067   0.43509   0.30194   0.00000  Uiso   1.00
H387   H     0.26622   0.40318   0.28405   0.00000  Uiso   1.00
H388   H     0.31781   0.40527   0.24727   0.00000  Uiso   1.00
H389   H     0.00960   0.35619   0.28111   0.00000  Uiso   1.00
H390   H     0.29360   0.33408   0.26912   0.00000  Uiso   1.00
H391   H     0.01686   0.52205   0.21315   0.00000  Uiso   1.00
H392   H     0.29190   0.35451   0.31924   0.00000  Uiso   1.00
H393   H     0.24316   0.65717   0.21058   0.00000  Uiso   1.00
H394   H     0.05328   0.33499   0.32092   0.00000  Uiso   1.00
H395   H     0.09567   0.37609   0.32114   0.00000  Uiso   1.00
H396   H     0.09216   0.61894   0.34077   0.00000  Uiso   1.00
H397   H     0.13742   0.65843   0.34005   0.00000  Uiso   1.00
H398   H     0.09102   0.36949   0.39341   0.00000  Uiso   1.00
H399   H     0.08879   0.65163   0.40816   0.00000  Uiso   1.00
H400   H     0.04434   0.66487   0.39339   0.00000  Uiso   1.00
H401   H     0.12194   0.48843   0.12535   0.00000  Uiso   1.00
H402   H     0.25125   0.43953   0.09791   0.00000  Uiso   1.00
H403   H     0.31669   0.48224   0.45243   0.00000  Uiso   1.00
H404   H     0.29430   0.47301   0.41051   0.00000  Uiso   1.00
H405   H     0.01114   0.41191   0.43324   0.00000  Uiso   1.00
H406   H     0.32395   0.40511   0.39071   0.00000  Uiso   1.00
H407   H     0.03793   0.47106   0.36738   0.00000  Uiso   1.00
H408   H     0.06839   0.43099   0.37187   0.00000  Uiso   1.00
H409   H     0.05943   0.47451   0.40931   0.00000  Uiso   1.00
H410   H     0.24646   0.56122   0.42348   0.00000  Uiso   1.00
H411   H     0.22545   0.58249   0.38925   0.00000  Uiso   1.00
H412   H     0.29706   0.52419   0.36617   0.00000  Uiso   1.00
H413   H     0.07415   0.58276   0.47854   0.00000  Uiso   1.00
H414   H     0.27611   0.54632   0.33282   0.00000  Uiso   1.00
H415   H     0.30090   0.61825   0.35930   0.00000  Uiso   1.00
H416   H     0.01155   0.58656   0.33989   0.00000  Uiso   1.00
H417   H     0.32206   0.59577   0.39251   0.00000  Uiso   1.00
H418   H     0.13587   0.59212   0.08334   0.00000  Uiso   1.00
H419   H     0.08185   0.56222   0.40830   0.00000  Uiso   1.00
H420   H     0.21557   0.46636   0.42765   0.00000  Uiso   1.00
H421   H     0.01132   0.41439   0.01425   0.00000  Uiso   1.00
H422   H     0.31057   0.41779   0.06277   0.00000  Uiso   1.00
H423   H     0.01654   0.49071   0.01026   0.00000  Uiso   1.00
O424   O     0.16667   0.50000   0.25000   0.00000  Uiso   1.00
O425   O     0.15693   0.45726   0.16625   0.00000  Uiso   1.00
O426   O     0.12687   0.53979   0.33749   0.00000  Uiso   1.00
O427   O     0.21088   0.50826   0.15877   0.00000  Uiso   1.00
O428   O     0.17198   0.49468   0.33749   0.00000  Uiso   1.00
O429   O     0.28426   0.42760   0.01795   0.00000  Uiso   1.00
O430   O     0.31135   0.47633   0.29779   0.00000  Uiso   1.00
O431   O     0.22198   0.34424   0.22222   0.00000  Uiso   1.00
O432   O     0.10839   0.65878   0.27645   0.00000  Uiso   1.00
O433   O     0.13287   0.49822   0.09884   0.00000  Uiso   1.00
O434   O     0.26587   0.43444   0.45534   0.00000  Uiso   1.00
O435   O     0.17849   0.41434   0.27821   0.00000  Uiso   1.00
O436   O     0.21196   0.51783   0.39213   0.00000  Uiso   1.00
O437   O     0.15453   0.56917   0.07463   0.00000  Uiso   1.00
O438   O     0.14581   0.59469   0.26767   0.00000  Uiso   1.00
O439   O     0.07452   0.46584   0.23607   0.00000  Uiso   1.00
O440   O     0.26785   0.52512   0.21806   0.00000  Uiso   1.00
O441   O     0.06990   0.52293   0.27820   0.00000  Uiso   1.00
O442   O     0.25440   0.48610   0.26768   0.00000  Uiso   1.00
O443   O     0.13800   0.40236   0.23607   0.00000  Uiso   1.00
O444   O     0.20437   0.58860   0.21806   0.00000  Uiso   1.00
Zn445  Zn    0.19244   0.47423   0.28278   0.00000  Uiso   1.00
Zn446  Zn    0.13459   0.45711   0.22258   0.00000  Uiso   1.00
Zn447  Zn    0.21166   0.52997   0.21188   0.00000  Uiso   1.00
Zn448  Zn    0.12798   0.53868   0.28277   0.00000  Uiso   1.00
C449   C     0.38608   0.49355   0.25841   0.00000  Uiso   1.00
C450   C     0.54529   0.47802   0.45812   0.00000  Uiso   1.00
C451   C     0.56991   0.46154   0.47718   0.00000  Uiso   1.00
C452   C     0.61435   0.50686   0.24142   0.00000  Uiso   1.00
C453   C     0.56020   0.46782   0.01870   0.00000  Uiso   1.00
C454   C     0.52595   0.49198   0.04000   0.00000  Uiso   1.00
C455   C     0.58292   0.44958   0.03938   0.00000  Uiso   1.00
C456   C     0.56824   0.45260   0.08082   0.00000  Uiso   1.00
C457   C     0.50784   0.48826   0.08076   0.00000  Uiso   1.00
C458   C     0.66020   0.50781   0.23780   0.00000  Uiso   1.00
C459   C     0.34026   0.49013   0.26343   0.00000  Uiso   1.00
C460   C     0.43832   0.55371   0.42151   0.00000  Uiso   1.00
C461   C     0.51625   0.65671   0.24178   0.00000  Uiso   1.00
C462   C     0.48334   0.34536   0.26217   0.00000  Uiso   1.00
C463   C     0.48910   0.38959   0.25890   0.00000  Uiso   1.00
C464   C     0.51052   0.61121   0.24184   0.00000  Uiso   1.00
C465   C     0.52135   0.47897   0.14399   0.00000  Uiso   1.00
C466   C     0.47965   0.52186   0.35600   0.00000  Uiso   1.00
C467   C     0.47357   0.53307   0.39851   0.00000  Uiso   1.00
C468   C     0.53114   0.47133   0.10119   0.00000  Uiso   1.00
C469   C     0.43355   0.56482   0.46160   0.00000  Uiso   1.00
C470   C     0.65264   0.43247   0.03483   0.00000  Uiso   1.00
C471   C     0.50429   0.52430   0.41605   0.00000  Uiso   1.00
C472   C     0.33947   0.47808   0.03938   0.00000  Uiso   1.00
C473   C     0.37840   0.48128   0.05562   0.00000  Uiso   1.00
C474   C     0.65268   0.43700   0.30497   0.00000  Uiso   1.00
C475   C     0.63467   0.40163   0.27885   0.00000  Uiso   1.00
C476   C     0.64123   0.35899   0.28775   0.00000  Uiso   1.00
C477   C     0.42218   0.34161   0.31568   0.00000  Uiso   1.00
C478   C     0.43513   0.65308   0.34517   0.00000  Uiso   1.00
C479   C     0.41338   0.33586   0.38764   0.00000  Uiso   1.00
C480   C     0.63604   0.45784   0.43293   0.00000  Uiso   1.00
C481   C     0.33681   0.42864   0.41146   0.00000  Uiso   1.00
C482   C     0.49460   0.52741   0.45766   0.00000  Uiso   1.00
C483   C     0.37815   0.45291   0.38854   0.00000  Uiso   1.00
C484   C     0.57313   0.55532   0.39417   0.00000  Uiso   1.00
C485   C     0.61580   0.55142   0.36220   0.00000  Uiso   1.00
C486   C     0.64779   0.59052   0.36369   0.00000  Uiso   1.00
C487   C     0.46143   0.55178   0.47982   0.00000  Uiso   1.00
C488   C     0.51690   0.50776   0.47782   0.00000  Uiso   1.00
C489   C     0.50858   0.51639   0.01932   0.00000  Uiso   1.00
C490   C     0.48406   0.54983   0.03851   0.00000  Uiso   1.00
C491   C     0.45818   0.56478   0.01938   0.00000  Uiso   1.00
H492   H     0.43633   0.58751   0.03515   0.00000  Uiso   1.00
H493   H     0.64886   0.49762   0.05995   0.00000  Uiso   1.00
H494   H     0.36943   0.46629   0.08347   0.00000  Uiso   1.00
H495   H     0.38971   0.51461   0.06215   0.00000  Uiso   1.00
H496   H     0.40515   0.46607   0.03374   0.00000  Uiso   1.00
H497   H     0.63535   0.43270   0.33624   0.00000  Uiso   1.00
H498   H     0.35400   0.43509   0.30194   0.00000  Uiso   1.00
H499   H     0.59955   0.40318   0.28405   0.00000  Uiso   1.00
H500   H     0.65115   0.40527   0.24727   0.00000  Uiso   1.00
H501   H     0.34293   0.35619   0.28111   0.00000  Uiso   1.00
H502   H     0.62694   0.33408   0.26912   0.00000  Uiso   1.00
H503   H     0.35019   0.52205   0.21315   0.00000  Uiso   1.00
H504   H     0.62523   0.35451   0.31924   0.00000  Uiso   1.00
H505   H     0.57649   0.65717   0.21058   0.00000  Uiso   1.00
H506   H     0.38662   0.33499   0.32092   0.00000  Uiso   1.00
H507   H     0.42900   0.37609   0.32114   0.00000  Uiso   1.00
H508   H     0.42549   0.61894   0.34077   0.00000  Uiso   1.00
H509   H     0.47076   0.65843   0.34005   0.00000  Uiso   1.00
H510   H     0.42436   0.36949   0.39341   0.00000  Uiso   1.00
H511   H     0.42213   0.65163   0.40816   0.00000  Uiso   1.00
H512   H     0.37768   0.66487   0.39339   0.00000  Uiso   1.00
H513   H     0.45527   0.48843   0.12535   0.00000  Uiso   1.00
H514   H     0.58458   0.43953   0.09791   0.00000  Uiso   1.00
H515   H     0.65002   0.48224   0.45243   0.00000  Uiso   1.00
H516   H     0.62763   0.47301   0.41051   0.00000  Uiso   1.00
H517   H     0.34447   0.41191   0.43324   0.00000  Uiso   1.00
H518   H     0.65729   0.40511   0.39071   0.00000  Uiso   1.00
H519   H     0.37127   0.47106   0.36738   0.00000  Uiso   1.00
H520   H     0.40172   0.43099   0.37187   0.00000  Uiso   1.00
H521   H     0.39277   0.47451   0.40931   0.00000  Uiso   1.00
H522   H     0.57980   0.56122   0.42348   0.00000  Uiso   1.00
H523   H     0.55879   0.58249   0.38925   0.00000  Uiso   1.00
H524   H     0.63040   0.52419   0.36617   0.00000  Uiso   1.00
H525   H     0.40748   0.58276   0.47854   0.00000  Uiso   1.00
H526   H     0.60945   0.54632   0.33282   0.00000  Uiso   1.00
H527   H     0.63424   0.61825   0.35930   0.00000  Uiso   1.00
H528   H     0.34488   0.58656   0.33989   0.00000  Uiso   1.00
H529   H     0.65539   0.59577   0.39251   0.00000  Uiso   1.00
H530   H     0.46920   0.59212   0.08334   0.00000  Uiso   1.00
H531   H     0.41519   0.56222   0.40830   0.00000  Uiso   1.00
H532   H     0.54890   0.46636   0.42765   0.00000  Uiso   1.00
H533   H     0.34465   0.41439   0.01425   0.00000  Uiso   1.00
H534   H     0.64391   0.41779   0.06277   0.00000  Uiso   1.00
H535   H     0.34987   0.49071   0.01026   0.00000  Uiso   1.00
O536   O     0.50000   0.50000   0.25000   0.00000  Uiso   1.00
O537   O     0.49027   0.45726   0.16625   0.00000  Uiso   1.00
O538   O     0.46020   0.53979   0.33749   0.00000  Uiso   1.00
O539   O     0.54421   0.50826   0.15877   0.00000  Uiso   1.00
O540   O     0.50532   0.49468   0.33749   0.00000  Uiso   1.00
O541   O     0.61760   0.42760   0.01795   0.00000  Uiso   1.00
O542   O     0.64468   0.47633   0.29779   0.00000  Uiso   1.00
O543   O     0.55531   0.34424   0.22222   0.00000  Uiso   1.00
O544   O     0.44172   0.65878   0.27645   0.00000  Uiso   1.00
O545   O     0.46620   0.49822   0.09884   0.00000  Uiso   1.00
O546   O     0.59921   0.43444   0.45534   0.00000  Uiso   1.00
O547   O     0.51182   0.41434   0.27821   0.00000  Uiso   1.00
O548   O     0.54529   0.51783   0.39213   0.00000  Uiso   1.00
O549   O     0.48787   0.56917   0.07463   0.00000  Uiso   1.00
O550   O     0.47914   0.59469   0.26767   0.00000  Uiso   1.00
O551   O     0.40785   0.46584   0.23607   0.00000  Uiso   1.00
O552   O     0.60119   0.52512   0.21806   0.00000  Uiso   1.00
O553   O     0.40323   0.52293   0.27820   0.00000  Uiso   1.00
O554   O     0.58773   0.48610   0.26768   0.00000  Uiso   1.00
O555   O     0.47133   0.40236   0.23607   0.00000  Uiso   1.00
O556   O     0.53771   0.58860   0.21806   0.00000  Uiso   1.00
Zn557  Zn    0.52577   0.47423   0.28278   0.00000  Uiso   1.00
Zn558  Zn    0.46792   0.45711   0.22258   0.00000  Uiso   1.00
Zn559  Zn    0.54500   0.52997   0.21188   0.00000  Uiso   1.00
Zn560  Zn    0.46131   0.53868   0.28277   0.00000  Uiso   1.00
C561   C     0.71942   0.49355   0.25841   0.00000  Uiso   1.00
C562   C     0.87862   0.47802   0.45812   0.00000  Uiso   1.00
C563   C     0.90324   0.46154   0.47718   0.00000  Uiso   1.00
C564   C     0.94769   0.50686   0.24142   0.00000  Uiso   1.00
C565   C     0.89353   0.46782   0.01870   0.00000  Uiso   1.00
C566   C     0.85929   0.49198   0.04000   0.00000  Uiso   1.00
C567   C     0.91626   0.44958   0.03938   0.00000  Uiso   1.00
C568   C     0.90157   0.45260   0.08082   0.00000  Uiso   1.00
C569   C     0.84118   0.48826   0.08076   0.00000  Uiso   1.00
C570   C     0.99354   0.50781   0.23780   0.00000  Uiso   1.00
C571   C     0.67360   0.49013   0.26343   0.00000  Uiso   1.00
C572   C     0.77166   0.55371   0.42151   0.00000  Uiso   1.00
C573   C     0.84958   0.65671   0.24178   0.00000  Uiso   1.00
C574   C     0.81667   0.34536   0.26217   0.00000  Uiso   1.00
C575   C     0.82244   0.38959   0.25890   0.00000  Uiso   1.00
C576   C     0.84385   0.61121   0.24184   0.00000  Uiso   1.00
C577   C     0.85468   0.47897   0.14399   0.00000  Uiso   1.00
C578   C     0.81298   0.52186   0.35600   0.00000  Uiso   1.00
C579   C     0.80690   0.53307   0.39851   0.00000  Uiso   1.00
C580   C     0.86448   0.47133   0.10119   0.00000  Uiso   1.00
C581   C     0.76688   0.56482   0.46160   0.00000  Uiso   1.00
C582   C     0.98597   0.43247   0.03483   0.00000  Uiso   1.00
C583   C     0.83762   0.52430   0.41605   0.00000  Uiso   1.00
C584   C     0.67281   0.47808   0.03938   0.00000  Uiso   1.00
C585   C     0.71173   0.48128   0.05562   0.00000  Uiso   1.00
C586   C     0.98601   0.43700   0.30497   0.00000  Uiso   1.00
C587   C     0.96800   0.40163   0.27885   0.00000  Uiso   1.00
C588   C     0.97457   0.35899   0.28775   0.00000  Uiso   1.00
C589   C     0.75551   0.34161   0.31568   0.00000  Uiso   1.00
C590   C     0.76846   0.65308   0.34517   0.00000  Uiso   1.00
C591   C     0.74671   0.33586   0.38764   0.00000  Uiso   1.00
C592   C     0.96937   0.45784   0.43293   0.00000  Uiso   1.00
C593   C     0.67014   0.42864   0.41146   0.00000  Uiso   1.00
C594   C     0.82794   0.52741   0.45766   0.00000  Uiso   1.00
C595   C     0.71148   0.45291   0.38854   0.00000  Uiso   1.00
C596   C     0.90646   0.55532   0.39417   0.00000  Uiso   1.00
C597   C     0.94913   0.55142   0.36220   0.00000  Uiso   1.00
C598   C     0.98112   0.59052   0.36369   0.00000  Uiso   1.00
C599   C     0.79477   0.55178   0.47982   0.00000  Uiso   1.00
C600   C     0.85023   0.50776   0.47782   0.00000  Uiso   1.00
C601   C     0.84191   0.51639   0.01932   0.00000  Uiso   1.00
C602   C     0.81739   0.54983   0.03851   0.00000  Uiso   1.00
C603   C     0.79151   0.56478   0.01938   0.00000  Uiso   1.00
H604   H     0.76966   0.58751   0.03515   0.00000  Uiso   1.00
H605   H     0.98220   0.49762   0.05995   0.00000  Uiso   1.00
H606   H     0.70276   0.46629   0.08347   0.00000  Uiso   1.00
H607   H     0.72304   0.51461   0.06215   0.00000  Uiso   1.00
H608   H     0.73848   0.46607   0.03374   0.00000  Uiso   1.00
H609   H     0.96868   0.43270   0.33624   0.00000  Uiso   1.00
H610   H     0.68734   0.43509   0.30194   0.00000  Uiso   1.00
H611   H     0.93289   0.40318   0.28405   0.00000  Uiso   1.00
H612   H     0.98448   0.40527   0.24727   0.00000  Uiso   1.00
H613   H     0.67627   0.35619   0.28111   0.00000  Uiso   1.00
H614   H     0.96027   0.33408   0.26912   0.00000  Uiso   1.00
H615   H     0.68352   0.52205   0.21315   0.00000  Uiso   1.00
H616   H     0.95857   0.35451   0.31924   0.00000  Uiso   1.00
H617   H     0.90983   0.65717   0.21058   0.00000  Uiso   1.00
H618   H     0.71995   0.33499   0.32092   0.00000  Uiso   1.00
H619   H     0.76233   0.37609   0.32114   0.00000  Uiso   1.00
H620   H     0.75883   0.61894   0.34077   0.00000  Uiso   1.00
H621   H     0.80409   0.65843   0.34005   0.00000  Uiso   1.00
H622   H     0.75769   0.36949   0.39341   0.00000  Uiso   1.00
H623   H     0.75546   0.65163   0.40816   0.00000  Uiso   1.00
H624   H     0.71101   0.66487   0.39339   0.00000  Uiso   1.00
H625   H     0.78860   0.48843   0.12535   0.00000  Uiso   1.00
H626   H     0.91791   0.43953   0.09791   0.00000  Uiso   1.00
H627   H     0.98336   0.48224   0.45243   0.00000  Uiso   1.00
H628   H     0.96097   0.47301   0.41051   0.00000  Uiso   1.00
H629   H     0.67781   0.41191   0.43324   0.00000  Uiso   1.00
H630   H     0.99062   0.40511   0.39071   0.00000  Uiso   1.00
H631   H     0.70460   0.47106   0.36738   0.00000  Uiso   1.00
H632   H     0.73505   0.43099   0.37187   0.00000  Uiso   1.00
H633   H     0.72610   0.47451   0.40931   0.00000  Uiso   1.00
H634   H     0.91313   0.56122   0.42348   0.00000  Uiso   1.00
H635   H     0.89212   0.58249   0.38925   0.00000  Uiso   1.00
H636   H     0.96373   0.52419   0.36617   0.00000  Uiso   1.00
H637   H     0.74082   0.58276   0.47854   0.00000  Uiso   1.00
H638   H     0.94278   0.54632   0.33282   0.00000  Uiso   1.00
H639   H     0.96757   0.61825   0.35930   0.00000  Uiso   1.00
H640   H     0.67821   0.58656   0.33989   0.00000  Uiso   1.00
H641   H     0.98873   0.59577   0.39251   0.00000  Uiso   1.00
H642   H     0.80254   0.59212   0.08334   0.00000  Uiso   1.00
H643   H     0.74852   0.56222   0.40830   0.00000  Uiso   1.00
H644   H     0.88224   0.46636   0.42765   0.00000  Uiso   1.00
H645   H     0.67798   0.41439   0.01425   0.00000  Uiso   1.00
H646   H     0.97724   0.41779   0.06277   0.00000  Uiso   1.00
H647   H     0.68321   0.49071   0.01026   0.00000  Uiso   1.00
O648   O     0.83333   0.50000   0.25000   0.00000  Uiso   1.00
O649   O     0.82360   0.45726   0.16625   0.00000  Uiso   1.00
O650   O     0.79354   0.53979   0.33749   0.00000  Uiso   1.00
O651   O     0.87755   0.50826   0.15877   0.00000  Uiso   1.00
O652   O     0.83865   0.49468   0.33749   0.00000  Uiso   1.00
O653   O     0.95093   0.42760   0.01795   0.00000  Uiso   1.00
O654   O     0.97801   0.47633   0.29779   0.00000  Uiso   1.00
O655   O     0.88865   0.34424   0.22222   0.00000  Uiso   1.00
O656   O     0.77506   0.65878   0.27645   0.00000  Uiso   1.00
O657   O     0.79954   0.49822   0.09884   0.00000  Uiso   1.00
O658   O     0.93254   0.43444   0.45534   0.00000  Uiso   1.00
O659   O     0.84515   0.41434   0.27821   0.00000  Uiso   1.00
O660   O     0.87863   0.51783   0.39213   0.00000  Uiso   1.00
O661   O     0.82120   0.56917   0.07463   0.00000  Uiso   1.00
O662   O     0.81247   0.59469   0.26767   0.00000  Uiso   1.00
O663   O     0.74119   0.46584   0.23607   0.00000  Uiso   1.00
O664   O     0.93452   0.52512   0.21806   0.00000  Uiso   1.00
O665   O     0.73656   0.52293   0.27820   0.00000  Uiso   1.00
O666   O     0.92106   0.48610   0.26768   0.00000  Uiso   1.00
O667   O     0.80467   0.40236   0.23607   0.00000  Uiso   1.00
O668   O     0.87104   0.58860   0.21806   0.00000  Uiso   1.00
Zn669  Zn    0.85910   0.47423   0.28278   0.00000  Uiso   1.00
Zn670  Zn    0.80125   0.45711   0.22258   0.00000  Uiso   1.00
Zn671  Zn    0.87833   0.52997   0.21188   0.00000  Uiso   1.00
Zn672  Zn    0.79465   0.53868   0.28277   0.00000  Uiso   1.00
C673   C     0.05275   0.82689   0.25841   0.00000  Uiso   1.00
C674   C     0.21196   0.81135   0.45812   0.00000  Uiso   1.00
C675   C     0.23658   0.79487   0.47718   0.00000  Uiso   1.00
C676   C     0.28102   0.84019   0.24142   0.00000  Uiso   1.00
C677   C     0.22686   0.80115   0.01870   0.00000  Uiso   1.00
C678   C     0.19262   0.82531   0.04000   0.00000  Uiso   1.00
C679   C     0.24959   0.78291   0.03938   0.00000  Uiso   1.00
C680   C     0.23490   0.78594   0.08082   0.00000  Uiso   1.00
C681   C     0.17451   0.82159   0.08076   0.00000  Uiso   1.00
C682   C     0.32687   0.84115   0.23780   0.00000  Uiso   1.00
C683   C     0.00693   0.82346   0.26343   0.00000  Uiso   1.00
C684   C     0.10499   0.88705   0.42151   0.00000  Uiso   1.00
C685   C     0.18292   0.99005   0.24178   0.00000  Uiso   1.00
C686   C     0.15001   0.67870   0.26217   0.00000  Uiso   1.00
C687   C     0.15577   0.72292   0.25890   0.00000  Uiso   1.00
C688   C     0.17718   0.94454   0.24184   0.00000  Uiso   1.00
C689   C     0.18802   0.81230   0.14399   0.00000  Uiso   1.00
C690   C     0.14632   0.85519   0.35600   0.00000  Uiso   1.00
C691   C     0.14023   0.86641   0.39851   0.00000  Uiso   1.00
C692   C     0.19781   0.80466   0.10119   0.00000  Uiso   1.00
C693   C     0.10021   0.89815   0.46160   0.00000  Uiso   1.00
C694   C     0.31930   0.76580   0.03483   0.00000  Uiso   1.00
C695   C     0.17096   0.85764   0.41605   0.00000  Uiso   1.00
C696   C     0.00614   0.81141   0.03938   0.00000  Uiso   1.00
C697   C     0.04507   0.81461   0.05562   0.00000  Uiso   1.00
C698   C     0.31935   0.77033   0.30497   0.00000  Uiso   1.00
C699   C     0.30134   0.73496   0.27885   0.00000  Uiso   1.00
C700   C     0.30790   0.69232   0.28775   0.00000  Uiso   1.00
C701   C     0.08884   0.67494   0.31568   0.00000  Uiso   1.00
C702   C     0.10180   0.98641   0.34517   0.00000  Uiso   1.00
C703   C     0.08004   0.66920   0.38764   0.00000  Uiso   1.00
C704   C     0.30270   0.79117   0.43293   0.00000  Uiso   1.00
C705   C     0.00347   0.76197   0.41146   0.00000  Uiso   1.00
C706   C     0.16127   0.86074   0.45766   0.00000  Uiso   1.00
C707   C     0.04481   0.78624   0.38854   0.00000  Uiso   1.00
C708   C     0.23980   0.88866   0.39417   0.00000  Uiso   1.00
C709   C     0.28247   0.88475   0.36220   0.00000  Uiso   1.00
C710   C     0.31446   0.92386   0.36369   0.00000  Uiso   1.00
C711   C     0.12810   0.88511   0.47982   0.00000  Uiso   1.00
C712   C     0.18356   0.84109   0.47782   0.00000  Uiso   1.00
C713   C     0.17524   0.84972   0.01932   0.00000  Uiso   1.00
C714   C     0.15073   0.88316   0.03851   0.00000  Uiso   1.00
C715   C     0.12485   0.89812   0.01938   0.00000  Uiso   1.00
H716   H     0.10299   0.92084   0.03515   0.00000  Uiso   1.00
H717   H     0.31553   0.83095   0.05995   0.00000  Uiso   1.00
H718   H     0.03609   0.79962   0.08347   0.00000  Uiso   1.00
H719   H     0.05638   0.84795   0.06215   0.00000  Uiso   1.00
H720   H     0.07182   0.79941   0.03374   0.00000  Uiso   1.00
H721   H     0.30201   0.76604   0.33624   0.00000  Uiso   1.00
H722   H     0.02067   0.76842   0.30194   0.00000  Uiso   1.00
H723   H     0.26622   0.73651   0.28405   0.00000  Uiso   1.00
H724   H     0.31781   0.73860   0.24727   0.00000  Uiso   1.00
H725   H     0.00960   0.68953   0.28111   0.00000  Uiso   1.00
H726   H     0.29360   0.66741   0.26912   0.00000  Uiso   1.00
H727   H     0.01686   0.85538   0.21315   0.00000  Uiso   1.00
H728   H     0.29190   0.68785   0.31924   0.00000  Uiso   1.00
H729   H     0.24316   0.99050   0.21058   0.00000  Uiso   1.00
H730   H     0.05328   0.66832   0.32092   0.00000  Uiso   1.00
H731   H     0.09567   0.70942   0.32114   0.00000  Uiso   1.00
H732   H     0.09216   0.95227   0.34077   0.00000  Uiso   1.00
H733   H     0.13742   0.99176   0.34005   0.00000  Uiso   1.00
H734   H     0.09102   0.70283   0.39341   0.00000  Uiso   1.00
H735   H     0.08879   0.98496   0.40816   0.00000  Uiso   1.00
H736   H     0.04434   0.99820   0.39339   0.00000  Uiso   1.00
H737   H     0.12194   0.82177   0.12535   0.00000  Uiso   1.00
H738   H     0.25125   0.77287   0.09791   0.00000  Uiso   1.00
H739   H     0.31669   0.81558   0.45243   0.00000  Uiso   1.00
H740   H     0.29430   0.80635   0.41051   0.00000  Uiso   1.00
H741   H     0.01114   0.74524   0.43324   0.00000  Uiso   1.00
H742   H     0.32395   0.73844   0.39071   0.00000  Uiso   1.00
H743   H     0.03793   0.80440   0.36738   0.00000  Uiso   1.00
H744   H     0.06839   0.76433   0.37187   0.00000  Uiso   1.00
H745   H     0.05943   0.80784   0.40931   0.00000  Uiso   1.00
H746   H     0.24646   0.89455   0.42348   0.00000  Uiso   1.00
H747   H     0.22545   0.91582   0.38925   0.00000  Uiso   1.00
H748   H     0.29706   0.85753   0.36617   0.00000  Uiso   1.00
H749   H     0.07415   0.91609   0.47854   0.00000  Uiso   1.00
H750   H     0.27611   0.87965   0.33282   0.00000  Uiso   1.00
H751   H     0.30090   0.95159   0.35930   0.00000  Uiso   1.00
H752   H     0.01155   0.91989   0.33989   0.00000  Uiso   1.00
H753   H     0.32206   0.92910   0.39251   0.00000  Uiso   1.00
H754   H     0.13587   0.92546   0.08334   0.00000  Uiso   1.00
H755   H     0.08185   0.89555   0.40830   0.00000  Uiso   1.00
H756   H     0.21557   0.79969   0.42765   0.00000  Uiso   1.00
H757   H     0.01132   0.74772   0.01425   0.00000  Uiso   1.00
H758   H     0.31057   0.75112   0.06277   0.00000  Uiso   1.00
H759   H     0.01654   0.82404   0.01026   0.00000  Uiso   1.00
O760   O     0.16667   0.83333   0.25000   0.00000  Uiso   1.00
O761   O     0.15693   0.79060   0.16625   0.00000  Uiso   1.00
O762   O     0.12687   0.87313   0.33749   0.00000  Uiso   1.00
O763   O     0.21088   0.84159   0.15877   0.00000  Uiso   1.00
O764   O     0.17198   0.82802   0.33749   0.00000  Uiso   1.00
O765   O     0.28426   0.76094   0.01795   0.00000  Uiso   1.00
O766   O     0.31135   0.80966   0.29779   0.00000  Uiso   1.00
O767   O     0.22198   0.67757   0.22222   0.00000  Uiso   1.00
O768   O     0.10839   0.99212   0.27645   0.00000  Uiso   1.00
O769   O     0.13287   0.83155   0.09884   0.00000  Uiso   1.00
O770   O     0.26587   0.76778   0.45534   0.00000  Uiso   1.00
O771   O     0.17849   0.74768   0.27821   0.00000  Uiso   1.00
O772   O     0.21196   0.85116   0.39213   0.00000  Uiso   1.00
O773   O     0.15453   0.90251   0.07463   0.00000  Uiso   1.00
O774   O     0.14581   0.92803   0.26767   0.00000  Uiso   1.00
O775   O     0.07452   0.79917   0.23607   0.00000  Uiso   1.00
O776   O     0.26785   0.85845   0.21806   0.00000  Uiso   1.00
O777   O     0.06990   0.85627   0.27820   0.00000  Uiso   1.00
O778   O     0.25440   0.81944   0.26768   0.00000  Uiso   1.00
O779   O     0.13800   0.73570   0.23607   0.00000  Uiso   1.00
O780   O     0.20437   0.92193   0.21806   0.00000  Uiso   1.00
Zn781  Zn    0.19244   0.80756   0.28278   0.00000  Uiso   1.00
Zn782  Zn    0.13459   0.79044   0.22258   0.00000  Uiso   1.00
Zn783  Zn    0.21166   0.86331   0.21188   0.00000  Uiso   1.00
Zn784  Zn    0.12798   0.87202   0.28277   0.00000  Uiso   1.00
C785   C     0.38608   0.82689   0.25841   0.00000  Uiso   1.00
C786   C     0.54529   0.81135   0.45812   0.00000  Uiso   1.00
C787   C     0.56991   0.79487   0.47718   0.00000  Uiso   1.00
C788   C     0.61435   0.84019   0.24142   0.00000  Uiso   1.00
C789   C     0.56020   0.80115   0.01870   0.00000  Uiso   1.00
C790   C     0.52595   0.82531   0.04000   0.00000  Uiso   1.00
C791   C     0.58292   0.78291   0.03938   0.00000  Uiso   1.00
C792   C     0.56824   0.78594   0.08082   0.00000  Uiso   1.00
C793   C     0.50784   0.82159   0.08076   0.00000  Uiso   1.00
C794   C     0.66020   0.84115   0.23780   0.00000  Uiso   1.00
C795   C     0.34026   0.82346   0.26343   0.00000  Uiso   1.00
C796   C     0.43832   0.88705   0.42151   0.00000  Uiso   1.00
C797   C     0.51625   0.99005   0.24178   0.00000  Uiso   1.00
C798   C     0.48334   0.67870   0.26217   0.00000  Uiso   1.00
C799   C     0.48910   0.72292   0.25890   0.00000  Uiso   1.00
C800   C     0.51052   0.94454   0.24184   0.00000  Uiso   1.00
C801   C     0.52135   0.81230   0.14399   0.00000  Uiso   1.00
C802   C     0.47965   0.85519   0.35600   0.00000  Uiso   1.00
C803   C     0.47357   0.86641   0.39851   0.00000  Uiso   1.00
C804   C     0.53114   0.80466   0.10119   0.00000  Uiso   1.00
C805   C     0.43355   0.89815   0.46160   0.00000  Uiso   1.00
C806   C     0.65264   0.76580   0.03483   0.00000  Uiso   1.00
C807   C     0.50429   0.85764   0.41605   0.00000  Uiso   1.00
C808   C     0.33947   0.81141   0.03938   0.00000  Uiso   1.00
C809   C     0.37840   0.81461   0.05562   0.00000  Uiso   1.00
C810   C     0.65268   0.77033   0.30497   0.00000  Uiso   1.00
C811   C     0.63467   0.73496   0.27885   0.00000  Uiso   1.00
C812   C     0.64123   0.69232   0.28775   0.00000  Uiso   1.00
C813   C     0.42218   0.67494   0.31568   0.00000  Uiso   1.00
C814   C     0.43513   0.98641   0.34517   0.00000  Uiso   1.00
C815   C     0.41338   0.66920   0.38764   0.00000  Uiso   1.00
C816   C     0.63604   0.79117   0.43293   0.00000  Uiso   1.00
C817   C     0.33681   0.76197   0.41146   0.00000  Uiso   1.00
C818   C     0.49460   0.86074   0.45766   0.00000  Uiso   1.00
C819   C     0.37815   0.78624   0.38854   0.00000  Uiso   1.00
C820   C     0.57313   0.88866   0.39417   0.00000  Uiso   1.00
C821   C     0.61580   0.88475   0.36220   0.00000  Uiso   1.00
C822   C     0.64779   0.92386   0.36369   0.00000  Uiso   1.00
C823   C     0.46143   0.88511   0.47982   0.00000  Uiso   1.00
C824   C     0.51690   0.84109   0.47782   0.00000  Uiso   1.00
C825   C     0.50858   0.84972   0.01932   0.00000  Uiso   1.00
C826   C     0.48406   0.88316   0.03851   0.00000  Uiso   1.00
C827   C     0.45818   0.89812   0.01938   0.00000  Uiso   1.00
H828   H     0.43633   0.92084   0.03515   0.00000  Uiso   1.00
H829   H     0.64886   0.83095   0.05995   0.00000  Uiso   1.00
H830   H     0.36943   0.79962   0.08347   0.00000  Uiso   1.00
H831   H     0.38971   0.84795   0.06215   0.00000  Uiso   1.00
H832   H     0.40515   0.79941   0.03374   0.00000  Uiso   1.00
H833   H     0.63535   0.76604   0.33624   0.00000  Uiso   1.00
H834   H     0.35400   0.76842   0.30194   0.00000  Uiso   1.00
H835   H     0.59955   0.73651   0.28405   0.00000  Uiso   1.00
H836   H     0.65115   0.73860   0.24727   0.00000  Uiso   1.00
H837   H     0.34293   0.68953   0.28111   0.00000  Uiso   1.00
H838   H     0.62694   0.66741   0.26912   0.00000  Uiso   1.00
H839   H     0.35019   0.85538   0.21315   0.00000  Uiso   1.00
H840   H     0.62523   0.68785   0.31924   0.00000  Uiso   1.00
H841   H     0.57649   0.99050   0.21058   0.00000  Uiso   1.00
H842   H     0.38662   0.66832   0.32092   0.00000  Uiso   1.00
H843   H     0.42900   0.70942   0.32114   0.00000  Uiso   1.00
H844   H     0.42549   0.95227   0.34077   0.00000  Uiso   1.00
H845   H     0.47076   0.99176   0.34005   0.00000  Uiso   1.00
H846   H     0.42436   0.70283   0.39341   0.00000  Uiso   1.00
H847   H     0.42213   0.98496   0.40816   0.00000  Uiso   1.00
H848   H     0.37768   0.99820   0.39339   0.00000  Uiso   1.00
H849   H     0.45527   0.82177   0.12535   0.00000  Uiso   1.00
H850   H     0.58458   0.77287   0.09791   0.00000  Uiso   1.00
H851   H     0.65002   0.81558   0.45243   0.00000  Uiso   1.00
H852   H     0.62763   0.80635   0.41051   0.00000  Uiso   1.00
H853   H     0.34447   0.74524   0.43324   0.00000  Uiso   1.00
H854   H     0.65729   0.73844   0.39071   0.00000  Uiso   1.00
H855   H     0.37127   0.80440   0.36738   0.00000  Uiso   1.00
H856   H     0.40172   0.76433   0.37187   0.00000  Uiso   1.00
H857   H     0.39277   0.80784   0.40931   0.00000  Uiso   1.00
H858   H     0.57980   0.89455   0.42348   0.00000  Uiso   1.00
H859   H     0.55879   0.91582   0.38925   0.00000  Uiso   1.00
H860   H     0.63040   0.85753   0.36617   0.00000  Uiso   1.00
H861   H     0.40748   0.91609   0.47854   0.00000  Uiso   1.00
H862   H     0.60945   0.87965   0.33282   0.00000  Uiso   1.00
H863   H     0.63424   0.95159   0.35930   0.00000  Uiso   1.00
H864   H     0.34488   0.91989   0.33989   0.00000  Uiso   1.00
H865   H     0.65539   0.92910   0.39251   0.00000  Uiso   1.00
H866   H     0.46920   0.92546   0.08334   0.00000  Uiso   1.00
H867   H     0.41519   0.89555   0.40830   0.00000  Uiso   1.00
H868   H     0.54890   0.79969   0.42765   0.00000  Uiso   1.00
H869   H     0.34465   0.74772   0.01425   0.00000  Uiso   1.00
H870   H     0.64391   0.75112   0.06277   0.00000  Uiso   1.00
H871   H     0.34987   0.82404   0.01026   0.00000  Uiso   1.00
O872   O     0.50000   0.83333   0.25000   0.00000  Uiso   1.00
O873   O     0.49027   0.79060   0.16625   0.00000  Uiso   1.00
O874   O     0.46020   0.87313   0.33749   0.00000  Uiso   1.00
O875   O     0.54421   0.84159   0.15877   0.00000  Uiso   1.00
O876   O     0.50532   0.82802   0.33749   0.00000  Uiso   1.00
O877   O     0.61760   0.76094   0.01795   0.00000  Uiso   1.00
O878   O     0.64468   0.80966   0.29779   0.00000  Uiso   1.00
O879   O     0.55531   0.67757   0.22222   0.00000  Uiso   1.00
O880   O     0.44172   0.99212   0.27645   0.00000  Uiso   1.00
O881   O     0.46620   0.83155   0.09884   0.00000  Uiso   1.00
O882   O     0.59921   0.76778   0.45534   0.00000  Uiso   1.00
O883   O     0.51182   0.74768   0.27821   0.00000  Uiso   1.00
O884   O     0.54529   0.85116   0.39213   0.00000  Uiso   1.00
O885   O     0.48787   0.90251   0.07463   0.00000  Uiso   1.00
O886   O     0.47914   0.92803   0.26767   0.00000  Uiso   1.00
O887   O     0.40785   0.79917   0.23607   0.00000  Uiso   1.00
O888   O     0.60119   0.85845   0.21806   0.00000  Uiso   1.00
O889   O     0.40323   0.85627   0.27820   0.00000  Uiso   1.00
O890   O     0.58773   0.81944   0.26768   0.00000  Uiso   1.00
O891   O     0.47133   0.73570   0.23607   0.00000  Uiso   1.00
O892   O     0.53771   0.92193   0.21806   0.00000  Uiso   1.00
Zn893  Zn    0.52577   0.80756   0.28278   0.00000  Uiso   1.00
Zn894  Zn    0.46792   0.79044   0.22258   0.00000  Uiso   1.00
Zn895  Zn    0.54500   0.86331   0.21188   0.00000  Uiso   1.00
Zn896  Zn    0.46131   0.87202   0.28277   0.00000  Uiso   1.00
C897   C     0.71942   0.82689   0.25841   0.00000  Uiso   1.00
C898   C     0.87862   0.81135   0.45812   0.00000  Uiso   1.00
C899   C     0.90324   0.79487   0.47718   0.00000  Uiso   1.00
C900   C     0.94769   0.84019   0.24142   0.00000  Uiso   1.00
C901   C     0.89353   0.80115   0.01870   0.00000  Uiso   1.00
C902   C     0.85929   0.82531   0.04000   0.00000  Uiso   1.00
C903   C     0.91626   0.78291   0.03938   0.00000  Uiso   1.00
C904   C     0.90157   0.78594   0.08082   0.00000  Uiso   1.00
C905   C     0.84118   0.82159   0.08076   0.00000  Uiso   1.00
C906   C     0.99354   0.84115   0.23780   0.00000  Uiso   1.00
C907   C     0.67360   0.82346   0.26343   0.00000  Uiso   1.00
C908   C     0.77166   0.88705   0.42151   0.00000  Uiso   1.00
C909   C     0.84958   0.99005   0.24178   0.00000  Uiso   1.00
C910   C     0.81667   0.67870   0.26217   0.00000  Uiso   1.00
C911   C     0.82244   0.72292   0.25890   0.00000  Uiso   1.00
C912   C     0.84385   0.94454   0.24184   0.00000  Uiso   1.00
C913   C     0.85468   0.81230   0.14399   0.00000  Uiso   1.00
C914   C     0.81298   0.85519   0.35600   0.00000  Uiso   1.00
C915   C     0.80690   0.86641   0.39851   0.00000  Uiso   1.00
C916   C     0.86448   0.80466   0.10119   0.00000  Uiso   1.00
C917   C     0.76688   0.89815   0.46160   0.00000  Uiso   1.00
C918   C     0.98597   0.76580   0.03483   0.00000  Uiso   1.00
C919   C     0.83762   0.85764   0.41605   0.00000  Uiso   1.00
C920   C     0.67281   0.81141   0.03938   0.00000  Uiso   1.00
C921   C     0.71173   0.81461   0.05562   0.00000  Uiso   1.00
C922   C     0.98601   0.77033   0.30497   0.00000  Uiso   1.00
C923   C     0.96800   0.73496   0.27885   0.00000  Uiso   1.00
C924   C     0.97457   0.69232   0.28775   0.00000  Uiso   1.00
C925   C     0.75551   0.67494   0.31568   0.00000  Uiso   1.00
C926   C     0.76846   0.98641   0.34517   0.00000  Uiso   1.00
C927   C     0.74671   0.66920   0.38764   0.00000  Uiso   1.00
C928   C     0.96937   0.79117   0.43293   0.00000  Uiso   1.00
C929   C     0.67014   0.76197   0.41146   0.00000  Uiso   1.00
C930   C     0.82794   0.86074   0.45766   0.00000  Uiso   1.00
C931   C     0.71148   0.78624   0.38854   0.00000  Uiso   1.00
C932   C     0.90646   0.88866   0.39417   0.00000  Uiso   1.00
C933   C     0.94913   0.88475   0.36220   0.00000  Uiso   1.00
C934   C     0.98112   0.92386   0.36369   0.00000  Uiso   1.00
C935   C     0.79477   0.88511   0.47982   0.00000  Uiso   1.00
C936   C     0.85023   0.84109   0.47782   0.00000  Uiso   1.00
C937   C     0.84191   0.84972   0.01932   0.00000  Uiso   1.00
C938   C     0.81739   0.88316   0.03851   0.00000  Uiso   1.00
C939   C     0.79151   0.89812   0.01938   0.00000  Uiso   1.00
H940   H     0.76966   0.92084   0.03515   0.00000  Uiso   1.00
H941   H     0.98220   0.83095   0.05995   0.00000  Uiso   1.00
H942   H     0.70276   0.79962   0.08347   0.00000  Uiso   1.00
H943   H     0.72304   0.84795   0.06215   0.00000  Uiso   1.00
H944   H     0.73848   0.79941   0.03374   0.00000  Uiso   1.00
H945   H     0.96868   0.76604   0.33624   0.00000  Uiso   1.00
H946   H     0.68734   0.76842   0.30194   0.00000  Uiso   1.00
H947   H     0.93289   0.73651   0.28405   0.00000  Uiso   1.00
H948   H     0.98448   0.73860   0.24727   0.00000  Uiso   1.00
H949   H     0.67627   0.68953   0.28111   0.00000  Uiso   1.00
H950   H     0.96027   0.66741   0.26912   0.00000  Uiso   1.00
H951   H     0.68352   0.85538   0.21315   0.00000  Uiso   1.00
H952   H     0.95857   0.68785   0.31924   0.00000  Uiso   1.00
H953   H     0.90983   0.99050   0.21058   0.00000  Uiso   1.00
H954   H     0.71995   0.66832   0.32092   0.00000  Uiso   1.00
H955   H     0.76233   0.70942   0.32114   0.00000  Uiso   1.00
H956   H     0.75883   0.95227   0.34077   0.00000  Uiso   1.00
H957   H     0.80409   0.99176   0.34005   0.00000  Uiso   1.00
H958   H     0.75769   0.70283   0.39341   0.00000  Uiso   1.00
H959   H     0.75546   0.98496   0.40816   0.00000  Uiso   1.00
H960   H     0.71101   0.99820   0.39339   0.00000  Uiso   1.00
H961   H     0.78860   0.82177   0.12535   0.00000  Uiso   1.00
H962   H     0.91791   0.77287   0.09791   0.00000  Uiso   1.00
H963   H     0.98336   0.81558   0.45243   0.00000  Uiso   1.00
H964   H     0.96097   0.80635   0.41051   0.00000  Uiso   1.00
H965   H     0.67781   0.74524   0.43324   0.00000  Uiso   1.00
H966   H     0.99062   0.73844   0.39071   0.00000  Uiso   1.00
H967   H     0.70460   0.80440   0.36738   0.00000  Uiso   1.00
H968   H     0.73505   0.76433   0.37187   0.00000  Uiso   1.00
H969   H     0.72610   0.80784   0.40931   0.00000  Uiso   1.00
H970   H     0.91313   0.89455   0.42348   0.00000  Uiso   1.00
H971   H     0.89212   0.91582   0.38925   0.00000  Uiso   1.00
H972   H     0.96373   0.85753   0.36617   0.00000  Uiso   1.00
H973   H     0.74082   0.91609   0.47854   0.00000  Uiso   1.00
H974   H     0.94278   0.87965   0.33282   0.00000  Uiso   1.00
H975   H     0.96757   0.95159   0.35930   0.00000  Uiso   1.00
H976   H     0.67821   0.91989   0.33989   0.00000  Uiso   1.00
H977   H     0.98873   0.92910   0.39251   0.00000  Uiso   1.00
H978   H     0.80254   0.92546   0.08334   0.00000  Uiso   1.00
H979   H     0.74852   0.89555   0.40830   0.00000  Uiso   1.00
H980   H     0.88224   0.79969   0.42765   0.00000  Uiso   1.00
H981   H     0.67798   0.74772   0.01425   0.00000  Uiso   1.00
H982   H     0.97724   0.75112   0.06277   0.00000  Uiso   1.00
H983   H     0.68321   0.82404   0.01026   0.00000  Uiso   1.00
O984   O     0.83333   0.83333   0.25000   0.00000  Uiso   1.00
O985   O     0.82360   0.79060   0.16625   0.00000  Uiso   1.00
O986   O     0.79354   0.87313   0.33749   0.00000  Uiso   1.00
O987   O     0.87755   0.84159   0.15877   0.00000  Uiso   1.00
O988   O     0.83865   0.82802   0.33749   0.00000  Uiso   1.00
O989   O     0.95093   0.76094   0.01795   0.00000  Uiso   1.00
O990   O     0.97801   0.80966   0.29779   0.00000  Uiso   1.00
O991   O     0.88865   0.67757   0.22222   0.00000  Uiso   1.00
O992   O     0.77506   0.99212   0.27645   0.00000  Uiso   1.00
O993   O     0.79954   0.83155   0.09884   0.00000  Uiso   1.00
O994   O     0.93254   0.76778   0.45534   0.00000  Uiso   1.00
O995   O     0.84515   0.74768   0.27821   0.00000  Uiso   1.00
O996   O     0.87863   0.85116   0.39213   0.00000  Uiso   1.00
O997   O     0.82120   0.90251   0.07463   0.00000  Uiso   1.00
O998   O     0.81247   0.92803   0.26767   0.00000  Uiso   1.00
O999   O     0.74119   0.79917   0.23607   0.00000  Uiso   1.00
O1000  O     0.93452   0.85845   0.21806   0.00000  Uiso   1.00
O1001  O     0.73656   0.85627   0.27820   0.00000  Uiso   1.00
O1002  O     0.92106   0.81944   0.26768   0.00000  Uiso   1.00
O1003  O     0.80467   0.73570   0.23607   0.00000  Uiso   1.00
O1004  O     0.87104   0.92193   0.21806   0.00000  Uiso   1.00
Zn1005 Zn    0.85910   0.80756   0.28278   0.00000  Uiso   1.00
Zn1006 Zn    0.80125   0.79044   0.22258   0.00000  Uiso   1.00
Zn1007 Zn    0.87833   0.86331   0.21188   0.00000  Uiso   1.00
Zn1008 Zn    0.79465   0.87202   0.28277   0.00000  Uiso   1.00
C1009  C     0.05275   0.16022   0.75841   0.00000  Uiso   1.00
C1010  C     0.21196   0.14468   0.95812   0.00000  Uiso   1.00
C1011  C     0.23658   0.12821   0.97718   0.00000  Uiso   1.00
C1012  C     0.28102   0.17353   0.74142   0.00000  Uiso   1.00
C1013  C     0.22686   0.13448   0.51870   0.00000  Uiso   1.00
C1014  C     0.19262   0.15864   0.54000   0.00000  Uiso   1.00
C1015  C     0.24959   0.11625   0.53938   0.00000  Uiso   1.00
C1016  C     0.23490   0.11927   0.58082   0.00000  Uiso   1.00
C1017  C     0.17451   0.15493   0.58076   0.00000  Uiso   1.00
C1018  C     0.32687   0.17448   0.73780   0.00000  Uiso   1.00
C1019  C     0.00693   0.15679   0.76343   0.00000  Uiso   1.00
C1020  C     0.10499   0.22038   0.92151   0.00000  Uiso   1.00
C1021  C     0.18292   0.32338   0.74178   0.00000  Uiso   1.00
C1022  C     0.15001   0.01203   0.76217   0.00000  Uiso   1.00
C1023  C     0.15577   0.05626   0.75890   0.00000  Uiso   1.00
C1024  C     0.17718   0.27787   0.74184   0.00000  Uiso   1.00
C1025  C     0.18802   0.14563   0.64399   0.00000  Uiso   1.00
C1026  C     0.14632   0.18853   0.85600   0.00000  Uiso   1.00
C1027  C     0.14023   0.19974   0.89851   0.00000  Uiso   1.00
C1028  C     0.19781   0.13799   0.60119   0.00000  Uiso   1.00
C1029  C     0.10021   0.23149   0.96160   0.00000  Uiso   1.00
C1030  C     0.31930   0.09913   0.53483   0.00000  Uiso   1.00
C1031  C     0.17096   0.19097   0.91605   0.00000  Uiso   1.00
C1032  C     0.00614   0.14475   0.53938   0.00000  Uiso   1.00
C1033  C     0.04507   0.14795   0.55562   0.00000  Uiso   1.00
C1034  C     0.31935   0.10366   0.80497   0.00000  Uiso   1.00
C1035  C     0.30134   0.06830   0.77885   0.00000  Uiso   1.00
C1036  C     0.30790   0.02566   0.78775   0.00000  Uiso   1.00
C1037  C     0.08884   0.00828   0.81568   0.00000  Uiso   1.00
C1038  C     0.10180   0.31975   0.84517   0.00000  Uiso   1.00
C1039  C     0.08004   0.00253   0.88764   0.00000  Uiso   1.00
C1040  C     0.30270   0.12450   0.93293   0.00000  Uiso   1.00
C1041  C     0.00347   0.09531   0.91146   0.00000  Uiso   1.00
C1042  C     0.16127   0.19408   0.95766   0.00000  Uiso   1.00
C1043  C     0.04481   0.11958   0.88854   0.00000  Uiso   1.00
C1044  C     0.23980   0.22199   0.89417   0.00000  Uiso   1.00
C1045  C     0.28247   0.21808   0.86220   0.00000  Uiso   1.00
C1046  C     0.31446   0.25719   0.86369   0.00000  Uiso   1.00
C1047  C     0.12810   0.21845   0.97982   0.00000  Uiso   1.00
C1048  C     0.18356   0.17443   0.97782   0.00000  Uiso   1.00
C1049  C     0.17524   0.18306   0.51932   0.00000  Uiso   1.00
C1050  C     0.15073   0.21650   0.53851   0.00000  Uiso   1.00
C1051  C     0.12485   0.23145   0.51938   0.00000  Uiso   1.00
H1052  H     0.10299   0.25417   0.53515   0.00000  Uiso   1.00
H1053  H     0.31553   0.16429   0.55995   0.00000  Uiso   1.00
H1054  H     0.03609   0.13295   0.58347   0.00000  Uiso   1.00
H1055  H     0.05638   0.18128   0.56215   0.00000  Uiso   1.00
H1056  H     0.07182   0.13274   0.53374   0.00000  Uiso   1.00
H1057  H     0.30201   0.09937   0.83624   0.00000  Uiso   1.00
H1058  H     0.02067   0.10175   0.80194   0.00000  Uiso   1.00
H1059  H     0.26622   0.06985   0.78405   0.00000  Uiso   1.00
H1060  H     0.31781   0.07193   0.74727   0.00000  Uiso   1.00
H1061  H     0.00960   0.02286   0.78111   0.00000  Uiso   1.00
H1062  H     0.29360   0.00074   0.76912   0.00000  Uiso   1.00
H1063  H     0.01686   0.18872   0.71315   0.00000  Uiso   1.00
H1064  H     0.29190   0.02118   0.81924   0.00000  Uiso   1.00
H1065  H     0.24316   0.32384   0.71058   0.00000  Uiso   1.00
H1066  H     0.05328   0.00166   0.82092   0.00000  Uiso   1.00
H1067  H     0.09567   0.04275   0.82114   0.00000  Uiso   1.00
H1068  H     0.09216   0.28561   0.84077   0.00000  Uiso   1.00
H1069  H     0.13742   0.32510   0.84005   0.00000  Uiso   1.00
H1070  H     0.09102   0.03616   0.89341   0.00000  Uiso   1.00
H1071  H     0.08879   0.31830   0.90816   0.00000  Uiso   1.00
H1072  H     0.04434   0.33154   0.89339   0.00000  Uiso   1.00
H1073  H     0.12194   0.15510   0.62535   0.00000  Uiso   1.00
H1074  H     0.25125   0.10620   0.59791   0.00000  Uiso   1.00
H1075  H     0.31669   0.14891   0.95243   0.00000  Uiso   1.00
H1076  H     0.29430   0.13968   0.91051   0.00000  Uiso   1.00
H1077  H     0.01114   0.07858   0.93324   0.00000  Uiso   1.00
H1078  H     0.32395   0.07178   0.89071   0.00000  Uiso   1.00
H1079  H     0.03793   0.13773   0.86738   0.00000  Uiso   1.00
H1080  H     0.06839   0.09766   0.87187   0.00000  Uiso   1.00
H1081  H     0.05943   0.14118   0.90931   0.00000  Uiso   1.00
H1082  H     0.24646   0.22788   0.92348   0.00000  Uiso   1.00
H1083  H     0.22545   0.24915   0.88925   0.00000  Uiso   1.00
H1084  H     0.29706   0.19086   0.86617   0.00000  Uiso   1.00
H1085  H     0.07415   0.24942   0.97854   0.00000  Uiso   1.00
H1086  H     0.27611   0.21299   0.83282   0.00000  Uiso   1.00
H1087  H     0.30090   0.28492   0.85930   0.00000  Uiso   1.00
H1088  H     0.01155   0.25322   0.83989   0.00000  Uiso   1.00
H1089  H     0.32206   0.26244   0.89251   0.00000  Uiso   1.00
H1090  H     0.13587   0.25879   0.58334   0.00000  Uiso   1.00
H1091  H     0.08185   0.22889   0.90830   0.00000  Uiso   1.00
H1092  H     0.21557   0.13303   0.92765   0.00000  Uiso   1.00
H1093  H     0.01132   0.08106   0.51425   0.00000  Uiso   1.00
H1094  H     0.31057   0.08445   0.56277   0.00000  Uiso   1.00
H1095  H     0.01654   0.15738   0.51026   0.00000  Uiso   1.00
O1096  O     0.16667   0.16667   0.75000   0.00000  Uiso   1.00
O1097  O     0.15693   0.12393   0.66625   0.00000  Uiso   1.00
O1098  O     0.12687   0.20646   0.83749   0.00000  Uiso   1.00
O1099  O     0.21088   0.17493   0.65877   0.00000  Uiso   1.00
O1100  O     0.17198   0.16135   0.83749   0.00000  Uiso   1.00
O1101  O     0.28426   0.09427   0.51795   0.00000  Uiso   1.00
O1102  O     0.31135   0.14299   0.79779   0.00000  Uiso   1.00
O1103  O     0.22198   0.01091   0.72222   0.00000  Uiso   1.00
O1104  O     0.10839   0.32545   0.77645   0.00000  Uiso   1.00
O1105  O     0.13287   0.16489   0.59884   0.00000  Uiso   1.00
O1106  O     0.26587   0.10111   0.95534   0.00000  Uiso   1.00
O1107  O     0.17849   0.08101   0.77821   0.00000  Uiso   1.00
O1108  O     0.21196   0.18449   0.89213   0.00000  Uiso   1.00
O1109  O     0.15453   0.23584   0.57463   0.00000  Uiso   1.00
O1110  O     0.14581   0.26136   0.76767   0.00000  Uiso   1.00
O1111  O     0.07452   0.13251   0.73607   0.00000  Uiso   1.00
O1112  O     0.26785   0.19179   0.71806   0.00000  Uiso   1.00
O1113  O     0.06990   0.18960   0.77820   0.00000  Uiso   1.00
O1114  O     0.25440   0.15277   0.76768   0.00000  Uiso   1.00
O1115  O     0.13800   0.06903   0.73607   0.00000  Uiso   1.00
O1116  O     0.20437   0.25527   0.71806   0.00000  Uiso   1.00
Zn1117 Zn    0.19244   0.14090   0.78278   0.00000  Uiso   1.00
Zn1118 Zn    0.13459   0.12378   0.72258   0.00000  Uiso   1.00
Zn1119 Zn    0.21166   0.19664   0.71188   0.00000  Uiso   1.00
Zn1120 Zn    0.12798   0.20535   0.78277   0.00000  Uiso   1.00
C1121  C     0.38608   0.16022   0.75841   0.00000  Uiso   1.00
C1122  C     0.54529   0.14468   0.95812   0.00000  Uiso   1.00
C1123  C     0.56991   0.12821   0.97718   0.00000  Uiso   1.00
C1124  C     0.61435   0.17353   0.74142   0.00000  Uiso   1.00
C1125  C     0.56020   0.13448   0.51870   0.00000  Uiso   1.00
C1126  C     0.52595   0.15864   0.54000   0.00000  Uiso   1.00
C1127  C     0.58292   0.11625   0.53938   0.00000  Uiso   1.00
C1128  C     0.56824   0.11927   0.58082   0.00000  Uiso   1.00
C1129  C     0.50784   0.15493   0.58076   0.00000  Uiso   1.00
C1130  C     0.66020   0.17448   0.73780   0.00000  Uiso   1.00
C1131  C     0.34026   0.15679   0.76343   0.00000  Uiso   1.00
C1132  C     0.43832   0.22038   0.92151   0.00000  Uiso   1.00
C1133  C     0.51625   0.32338   0.74178   0.00000  Uiso   1.00
C1134  C     0.48334   0.01203   0.76217   0.00000  Uiso   1.00
C1135  C     0.48910   0.05626   0.75890   0.00000  Uiso   1.00
C1136  C     0.51052   0.27787   0.74184   0.00000  Uiso   1.00
C1137  C     0.52135   0.14563   0.64399   0.00000  Uiso   1.00
C1138  C     0.47965   0.18853   0.85600   0.00000  Uiso   1.00
C1139  C     0.47357   0.19974   0.89851   0.00000  Uiso   1.00
C1140  C     0.53114   0.13799   0.60119   0.00000  Uiso   1.00
C1141  C     0.43355   0.23149   0.96160   0.00000  Uiso   1.00
C1142  C     0.65264   0.09913   0.53483   0.00000  Uiso   1.00
C1143  C     0.50429   0.19097   0.91605   0.00000  Uiso   1.00
C1144  C     0.33947   0.14475   0.53938   0.00000  Uiso   1.00
C1145  C     0.37840   0.14795   0.55562   0.00000  Uiso   1.00
C1146  C     0.65268   0.10366   0.80497   0.00000  Uiso   1.00
C1147  C     0.63467   0.06830   0.77885   0.00000  Uiso   1.00
C1148  C     0.64123   0.02566   0.78775   0.00000  Uiso   1.00
C1149  C     0.42218   0.00828   0.81568   0.00000  Uiso   1.00
C1150  C     0.43513   0.31975   0.84517   0.00000  Uiso   1.00
C1151  C     0.41338   0.00253   0.88764   0.00000  Uiso   1.00
C1152  C     0.63604   0.12450   0.93293   0.00000  Uiso   1.00
C1153  C     0.33681   0.09531   0.91146   0.00000  Uiso   1.00
C1154  C     0.49460   0.19408   0.95766   0.00000  Uiso   1.00
C1155  C     0.37815   0.11958   0.88854   0.00000  Uiso   1.00
C1156  C     0.57313   0.22199   0.89417   0.00000  Uiso   1.00
C1157  C     0.61580   0.21808   0.86220   0.00000  Uiso   1.00
C1158  C     0.64779   0.25719   0.86369   0.00000  Uiso   1.00
C1159  C     0.46143   0.21845   0.97982   0.00000  Uiso   1.00
C1160  C     0.51690   0.17443   0.97782   0.00000  Uiso   1.00
C1161  C     0.50858   0.18306   0.51932   0.00000  Uiso   1.00
C1162  C     0.48406   0.21650   0.53851   0.00000  Uiso   1.00
C1163  C     0.45818   0.23145   0.51938   0.00000  Uiso   1.00
H1164  H     0.43633   0.25417   0.53515   0.00000  Uiso   1.00
H1165  H     0.64886   0.16429   0.55995   0.00000  Uiso   1.00
H1166  H     0.36943   0.13295   0.58347   0.00000  Uiso   1.00
H1167  H     0.38971   0.18128   0.56215   0.00000  Uiso   1.00
H1168  H     0.40515   0.13274   0.53374   0.00000  Uiso   1.00
H1169  H     0.63535   0.09937   0.83624   0.00000  Uiso   1.00
H1170  H     0.35400   0.10175   0.80194   0.00000  Uiso   1.00
H1171  H     0.59955   0.06985   0.78405   0.00000  Uiso   1.00
H1172  H     0.65115   0.07193   0.74727   0.00000  Uiso   1.00
H1173  H     0.34293   0.02286   0.78111   0.00000  Uiso   1.00
H1174  H     0.62694   0.00074   0.76912   0.00000  Uiso   1.00
H1175  H     0.35019   0.18872   0.71315   0.00000  Uiso   1.00
H1176  H     0.62523   0.02118   0.81924   0.00000  Uiso   1.00
H1177  H     0.57649   0.32384   0.71058   0.00000  Uiso   1.00
H1178  H     0.38662   0.00166   0.82092   0.00000  Uiso   1.00
H1179  H     0.42900   0.04275   0.82114   0.00000  Uiso   1.00
H1180  H     0.42549   0.28561   0.84077   0.00000  Uiso   1.00
H1181  H     0.47076   0.32510   0.84005   0.00000  Uiso   1.00
H1182  H     0.42436   0.03616   0.89341   0.00000  Uiso   1.00
H1183  H     0.42213   0.31830   0.90816   0.00000  Uiso   1.00
H1184  H     0.37768   0.33154   0.89339   0.00000  Uiso   1.00
H1185  H     0.45527   0.15510   0.62535   0.00000  Uiso   1.00
H1186  H     0.58458   0.10620   0.59791   0.00000  Uiso   1.00
H1187  H     0.65002   0.14891   0.95243   0.00000  Uiso   1.00
H1188  H     0.62763   0.13968   0.91051   0.00000  Uiso   1.00
H1189  H     0.34447   0.07858   0.93324   0.00000  Uiso   1.00
H1190  H     0.65729   0.07178   0.89071   0.00000  Uiso   1.00
H1191  H     0.37127   0.13773   0.86738   0.00000  Uiso   1.00
H1192  H     0.40172   0.09766   0.87187   0.00000  Uiso   1.00
H1193  H     0.39277   0.14118   0.90931   0.00000  Uiso   1.00
H1194  H     0.57980   0.22788   0.92348   0.00000  Uiso   1.00
H1195  H     0.55879   0.24915   0.88925   0.00000  Uiso   1.00
H1196  H     0.63040   0.19086   0.86617   0.00000  Uiso   1.00
H1197  H     0.40748   0.24942   0.97854   0.00000  Uiso   1.00
H1198  H     0.60945   0.21299   0.83282   0.00000  Uiso   1.00
H1199  H     0.63424   0.28492   0.85930   0.00000  Uiso   1.00
H1200  H     0.34488   0.25322   0.83989   0.00000  Uiso   1.00
H1201  H     0.65539   0.26244   0.89251   0.00000  Uiso   1.00
H1202  H     0.46920   0.25879   0.58334   0.00000  Uiso   1.00
H1203  H     0.41519   0.22889   0.90830   0.00000  Uiso   1.00
H1204  H     0.54890   0.13303   0.92765   0.00000  Uiso   1.00
H1205  H     0.34465   0.08106   0.51425   0.00000  Uiso   1.00
H1206  H     0.64391   0.08445   0.56277   0.00000  Uiso   1.00
H1207  H     0.34987   0.15738   0.51026   0.00000  Uiso   1.00
O1208  O     0.50000   0.16667   0.75000   0.00000  Uiso   1.00
O1209  O     0.49027   0.12393   0.66625   0.00000  Uiso   1.00
O1210  O     0.46020   0.20646   0.83749   0.00000  Uiso   1.00
O1211  O     0.54421   0.17493   0.65877   0.00000  Uiso   1.00
O1212  O     0.50532   0.16135   0.83749   0.00000  Uiso   1.00
O1213  O     0.61760   0.09427   0.51795   0.00000  Uiso   1.00
O1214  O     0.64468   0.14299   0.79779   0.00000  Uiso   1.00
O1215  O     0.55531   0.01091   0.72222   0.00000  Uiso   1.00
O1216  O     0.44172   0.32545   0.77645   0.00000  Uiso   1.00
O1217  O     0.46620   0.16489   0.59884   0.00000  Uiso   1.00
O1218  O     0.59921   0.10111   0.95534   0.00000  Uiso   1.00
O1219  O     0.51182   0.08101   0.77821   0.00000  Uiso   1.00
O1220  O     0.54529   0.18449   0.89213   0.00000  Uiso   1.00
O1221  O     0.48787   0.23584   0.57463   0.00000  Uiso   1.00
O1222  O     0.47914   0.26136   0.76767   0.00000  Uiso   1.00
O1223  O     0.40785   0.13251   0.73607   0.00000  Uiso   1.00
O1224  O     0.60119   0.19179   0.71806   0.00000  Uiso   1.00
O1225  O     0.40323   0.18960   0.77820   0.00000  Uiso   1.00
O1226  O     0.58773   0.15277   0.76768   0.00000  Uiso   1.00
O1227  O     0.47133   0.06903   0.73607   0.00000  Uiso   1.00
O1228  O     0.53771   0.25527   0.71806   0.00000  Uiso   1.00
Zn1229 Zn    0.52577   0.14090   0.78278   0.00000  Uiso   1.00
Zn1230 Zn    0.46792   0.12378   0.72258   0.00000  Uiso   1.00
Zn1231 Zn    0.54500   0.19664   0.71188   0.00000  Uiso   1.00
Zn1232 Zn    0.46131   0.20535   0.78277   0.00000  Uiso   1.00
C1233  C     0.71942   0.16022   0.75841   0.00000  Uiso   1.00
C1234  C     0.87862   0.14468   0.95812   0.00000  Uiso   1.00
C1235  C     0.90324   0.12821   0.97718   0.00000  Uiso   1.00
C1236  C     0.94769   0.17353   0.74142   0.00000  Uiso   1.00
C1237  C     0.89353   0.13448   0.51870   0.00000  Uiso   1.00
C1238  C     0.85929   0.15864   0.54000   0.00000  Uiso   1.00
C1239  C     0.91626   0.11625   0.53938   0.00000  Uiso   1.00
C1240  C     0.90157   0.11927   0.58082   0.00000  Uiso   1.00
C1241  C     0.84118   0.15493   0.58076   0.00000  Uiso   1.00
C1242  C     0.99354   0.17448   0.73780   0.00000  Uiso   1.00
C1243  C     0.67360   0.15679   0.76343   0.00000  Uiso   1.00
C1244  C     0.77166   0.22038   0.92151   0.00000  Uiso   1.00
C1245  C     0.84958   0.32338   0.74178   0.00000  Uiso   1.00
C1246  C     0.81667   0.01203   0.76217   0.00000  Uiso   1.00
C1247  C     0.82244   0.05626   0.75890   0.00000  Uiso   1.00
C1248  C     0.84385   0.27787   0.74184   0.00000  Uiso   1.00
C1249  C     0.85468   0.14563   0.64399   0.00000  Uiso   1.00
C1250  C     0.81298   0.18853   0.85600   0.00000  Uiso   1.00
C1251  C     0.80690   0.19974   0.89851   0.00000  Uiso   1.00
C1252  C     0.86448   0.13799   0.60119   0.00000  Uiso   1.00
C1253  C     0.76688   0.23149   0.96160   0.00000  Uiso   1.00
C1254  C     0.98597   0.09913   0.53483   0.00000  Uiso   1.00
C1255  C     0.83762   0.19097   0.91605   0.00000  Uiso   1.00
C1256  C     0.67281   0.14475   0.53938   0.00000  Uiso   1.00
C1257  C     0.71173   0.14795   0.55562   0.00000  Uiso   1.00
C1258  C     0.98601   0.10366   0.80497   0.00000  Uiso   1.00
C1259  C     0.96800   0.06830   0.77885   0.00000  Uiso   1.00
C1260  C     0.97457   0.02566   0.78775   0.00000  Uiso   1.00
C1261  C     0.75551   0.00828   0.81568   0.00000  Uiso   1.00
C1262  C     0.76846   0.31975   0.84517   0.00000  Uiso   1.00
C1263  C     0.74671   0.00253   0.88764   0.00000  Uiso   1.00
C1264  C     0.96937   0.12450   0.93293   0.00000  Uiso   1.00
C1265  C     0.67014   0.09531   0.91146   0.00000  Uiso   1.00
C1266  C     0.82794   0.19408   0.95766   0.00000  Uiso   1.00
C1267  C     0.71148   0.11958   0.88854   0.00000  Uiso   1.00
C1268  C     0.90646   0.22199   0.89417   0.00000  Uiso   1.00
C1269  C     0.94913   0.21808   0.86220   0.00000  Uiso   1.00
C1270  C     0.98112   0.25719   0.86369   0.00000  Uiso   1.00
C1271  C     0.79477   0.21845   0.97982   0.00000  Uiso   1.00
C1272  C     0.85023   0.17443   0.97782   0.00000  Uiso   1.00
C1273  C     0.84191   0.18306   0.51932   0.00000  Uiso   1.00
C1274  C     0.81739   0.21650   0.53851   0.00000  Uiso   1.00
C1275  C     0.79151   0.23145   0.51938   0.00000  Uiso   1.00
H1276  H     0.76966   0.25417   0.53515   0.00000  Uiso   1.00
H1277  H     0.98220   0.16429   0.55995   0.00000  Uiso   1.00
H1278  H     0.70276   0.13295   0.58347   0.00000  Uiso   1.00
H1279  H     0.72304   0.18128   0.56215   0.00000  Uiso   1.00
H1280  H     0.73848   0.13274   0.53374   0.00000  Uiso   1.00
H1281  H     0.96868   0.09937   0.83624   0.00000  Uiso   1.00
H1282  H     0.68734   0.10175   0.80194   0.00000  Uiso   1.00
H1283  H     0.93289   0.06985   0.78405   0.00000  Uiso   1.00
H1284  H     0.98448   0.07193   0.74727   0.00000  Uiso   1.00
H1285  H     0.67627   0.02286   0.78111   0.00000  Uiso   1.00
H1286  H     0.96027   0.00074   0.76912   0.00000  Uiso   1.00
H1287  H     0.68352   0.18872   0.71315   0.00000  Uiso   1.00
H1288  H     0.95857   0.02118   0.81924   0.00000  Uiso   1.00
H1289  H     0.90983   0.32384   0.71058   0.00000  Uiso   1.00
H1290  H     0.71995   0.00166   0.82092   0.00000  Uiso   1.00
H1291  H     0.76233   0.04275   0.82114   0.00000  Uiso   1.00
H1292  H     0.75883   0.28561   0.84077   0.00000  Uiso   1.00
H1293  H     0.80409   0.32510   0.84005   0.00000  Uiso   1.00
H1294  H     0.75769   0.03616   0.89341   0.00000  Uiso   1.00
H1295  H     0.75546   0.31830   0.90816   0.00000  Uiso   1.00
H1296  H     0.71101   0.33154   0.89339   0.00000  Uiso   1.00
H1297  H     0.78860   0.15510   0.62535   0.00000  Uiso   1.00
H1298  H     0.91791   0.10620   0.59791   0.00000  Uiso   1.00
H1299  H     0.98336   0.14891   0.95243   0.00000  Uiso   1.00
H1300  H     0.96097   0.13968   0.91051   0.00000  Uiso   1.00
H1301  H     0.67781   0.07858   0.93324   0.00000  Uiso   1.00
H1302  H     0.99062   0.07178   0.89071   0.00000  Uiso   1.00
H1303  H     0.70460   0.13773   0.86738   0.00000  Uiso   1.00
H1304  H     0.73505   0.09766   0.87187   0.00000  Uiso   1.00
H1305  H     0.72610   0.14118   0.90931   0.00000  Uiso   1.00
H1306  H     0.91313   0.22788   0.92348   0.00000  Uiso   1.00
H1307  H     0.89212   0.24915   0.88925   0.00000  Uiso   1.00
H1308  H     0.96373   0.19086   0.86617   0.00000  Uiso   1.00
H1309  H     0.74082   0.24942   0.97854   0.00000  Uiso   1.00
H1310  H     0.94278   0.21299   0.83282   0.00000  Uiso   1.00
H1311  H     0.96757   0.28492   0.85930   0.00000  Uiso   1.00
H1312  H     0.67821   0.25322   0.83989   0.00000  Uiso   1.00
H1313  H     0.98873   0.26244   0.89251   0.00000  Uiso   1.00
H1314  H     0.80254   0.25879   0.58334   0.00000  Uiso   1.00
H1315  H     0.74852   0.22889   0.90830   0.00000  Uiso   1.00
H1316  H     0.88224   0.13303   0.92765   0.00000  Uiso   1.00
H1317  H     0.67798   0.08106   0.51425   0.00000  Uiso   1.00
H1318  H     0.97724   0.08445   0.56277   0.00000  Uiso   1.00
H1319  H     0.68321   0.15738   0.51026   0.00000  Uiso   1.00
O1320  O     0.83333   0.16667   0.75000   0.00000  Uiso   1.00
O1321  O     0.82360   0.12393   0.66625   0.00000  Uiso   1.00
O1322  O     0.79354   0.20646   0.83749   0.00000  Uiso   1.00
O1323  O     0.87755   0.17493   0.65877   0.00000  Uiso   1.00
O1324  O     0.83865   0.16135   0.83749   0.00000  Uiso   1.00
O1325  O     0.95093   0.09427   0.51795   0.00000  Uiso   1.00
O1326  O     0.97801   0.14299   0.79779   0.00000  Uiso   1.00
O1327  O     0.88865   0.01091   0.72222   0.00000  Uiso   1.00
O1328  O     0.77506   0.32545   0.77645   0.00000  Uiso   1.00
O1329  O     0.79954   0.16489   0.59884   0.00000  Uiso   1.00
O1330  O     0.93254   0.10111   0.95534   0.00000  Uiso   1.00
O1331  O     0.84515   0.08101   0.77821   0.00000  Uiso   1.00
O1332  O     0.87863   0.18449   0.89213   0.00000  Uiso   1.00
O1333  O     0.82120   0.23584   0.57463   0.00000  Uiso   1.00
O1334  O     0.81247   0.26136   0.76767   0.00000  Uiso   1.00
O1335  O     0.74119   0.13251   0.73607   0.00000  Uiso   1.00
O1336  O     0.93452   0.19179   0.71806   0.00000  Uiso   1.00
O1337  O     0.73656   0.18960   0.77820   0.00000  Uiso   1.00
O1338  O     0.92106   0.15277   0.76768   0.00000  Uiso   1.00
O1339  O     0.80467   0.06903   0.73607   0.00000  Uiso   1.00
O1340  O     0.87104   0.25527   0.71806   0.00000  Uiso   1.00
Zn1341 Zn    0.85910   0.14090   0.78278   0.00000  Uiso   1.00
Zn1342 Zn    0.80125   0.12378   0.72258   0.00000  Uiso   1.00
Zn1343 Zn    0.87833   0.19664   0.71188   0.00000  Uiso   1.00
Zn1344 Zn    0.79465   0.20535   0.78277   0.00000  Uiso   1.00
C1345  C     0.05275   0.49355   0.75841   0.00000  Uiso   1.00
C1346  C     0.21196   0.47802   0.95812   0.00000  Uiso   1.00
C1347  C     0.23658   0.46154   0.97718   0.00000  Uiso   1.00
C1348  C     0.28102   0.50686   0.74142   0.00000  Uiso   1.00
C1349  C     0.22686   0.46782   0.51870   0.00000  Uiso   1.00
C1350  C     0.19262   0.49198   0.54000   0.00000  Uiso   1.00
C1351  C     0.24959   0.44958   0.53938   0.00000  Uiso   1.00
C1352  C     0.23490   0.45260   0.58082   0.00000  Uiso   1.00
C1353  C     0.17451   0.48826   0.58076   0.00000  Uiso   1.00
C1354  C     0.32687   0.50781   0.73780   0.00000  Uiso   1.00
C1355  C     0.00693   0.49013   0.76343   0.00000  Uiso   1.00
C1356  C     0.10499   0.55371   0.92151   0.00000  Uiso   1.00
C1357  C     0.18292   0.65671   0.74178   0.00000  Uiso   1.00
C1358  C     0.15001   0.34536   0.76217   0.00000  Uiso   1.00
C1359  C     0.15577   0.38959   0.75890   0.00000  Uiso   1.00
C1360  C     0.17718   0.61121   0.74184   0.00000  Uiso   1.00
C1361  C     0.18802   0.47897   0.64399   0.00000  Uiso   1.00
C1362  C     0.14632   0.52186   0.85600   0.00000  Uiso   1.00
C1363  C     0.14023   0.53307   0.89851   0.00000  Uiso   1.00
C1364  C     0.19781   0.47133   0.60119   0.00000  Uiso   1.00
C1365  C     0.10021   0.56482   0.96160   0.00000  Uiso   1.00
C1366  C     0.31930   0.43247   0.53483   0.00000  Uiso   1.00
C1367  C     0.17096   0.52430   0.91605   0.00000  Uiso   1.00
C1368  C     0.00614   0.47808   0.53938   0.00000  Uiso   1.00
C1369  C     0.04507   0.48128   0.55562   0.00000  Uiso   1.00
C1370  C     0.31935   0.43700   0.80497   0.00000  Uiso   1.00
C1371  C     0.30134   0.40163   0.77885   0.00000  Uiso   1.00
C1372  C     0.30790   0.35899   0.78775   0.00000  Uiso   1.00
C1373  C     0.08884   0.34161   0.81568   0.00000  Uiso   1.00
C1374  C     0.10180   0.65308   0.84517   0.00000  Uiso   1.00
C1375  C     0.08004   0.33586   0.88764   0.00000  Uiso   1.00
C1376  C     0.30270   0.45784   0.93293   0.00000  Uiso   1.00
C1377  C     0.00347   0.42864   0.91146   0.00000  Uiso   1.00
C1378  C     0.16127   0.52741   0.95766   0.00000  Uiso   1.00
C1379  C     0.04481   0.45291   0.88854   0.00000  Uiso   1.00
C1380  C     0.23980   0.55532   0.89417   0.00000  Uiso   1.00
C1381  C     0.28247   0.55142   0.86220   0.00000  Uiso   1.00
C1382  C     0.31446   0.59052   0.86369   0.00000  Uiso   1.00
C1383  C     0.12810   0.55178   0.97982   0.00000  Uiso   1.00
C1384  C     0.18356   0.50776   0.97782   0.00000  Uiso   1.00
C1385  C     0.17524   0.51639   0.51932   0.00000  Uiso   1.00
C1386  C     0.15073   0.54983   0.53851   0.00000  Uiso   1.00
C1387  C     0.12485   0.56478   0.51938   0.00000  Uiso   1.00
H1388  H     0.10299   0.58751   0.53515   0.00000  Uiso   1.00
H1389  H     0.31553   0.49762   0.55995   0.00000  Uiso   1.00
H1390  H     0.03609   0.46629   0.58347   0.00000  Uiso   1.00
H1391  H     0.05638   0.51461   0.56215   0.00000  Uiso   1.00
H1392  H     0.07182   0.46607   0.53374   0.00000  Uiso   1.00
H1393  H     0.30201   0.43270   0.83624   0.00000  Uiso   1.00
H1394  H     0.02067   0.43509   0.80194   0.00000  Uiso   1.00
H1395  H     0.26622   0.40318   0.78405   0.00000  Uiso   1.00
H1396  H     0.31781   0.40527   0.74727   0.00000  Uiso   1.00
H1397  H     0.00960   0.35619   0.78111   0.00000  Uiso   1.00
H1398  H     0.29360   0.33408   0.76912   0.00000  Uiso   1.00
H1399  H     0.01686   0.52205   0.71315   0.00000  Uiso   1.00
H1400  H     0.29190   0.35451   0.81924   0.00000  Uiso   1.00
H1401  H     0.24316   0.65717   0.71058   0.00000  Uiso   1.00
H1402  H     0.05328   0.33499   0.82092   0.00000  Uiso   1.00
H1403  H     0.09567   0.37609   0.82114   0.00000  Uiso   1.00
H1404  H     0.09216   0.61894   0.84077   0.00000  Uiso   1.00
H1405  H     0.13742   0.65843   0.84005   0.00000  Uiso   1.00
H1406  H     0.09102   0.36949   0.89341   0.00000  Uiso   1.00
H1407  H     0.08879   0.65163   0.90816   0.00000  Uiso   1.00
H1408  H     0.04434   0.66487   0.89339   0.00000  Uiso   1.00
H1409  H     0.12194   0.48843   0.62535   0.00000  Uiso   1.00
H1410  H     0.25125   0.43953   0.59791   0.00000  Uiso   1.00
H1411  H     0.31669   0.48224   0.95243   0.00000  Uiso   1.00
H1412  H     0.29430   0.47301   0.91051   0.00000  Uiso   1.00
H1413  H     0.01114   0.41191   0.93324   0.00000  Uiso   1.00
H1414  H     0.32395   0.40511   0.89071   0.00000  Uiso   1.00
H1415  H     0.03793   0.47106   0.86738   0.00000  Uiso   1.00
H1416  H     0.06839   0.43099   0.87187   0.00000  Uiso   1.00
H1417  H     0.05943   0.47451   0.90931   0.00000  Uiso   1.00
H1418  H     0.24646   0.56122   0.92348   0.00000  Uiso   1.00
H1419  H     0.22545   0.58249   0.88925   0.00000  Uiso   1.00
H1420  H     0.29706   0.52419   0.86617   0.00000  Uiso   1.00
H1421  H     0.07415   0.58276   0.97854   0.00000  Uiso   1.00
H1422  H     0.27611   0.54632   0.83282   0.00000  Uiso   1.00
H1423  H     0.30090   0.61825   0.85930   0.00000  Uiso   1.00
H1424  H     0.01155   0.58656   0.83989   0.00000  Uiso   1.00
H1425  H     0.32206   0.59577   0.89251   0.00000  Uiso   1.00
H1426  H     0.13587   0.59212   0.58334   0.00000  Uiso   1.00
H1427  H     0.08185   0.56222   0.90830   0.00000  Uiso   1.00
H1428  H     0.21557   0.46636   0.92765   0.00000  Uiso   1.00
H1429  H     0.01132   0.41439   0.51425   0.00000  Uiso   1.00
H1430  H     0.31057   0.41779   0.56277   0.00000  Uiso   1.00
H1431  H     0.01654   0.49071   0.51026   0.00000  Uiso   1.00
O1432  O     0.16667   0.50000   0.75000   0.00000  Uiso   1.00
O1433  O     0.15693   0.45726   0.66625   0.00000  Uiso   1.00
O1434  O     0.12687   0.53979   0.83749   0.00000  Uiso   1.00
O1435  O     0.21088   0.50826   0.65877   0.00000  Uiso   1.00
O1436  O     0.17198   0.49468   0.83749   0.00000  Uiso   1.00
O1437  O     0.28426   0.42760   0.51795   0.00000  Uiso   1.00
O1438  O     0.31135   0.47633   0.79779   0.00000  Uiso   1.00
O1439  O     0.22198   0.34424   0.72222   0.00000  Uiso   1.00
O1440  O     0.10839   0.65878   0.77645   0.00000  Uiso   1.00
O1441  O     0.13287   0.49822   0.59884   0.00000  Uiso   1.00
O1442  O     0.26587   0.43444   0.95534   0.00000  Uiso   1.00
O1443  O     0.17849   0.41434   0.77821   0.00000  Uiso   1.00
O1444  O     0.21196   0.51783   0.89213   0.00000  Uiso   1.00
O1445  O     0.15453   0.56917   0.57463   0.00000  Uiso   1.00
O1446  O     0.14581   0.59469   0.76767   0.00000  Uiso   1.00
O1447  O     0.07452   0.46584   0.73607   0.00000  Uiso   1.00
O1448  O     0.26785   0.52512   0.71806   0.00000  Uiso   1.00
O1449  O     0.06990   0.52293   0.77820   0.00000  Uiso   1.00
O1450  O     0.25440   0.48610   0.76768   0.00000  Uiso   1.00
O1451  O     0.13800   0.40236   0.73607   0.00000  Uiso   1.00
O1452  O     0.20437   0.58860   0.71806   0.00000  Uiso   1.00
Zn1453 Zn    0.19244   0.47423   0.78278   0.00000  Uiso   1.00
Zn1454 Zn    0.13459   0.45711   0.72258   0.00000  Uiso   1.00
Zn1455 Zn    0.21166   0.52997   0.71188   0.00000  Uiso   1.00
Zn1456 Zn    0.12798   0.53868   0.78277   0.00000  Uiso   1.00
C1457  C     0.38608   0.49355   0.75841   0.00000  Uiso   1.00
C1458  C     0.54529   0.47802   0.95812   0.00000  Uiso   1.00
C1459  C     0.56991   0.46154   0.97718   0.00000  Uiso   1.00
C1460  C     0.61435   0.50686   0.74142   0.00000  Uiso   1.00
C1461  C     0.56020   0.46782   0.51870   0.00000  Uiso   1.00
C1462  C     0.52595   0.49198   0.54000   0.00000  Uiso   1.00
C1463  C     0.58292   0.44958   0.53938   0.00000  Uiso   1.00
C1464  C     0.56824   0.45260   0.58082   0.00000  Uiso   1.00
C1465  C     0.50784   0.48826   0.58076   0.00000  Uiso   1.00
C1466  C     0.66020   0.50781   0.73780   0.00000  Uiso   1.00
C1467  C     0.34026   0.49013   0.76343   0.00000  Uiso   1.00
C1468  C     0.43832   0.55371   0.92151   0.00000  Uiso   1.00
C1469  C     0.51625   0.65671   0.74178   0.00000  Uiso   1.00
C1470  C     0.48334   0.34536   0.76217   0.00000  Uiso   1.00
C1471  C     0.48910   0.38959   0.75890   0.00000  Uiso   1.00
C1472  C     0.51052   0.61121   0.74184   0.00000  Uiso   1.00
C1473  C     0.52135   0.47897   0.64399   0.00000  Uiso   1.00
C1474  C     0.47965   0.52186   0.85600   0.00000  Uiso   1.00
C1475  C     0.47357   0.53307   0.89851   0.00000  Uiso   1.00
C1476  C     0.53114   0.47133   0.60119   0.00000  Uiso   1.00
C1477  C     0.43355   0.56482   0.96160   0.00000  Uiso   1.00
C1478  C     0.65264   0.43247   0.53483   0.00000  Uiso   1.00
C1479  C     0.50429   0.52430   0.91605   0.00000  Uiso   1.00
C1480  C     0.33947   0.47808   0.53938   0.00000  Uiso   1.00
C1481  C     0.37840   0.48128   0.55562   0.00000  Uiso   1.00
C1482  C     0.65268   0.43700   0.80497   0.00000  Uiso   1.00
C1483  C     0.63467   0.40163   0.77885   0.00000  Uiso   1.00
C1484  C     0.64123   0.35899   0.78775   0.00000  Uiso   1.00
C1485  C     0.42218   0.34161   0.81568   0.00000  Uiso   1.00
C1486  C     0.43513   0.65308   0.84517   0.00000  Uiso   1.00
C1487  C     0.41338   0.33586   0.88764   0.00000  Uiso   1.00
C1488  C     0.63604   0.45784   0.93293   0.00000  Uiso   1.00
C1489  C     0.33681   0.42864   0.91146   0.00000  Uiso   1.00
C1490  C     0.49460   0.52741   0.95766   0.00000  Uiso   1.00
C1491  C     0.37815   0.45291   0.88854   0.00000  Uiso   1.00
C1492  C     0.57313   0.55532   0.89417   0.00000  Uiso   1.00
C1493  C     0.61580   0.55142   0.86220   0.00000  Uiso   1.00
C1494  C     0.64779   0.59052   0.86369   0.00000  Uiso   1.00
C1495  C     0.46143   0.55178   0.97982   0.00000  Uiso   1.00
C1496  C     0.51690   0.50776   0.97782   0.00000  Uiso   1.00
C1497  C     0.50858   0.51639   0.51932   0.00000  Uiso   1.00
C1498  C     0.48406   0.54983   0.53851   0.00000  Uiso   1.00
C1499  C     0.45818   0.56478   0.51938   0.00000  Uiso   1.00
H1500  H     0.43633   0.58751   0.53515   0.00000  Uiso   1.00
H1501  H     0.64886   0.49762   0.55995   0.00000  Uiso   1.00
H1502  H     0.36943   0.46629   0.58347   0.00000  Uiso   1.00
H1503  H     0.38971   0.51461   0.56215   0.00000  Uiso   1.00
H1504  H     0.40515   0.46607   0.53374   0.00000  Uiso   1.00
H1505  H     0.63535   0.43270   0.83624   0.00000  Uiso   1.00
H1506  H     0.35400   0.43509   0.80194   0.00000  Uiso   1.00
H1507  H     0.59955   0.40318   0.78405   0.00000  Uiso   1.00
H1508  H     0.65115   0.40527   0.74727   0.00000  Uiso   1.00
H1509  H     0.34293   0.35619   0.78111   0.00000  Uiso   1.00
H1510  H     0.62694   0.33408   0.76912   0.00000  Uiso   1.00
H1511  H     0.35019   0.52205   0.71315   0.00000  Uiso   1.00
H1512  H     0.62523   0.35451   0.81924   0.00000  Uiso   1.00
H1513  H     0.57649   0.65717   0.71058   0.00000  Uiso   1.00
H1514  H     0.38662   0.33499   0.82092   0.00000  Uiso   1.00
H1515  H     0.42900   0.37609   0.82114   0.00000  Uiso   1.00
H1516  H     0.42549   0.61894   0.84077   0.00000  Uiso   1.00
H1517  H     0.47076   0.65843   0.84005   0.00000  Uiso   1.00
H1518  H     0.42436   0.36949   0.89341   0.00000  Uiso   1.00
H1519  H     0.42213   0.65163   0.90816   0.00000  Uiso   1.00
H1520  H     0.37768   0.66487   0.89339   0.00000  Uiso   1.00
H1521  H     0.45527   0.48843   0.62535   0.00000  Uiso   1.00
H1522  H     0.58458   0.43953   0.59791   0.00000  Uiso   1.00
H1523  H     0.65002   0.48224   0.95243   0.00000  Uiso   1.00
H1524  H     0.62763   0.47301   0.91051   0.00000  Uiso   1.00
H1525  H     0.34447   0.41191   0.93324   0.00000  Uiso   1.00
H1526  H     0.65729   0.40511   0.89071   0.00000  Uiso   1.00
H1527  H     0.37127   0.47106   0.86738   0.00000  Uiso   1.00
H1528  H     0.40172   0.43099   0.87187   0.00000  Uiso   1.00
H1529  H     0.39277   0.47451   0.90931   0.00000  Uiso   1.00
H1530  H     0.57980   0.56122   0.92348   0.00000  Uiso   1.00
H1531  H     0.55879   0.58249   0.88925   0.00000  Uiso   1.00
H1532  H     0.63040   0.52419   0.86617   0.00000  Uiso   1.00
H1533  H     0.40748   0.58276   0.97854   0.00000  Uiso   1.00
H1534  H     0.60945   0.54632   0.83282   0.00000  Uiso   1.00
H1535  H     0.63424   0.61825   0.85930   0.00000  Uiso   1.00
H1536  H     0.34488   0.58656   0.83989   0.00000  Uiso   1.00
H1537  H     0.65539   0.59577   0.89251   0.00000  Uiso   1.00
H1538  H     0.46920   0.59212   0.58334   0.00000  Uiso   1.00
H1539  H     0.41519   0.56222   0.90830   0.00000  Uiso   1.00
H1540  H     0.54890   0.46636   0.92765   0.00000  Uiso   1.00
H1541  H     0.34465   0.41439   0.51425   0.00000  Uiso   1.00
H1542  H     0.64391   0.41779   0.56277   0.00000  Uiso   1.00
H1543  H     0.34987   0.49071   0.51026   0.00000  Uiso   1.00
O1544  O     0.50000   0.50000   0.75000   0.00000  Uiso   1.00
O1545  O     0.49027   0.45726   0.66625   0.00000  Uiso   1.00
O1546  O     0.46020   0.53979   0.83749   0.00000  Uiso   1.00
O1547  O     0.54421   0.50826   0.65877   0.00000  Uiso   1.00
O1548  O     0.50532   0.49468   0.83749   0.00000  Uiso   1.00
O1549  O     0.61760   0.42760   0.51795   0.00000  Uiso   1.00
O1550  O     0.64468   0.47633   0.79779   0.00000  Uiso   1.00
O1551  O     0.55531   0.34424   0.72222   0.00000  Uiso   1.00
O1552  O     0.44172   0.65878   0.77645   0.00000  Uiso   1.00
O1553  O     0.46620   0.49822   0.59884   0.00000  Uiso   1.00
O1554  O     0.59921   0.43444   0.95534   0.00000  Uiso   1.00
O1555  O     0.51182   0.41434   0.77821   0.00000  Uiso   1.00
O1556  O     0.54529   0.51783   0.89213   0.00000  Uiso   1.00
O1557  O     0.48787   0.56917   0.57463   0.00000  Uiso   1.00
O1558  O     0.47914   0.59469   0.76767   0.00000  Uiso   1.00
O1559  O     0.40785   0.46584   0.73607   0.00000  Uiso   1.00
O1560  O     0.60119   0.52512   0.71806   0.00000  Uiso   1.00
O1561  O     0.40323   0.52293   0.77820   0.00000  Uiso   1.00
O1562  O     0.58773   0.48610   0.76768   0.00000  Uiso   1.00
O1563  O     0.47133   0.40236   0.73607   0.00000  Uiso   1.00
O1564  O     0.53771   0.58860   0.71806   0.00000  Uiso   1.00
Zn1565 Zn    0.52577   0.47423   0.78278   0.00000  Uiso   1.00
Zn1566 Zn    0.46792   0.45711   0.72258   0.00000  Uiso   1.00
Zn1567 Zn    0.54500   0.52997   0.71188   0.00000  Uiso   1.00
Zn1568 Zn    0.46131   0.53868   0.78277   0.00000  Uiso   1.00
C1569  C     0.71942   0.49355   0.75841   0.00000  Uiso   1.00
C1570  C     0.87862   0.47802   0.95812   0.00000  Uiso   1.00
C1571  C     0.90324   0.46154   0.97718   0.00000  Uiso   1.00
C1572  C     0.94769   0.50686   0.74142   0.00000  Uiso   1.00
C1573  C     0.89353   0.46782   0.51870   0.00000  Uiso   1.00
C1574  C     0.85929   0.49198   0.54000   0.00000  Uiso   1.00
C1575  C     0.91626   0.44958   0.53938   0.00000  Uiso   1.00
C1576  C     0.90157   0.45260   0.58082   0.00000  Uiso   1.00
C1577  C     0.84118   0.48826   0.58076   0.00000  Uiso   1.00
C1578  C     0.99354   0.50781   0.73780   0.00000  Uiso   1.00
C1579  C     0.67360   0.49013   0.76343   0.00000  Uiso   1.00
C1580  C     0.77166   0.55371   0.92151   0.00000  Uiso   1.00
C1581  C     0.84958   0.65671   0.74178   0.00000  Uiso   1.00
C1582  C     0.81667   0.34536   0.76217   0.00000  Uiso   1.00
C1583  C     0.82244   0.38959   0.75890   0.00000  Uiso   1.00
C1584  C     0.84385   0.61121   0.74184   0.00000  Uiso   1.00
C1585  C     0.85468   0.47897   0.64399   0.00000  Uiso   1.00
C1586  C     0.81298   0.52186   0.85600   0.00000  Uiso   1.00
C1587  C     0.80690   0.53307   0.89851   0.00000  Uiso   1.00
C1588  C     0.86448   0.47133   0.60119   0.00000  Uiso   1.00
C1589  C     0.76688   0.56482   0.96160   0.00000  Uiso   1.00
C1590  C     0.98597   0.43247   0.53483   0.00000  Uiso   1.00
C1591  C     0.83762   0.52430   0.91605   0.00000  Uiso   1.00
C1592  C     0.67281   0.47808   0.53938   0.00000  Uiso   1.00
C1593  C     0.71173   0.48128   0.55562   0.00000  Uiso   1.00
C1594  C     0.98601   0.43700   0.80497   0.00000  Uiso   1.00
C1595  C     0.96800   0.40163   0.77885   0.00000  Uiso   1.00
C1596  C     0.97457   0.35899   0.78775   0.00000  Uiso   1.00
C1597  C     0.75551   0.34161   0.81568   0.00000  Uiso   1.00
C1598  C     0.76846   0.65308   0.84517   0.00000  Uiso   1.00
C1599  C     0.74671   0.33586   0.88764   0.00000  Uiso   1.00
C1600  C     0.96937   0.45784   0.93293   0.00000  Uiso   1.00
C1601  C     0.67014   0.42864   0.91146   0.00000  Uiso   1.00
C1602  C     0.82794   0.52741   0.95766   0.00000  Uiso   1.00
C1603  C     0.71148   0.45291   0.88854   0.00000  Uiso   1.00
C1604  C     0.90646   0.55532   0.89417   0.00000  Uiso   1.00
C1605  C     0.94913   0.55142   0.86220   0.00000  Uiso   1.00
C1606  C     0.98112   0.59052   0.86369   0.00000  Uiso   1.00
C1607  C     0.79477   0.55178   0.97982   0.00000  Uiso   1.00
C1608  C     0.85023   0.50776   0.97782   0.00000  Uiso   1.00
C1609  C     0.84191   0.51639   0.51932   0.00000  Uiso   1.00
C1610  C     0.81739   0.54983   0.53851   0.00000  Uiso   1.00
C1611  C     0.79151   0.56478   0.51938   0.00000  Uiso   1.00
H1612  H     0.76966   0.58751   0.53515   0.00000  Uiso   1.00
H1613  H     0.98220   0.49762   0.55995   0.00000  Uiso   1.00
H1614  H     0.70276   0.46629   0.58347   0.00000  Uiso   1.00
H1615  H     0.72304   0.51461   0.56215   0.00000  Uiso   1.00
H1616  H     0.73848   0.46607   0.53374   0.00000  Uiso   1.00
H1617  H     0.96868   0.43270   0.83624   0.00000  Uiso   1.00
H1618  H     0.68734   0.43509   0.80194   0.00000  Uiso   1.00
H1619  H     0.93289   0.40318   0.78405   0.00000  Uiso   1.00
H1620  H     0.98448   0.40527   0.74727   0.00000  Uiso   1.00
H1621  H     0.67627   0.35619   0.78111   0.00000  Uiso   1.00
H1622  H     0.96027   0.33408   0.76912   0.00000  Uiso   1.00
H1623  H     0.68352   0.52205   0.71315   0.00000  Uiso   1.00
H1624  H     0.95857   0.35451   0.81924   0.00000  Uiso   1.00
H1625  H     0.90983   0.65717   0.71058   0.00000  Uiso   1.00
H1626  H     0.71995   0.33499   0.82092   0.00000  Uiso   1.00
H1627  H     0.76233   0.37609   0.82114   0.00000  Uiso   1.00
H1628  H     0.75883   0.61894   0.84077   0.00000  Uiso   1.00
H1629  H     0.80409   0.65843   0.84005   0.00000  Uiso   1.00
H1630  H     0.75769   0.36949   0.89341   0.00000  Uiso   1.00
H1631  H     0.75546   0.65163   0.90816   0.00000  Uiso   1.00
H1632  H     0.71101   0.66487   0.89339   0.00000  Uiso   1.00
H1633  H     0.78860   0.48843   0.62535   0.00000  Uiso   1.00
H1634  H     0.91791   0.43953   0.59791   0.00000  Uiso   1.00
H1635  H     0.98336   0.48224   0.95243   0.00000  Uiso   1.00
H1636  H     0.96097   0.47301   0.91051   0.00000  Uiso   1.00
H1637  H     0.67781   0.41191   0.93324   0.00000  Uiso   1.00
H1638  H     0.99062   0.40511   0.89071   0.00000  Uiso   1.00
H1639  H     0.70460   0.47106   0.86738   0.00000  Uiso   1.00
H1640  H     0.73505   0.43099   0.87187   0.00000  Uiso   1.00
H1641  H     0.72610   0.47451   0.90931   0.00000  Uiso   1.00
H1642  H     0.91313   0.56122   0.92348   0.00000  Uiso   1.00
H1643  H     0.89212   0.58249   0.88925   0.00000  Uiso   1.00
H1644  H     0.96373   0.52419   0.86617   0.00000  Uiso   1.00
H1645  H     0.74082   0.58276   0.97854   0.00000  Uiso   1.00
H1646  H     0.94278   0.54632   0.83282   0.00000  Uiso   1.00
H1647  H     0.96757   0.61825   0.85930   0.00000  Uiso   1.00
H1648  H     0.67821   0.58656   0.83989   0.00000  Uiso   1.00
H1649  H     0.98873   0.59577   0.89251   0.00000  Uiso   1.00
H1650  H     0.80254   0.59212   0.58334   0.00000  Uiso   1.00
H1651  H     0.74852   0.56222   0.90830   0.00000  Uiso   1.00
H1652  H     0.88224   0.46636   0.92765   0.00000  Uiso   1.00
H1653  H     0.67798   0.41439   0.51425   0.00000  Uiso   1.00
H1654  H     0.97724   0.41779   0.56277   0.00000  Uiso   1.00
H1655  H     0.68321   0.49071   0.51026   0.00000  Uiso   1.00
O1656  O     0.83333   0.50000   0.75000   0.00000  Uiso   1.00
O1657  O     0.82360   0.45726   0.66625   0.00000  Uiso   1.00
O1658  O     0.79354   0.53979   0.83749   0.00000  Uiso   1.00
O1659  O     0.87755   0.50826   0.65877   0.00000  Uiso   1.00
O1660  O     0.83865   0.49468   0.83749   0.00000  Uiso   1.00
O1661  O     0.95093   0.42760   0.51795   0.00000  Uiso   1.00
O1662  O     0.97801   0.47633   0.79779   0.00000  Uiso   1.00
O1663  O     0.88865   0.34424   0.72222   0.00000  Uiso   1.00
O1664  O     0.77506   0.65878   0.77645   0.00000  Uiso   1.00
O1665  O     0.79954   0.49822   0.59884   0.00000  Uiso   1.00
O1666  O     0.93254   0.43444   0.95534   0.00000  Uiso   1.00
O1667  O     0.84515   0.41434   0.77821   0.00000  Uiso   1.00
O1668  O     0.87863   0.51783   0.89213   0.00000  Uiso   1.00
O1669  O     0.82120   0.56917   0.57463   0.00000  Uiso   1.00
O1670  O     0.81247   0.59469   0.76767   0.00000  Uiso   1.00
O1671  O     0.74119   0.46584   0.73607   0.00000  Uiso   1.00
O1672  O     0.93452   0.52512   0.71806   0.00000  Uiso   1.00
O1673  O     0.73656   0.52293   0.77820   0.00000  Uiso   1.00
O1674  O     0.92106   0.48610   0.76768   0.00000  Uiso   1.00
O1675  O     0.80467   0.40236   0.73607   0.00000  Uiso   1.00
O1676  O     0.87104   0.58860   0.71806   0.00000  Uiso   1.00
Zn1677 Zn    0.85910   0.47423   0.78278   0.00000  Uiso   1.00
Zn1678 Zn    0.80125   0.45711   0.72258   0.00000  Uiso   1.00
Zn1679 Zn    0.87833   0.52997   0.71188   0.00000  Uiso   1.00
Zn1680 Zn    0.79465   0.53868   0.78277   0.00000  Uiso   1.00
C1681  C     0.05275   0.82689   0.75841   0.00000  Uiso   1.00
C1682  C     0.21196   0.81135   0.95812   0.00000  Uiso   1.00
C1683  C     0.23658   0.79487   0.97718   0.00000  Uiso   1.00
C1684  C     0.28102   0.84019   0.74142   0.00000  Uiso   1.00
C1685  C     0.22686   0.80115   0.51870   0.00000  Uiso   1.00
C1686  C     0.19262   0.82531   0.54000   0.00000  Uiso   1.00
C1687  C     0.24959   0.78291   0.53938   0.00000  Uiso   1.00
C1688  C     0.23490   0.78594   0.58082   0.00000  Uiso   1.00
C1689  C     0.17451   0.82159   0.58076   0.00000  Uiso   1.00
C1690  C     0.32687   0.84115   0.73780   0.00000  Uiso   1.00
C1691  C     0.00693   0.82346   0.76343   0.00000  Uiso   1.00
C1692  C     0.10499   0.88705   0.92151   0.00000  Uiso   1.00
C1693  C     0.18292   0.99005   0.74178   0.00000  Uiso   1.00
C1694  C     0.15001   0.67870   0.76217   0.00000  Uiso   1.00
C1695  C     0.15577   0.72292   0.75890   0.00000  Uiso   1.00
C1696  C     0.17718   0.94454   0.74184   0.00000  Uiso   1.00
C1697  C     0.18802   0.81230   0.64399   0.00000  Uiso   1.00
C1698  C     0.14632   0.85519   0.85600   0.00000  Uiso   1.00
C1699  C     0.14023   0.86641   0.89851   0.00000  Uiso   1.00
C1700  C     0.19781   0.80466   0.60119   0.00000  Uiso   1.00
C1701  C     0.10021   0.89815   0.96160   0.00000  Uiso   1.00
C1702  C     0.31930   0.76580   0.53483   0.00000  Uiso   1.00
C1703  C     0.17096   0.85764   0.91605   0.00000  Uiso   1.00
C1704  C     0.00614   0.81141   0.53938   0.00000  Uiso   1.00
C1705  C     0.04507   0.81461   0.55562   0.00000  Uiso   1.00
C1706  C     0.31935   0.77033   0.80497   0.00000  Uiso   1.00
C1707  C     0.30134   0.73496   0.77885   0.00000  Uiso   1.00
C1708  C     0.30790   0.69232   0.78775   0.00000  Uiso   1.00
C1709  C     0.08884   0.67494   0.81568   0.00000  Uiso   1.00
C1710  C     0.10180   0.98641   0.84517   0.00000  Uiso   1.00
C1711  C     0.08004   0.66920   0.88764   0.00000  Uiso   1.00
C1712  C     0.30270   0.79117   0.93293   0.00000  Uiso   1.00
C1713  C     0.00347   0.76197   0.91146   0.00000  Uiso   1.00
C1714  C     0.16127   0.86074   0.95766   0.00000  Uiso   1.00
C1715  C     0.04481   0.78624   0.88854   0.00000  Uiso   1.00
C1716  C     0.23980   0.88866   0.89417   0.00000  Uiso   1.00
C1717  C     0.28247   0.88475   0.86220   0.00000  Uiso   1.00
C1718  C     0.31446   0.92386   0.86369   0.00000  Uiso   1.00
C1719  C     0.12810   0.88511   0.97982   0.00000  Uiso   1.00
C1720  C     0.18356   0.84109   0.97782   0.00000  Uiso   1.00
C1721  C     0.17524   0.84972   0.51932   0.00000  Uiso   1.00
C1722  C     0.15073   0.88316   0.53851   0.00000  Uiso   1.00
C1723  C     0.12485   0.89812   0.51938   0.00000  Uiso   1.00
H1724  H     0.10299   0.92084   0.53515   0.00000  Uiso   1.00
H1725  H     0.31553   0.83095   0.55995   0.00000  Uiso   1.00
H1726  H     0.03609   0.79962   0.58347   0.00000  Uiso   1.00
H1727  H     0.05638   0.84795   0.56215   0.00000  Uiso   1.00
H1728  H     0.07182   0.79941   0.53374   0.00000  Uiso   1.00
H1729  H     0.30201   0.76604   0.83624   0.00000  Uiso   1.00
H1730  H     0.02067   0.76842   0.80194   0.00000  Uiso   1.00
H1731  H     0.26622   0.73651   0.78405   0.00000  Uiso   1.00
H1732  H     0.31781   0.73860   0.74727   0.00000  Uiso   1.00
H1733  H     0.00960   0.68953   0.78111   0.00000  Uiso   1.00
H1734  H     0.29360   0.66741   0.76912   0.00000  Uiso   1.00
H1735  H     0.01686   0.85538   0.71315   0.00000  Uiso   1.00
H1736  H     0.29190   0.68785   0.81924   0.00000  Uiso   1.00
H1737  H     0.24316   0.99050   0.71058   0.00000  Uiso   1.00
H1738  H     0.05328   0.66832   0.82092   0.00000  Uiso   1.00
H1739  H     0.09567   0.70942   0.82114   0.00000  Uiso   1.00
H1740  H     0.09216   0.95227   0.84077   0.00000  Uiso   1.00
H1741  H     0.13742   0.99176   0.84005   0.00000  Uiso   1.00
H1742  H     0.09102   0.70283   0.89341   0.00000  Uiso   1.00
H1743  H     0.08879   0.98496   0.90816   0.00000  Uiso   1.00
H1744  H     0.04434   0.99820   0.89339   0.00000  Uiso   1.00
H1745  H     0.12194   0.82177   0.62535   0.00000  Uiso   1.00
H1746  H     0.25125   0.77287   0.59791   0.00000  Uiso   1.00
H1747  H     0.31669   0.81558   0.95243   0.00000  Uiso   1.00
H1748  H     0.29430   0.80635   0.91051   0.00000  Uiso   1.00
H1749  H     0.01114   0.74524   0.93324   0.00000  Uiso   1.00
H1750  H     0.32395   0.73844   0.89071   0.00000  Uiso   1.00
H1751  H     0.03793   0.80440   0.86738   0.00000  Uiso   1.00
H1752  H     0.06839   0.76433   0.87187   0.00000  Uiso   1.00
H1753  H     0.05943   0.80784   0.90931   0.00000  Uiso   1.00
H1754  H     0.24646   0.89455   0.92348   0.00000  Uiso   1.00
H1755  H     0.22545   0.91582   0.88925   0.00000  Uiso   1.00
H1756  H     0.29706   0.85753   0.86617   0.00000  Uiso   1.00
H1757  H     0.07415   0.91609   0.97854   0.00000  Uiso   1.00
H1758  H     0.27611   0.87965   0.83282   0.00000  Uiso   1.00
H1759  H     0.30090   0.95159   0.85930   0.00000  Uiso   1.00
H1760  H     0.01155   0.91989   0.83989   0.00000  Uiso   1.00
H1761  H     0.32206   0.92910   0.89251   0.00000  Uiso   1.00
H1762  H     0.13587   0.92546   0.58334   0.00000  Uiso   1.00
H1763  H     0.08185   0.89555   0.90830   0.00000  Uiso   1.00
H1764  H     0.21557   0.79969   0.92765   0.00000  Uiso   1.00
H1765  H     0.01132   0.74772   0.51425   0.00000  Uiso   1.00
H1766  H     0.31057   0.75112   0.56277   0.00000  Uiso   1.00
H1767  H     0.01654   0.82404   0.51026   0.00000  Uiso   1.00
O1768  O     0.16667   0.83333   0.75000   0.00000  Uiso   1.00
O1769  O     0.15693   0.79060   0.66625   0.00000  Uiso   1.00
O1770  O     0.12687   0.87313   0.83749   0.00000  Uiso   1.00
O1771  O     0.21088   0.84159   0.65877   0.00000  Uiso   1.00
O1772  O     0.17198   0.82802   0.83749   0.00000  Uiso   1.00
O1773  O     0.28426   0.76094   0.51795   0.00000  Uiso   1.00
O1774  O     0.31135   0.80966   0.79779   0.00000  Uiso   1.00
O1775  O     0.22198   0.67757   0.72222   0.00000  Uiso   1.00
O1776  O     0.10839   0.99212   0.77645   0.00000  Uiso   1.00
O1777  O     0.13287   0.83155   0.59884   0.00000  Uiso   1.00
O1778  O     0.26587   0.76778   0.95534   0.00000  Uiso   1.00
O1779  O     0.17849   0.74768   0.77821   0.00000  Uiso   1.00
O1780  O     0.21196   0.85116   0.89213   0.00000  Uiso   1.00
O1781  O     0.15453   0.90251   0.57463   0.00000  Uiso   1.00
O1782  O     0.14581   0.92803   0.76767   0.00000  Uiso   1.00
O1783  O     0.07452   0.79917   0.73607   0.00000  Uiso   1.00
O1784  O     0.26785   0.85845   0.71806   0.00000  Uiso   1.00
O1785  O     0.06990   0.85627   0.77820   0.00000  Uiso   1.00
O1786  O     0.25440   0.81944   0.76768   0.00000  Uiso   1.00
O1787  O     0.13800   0.73570   0.73607   0.00000  Uiso   1.00
O1788  O     0.20437   0.92193   0.71806   0.00000  Uiso   1.00
Zn1789 Zn    0.19244   0.80756   0.78278   0.00000  Uiso   1.00
Zn1790 Zn    0.13459   0.79044   0.72258   0.00000  Uiso   1.00
Zn1791 Zn    0.21166   0.86331   0.71188   0.00000  Uiso   1.00
Zn1792 Zn    0.12798   0.87202   0.78277   0.00000  Uiso   1.00
C1793  C     0.38608   0.82689   0.75841   0.00000  Uiso   1.00
C1794  C     0.54529   0.81135   0.95812   0.00000  Uiso   1.00
C1795  C     0.56991   0.79487   0.97718   0.00000  Uiso   1.00
C1796  C     0.61435   0.84019   0.74142   0.00000  Uiso   1.00
C1797  C     0.56020   0.80115   0.51870   0.00000  Uiso   1.00
C1798  C     0.52595   0.82531   0.54000   0.00000  Uiso   1.00
C1799  C     0.58292   0.78291   0.53938   0.00000  Uiso   1.00
C1800  C     0.56824   0.78594   0.58082   0.00000  Uiso   1.00
C1801  C     0.50784   0.82159   0.58076   0.00000  Uiso   1.00
C1802  C     0.66020   0.84115   0.73780   0.00000  Uiso   1.00
C1803  C     0.34026   0.82346   0.76343   0.00000  Uiso   1.00
C1804  C     0.43832   0.88705   0.92151   0.00000  Uiso   1.00
C1805  C     0.51625   0.99005   0.74178   0.00000  Uiso   1.00
C1806  C     0.48334   0.67870   0.76217   0.00000  Uiso   1.00
C1807  C     0.48910   0.72292   0.75890   0.00000  Uiso   1.00
C1808  C     0.51052   0.94454   0.74184   0.00000  Uiso   1.00
C1809  C     0.52135   0.81230   0.64399   0.00000  Uiso   1.00
C1810  C     0.47965   0.85519   0.85600   0.00000  Uiso   1.00
C1811  C     0.47357   0.86641   0.89851   0.00000  Uiso   1.00
C1812  C     0.53114   0.80466   0.60119   0.00000  Uiso   1.00
C1813  C     0.43355   0.89815   0.96160   0.00000  Uiso   1.00
C1814  C     0.65264   0.76580   0.53483   0.00000  Uiso   1.00
C1815  C     0.50429   0.85764   0.91605   0.00000  Uiso   1.00
C1816  C     0.33947   0.81141   0.53938   0.00000  Uiso   1.00
C1817  C     0.37840   0.81461   0.55562   0.00000  Uiso   1.00
C1818  C     0.65268   0.77033   0.80497   0.00000  Uiso   1.00
C1819  C     0.63467   0.73496   0.77885   0.00000  Uiso   1.00
C1820  C     0.64123   0.69232   0.78775   0.00000  Uiso   1.00
C1821  C     0.42218   0.67494   0.81568   0.00000  Uiso   1.00
C1822  C     0.43513   0.98641   0.84517   0.00000  Uiso   1.00
C1823  C     0.41338   0.66920   0.88764   0.00000  Uiso   1.00
C1824  C     0.63604   0.79117   0.93293   0.00000  Uiso   1.00
C1825  C     0.33681   0.76197   0.91146   0.00000  Uiso   1.00
C1826  C     0.49460   0.86074   0.95766   0.00000  Uiso   1.00
C1827  C     0.37815   0.78624   0.88854   0.00000  Uiso   1.00
C1828  C     0.57313   0.88866   0.89417   0.00000  Uiso   1.00
C1829  C     0.61580   0.88475   0.86220   0.00000  Uiso   1.00
C1830  C     0.64779   0.92386   0.86369   0.00000  Uiso   1.00
C1831  C     0.46143   0.88511   0.97982   0.00000  Uiso   1.00
C1832  C     0.51690   0.84109   0.97782   0.00000  Uiso   1.00
C1833  C     0.50858   0.84972   0.51932   0.00000  Uiso   1.00
C1834  C     0.48406   0.88316   0.53851   0.00000  Uiso   1.00
C1835  C     0.45818   0.89812   0.51938   0.00000  Uiso   1.00
H1836  H     0.43633   0.92084   0.53515   0.00000  Uiso   1.00
H1837  H     0.64886   0.83095   0.55995   0.00000  Uiso   1.00
H1838  H     0.36943   0.79962   0.58347   0.00000  Uiso   1.00
H1839  H     0.38971   0.84795   0.56215   0.00000  Uiso   1.00
H1840  H     0.40515   0.79941   0.53374   0.00000  Uiso   1.00
H1841  H     0.63535   0.76604   0.83624   0.00000  Uiso   1.00
H1842  H     0.35400   0.76842   0.80194   0.00000  Uiso   1.00
H1843  H     0.59955   0.73651   0.78405   0.00000  Uiso   1.00
H1844  H     0.65115   0.73860   0.74727   0.00000  Uiso   1.00
H1845  H     0.34293   0.68953   0.78111   0.00000  Uiso   1.00
H1846  H     0.62694   0.66741   0.76912   0.00000  Uiso   1.00
H1847  H     0.35019   0.85538   0.71315   0.00000  Uiso   1.00
H1848  H     0.62523   0.68785   0.81924   0.00000  Uiso   1.00
H1849  H     0.57649   0.99050   0.71058   0.00000  Uiso   1.00
H1850  H     0.38662   0.66832   0.82092   0.00000  Uiso   1.00
H1851  H     0.42900   0.70942   0.82114   0.00000  Uiso   1.00
H1852  H     0.42549   0.95227   0.84077   0.00000  Uiso   1.00
H1853  H     0.47076   0.99176   0.84005   0.00000  Uiso   1.00
H1854  H     0.42436   0.70283   0.89341   0.00000  Uiso   1.00
H1855  H     0.42213   0.98496   0.90816   0.00000  Uiso   1.00
H1856  H     0.37768   0.99820   0.89339   0.00000  Uiso   1.00
H1857  H     0.45527   0.82177   0.62535   0.00000  Uiso   1.00
H1858  H     0.58458   0.77287   0.59791   0.00000  Uiso   1.00
H1859  H     0.65002   0.81558   0.95243   0.00000  Uiso   1.00
H1860  H     0.62763   0.80635   0.91051   0.00000  Uiso   1.00
H1861  H     0.34447   0.74524   0.93324   0.00000  Uiso   1.00
H1862  H     0.65729   0.73844   0.89071   0.00000  Uiso   1.00
H1863  H     0.37127   0.80440   0.86738   0.00000  Uiso   1.00
H1864  H     0.40172   0.76433   0.87187   0.00000  Uiso   1.00
H1865  H     0.39277   0.80784   0.90931   0.00000  Uiso   1.00
H1866  H     0.57980   0.89455   0.92348   0.00000  Uiso   1.00
H1867  H     0.55879   0.91582   0.88925   0.00000  Uiso   1.00
H1868  H     0.63040   0.85753   0.86617   0.00000  Uiso   1.00
H1869  H     0.40748   0.91609   0.97854   0.00000  Uiso   1.00
H1870  H     0.60945   0.87965   0.83282   0.00000  Uiso   1.00
H1871  H     0.63424   0.95159   0.85930   0.00000  Uiso   1.00
H1872  H     0.34488   0.91989   0.83989   0.00000  Uiso   1.00
H1873  H     0.65539   0.92910   0.89251   0.00000  Uiso   1.00
H1874  H     0.46920   0.92546   0.58334   0.00000  Uiso   1.00
H1875  H     0.41519   0.89555   0.90830   0.00000  Uiso   1.00
H1876  H     0.54890   0.79969   0.92765   0.00000  Uiso   1.00
H1877  H     0.34465   0.74772   0.51425   0.00000  Uiso   1.00
H1878  H     0.64391   0.75112   0.56277   0.00000  Uiso   1.00
H1879  H     0.34987   0.82404   0.51026   0.00000  Uiso   1.00
O1880  O     0.50000   0.83333   0.75000   0.00000  Uiso   1.00
O1881  O     0.49027   0.79060   0.66625   0.00000  Uiso   1.00
O1882  O     0.46020   0.87313   0.83749   0.00000  Uiso   1.00
O1883  O     0.54421   0.84159   0.65877   0.00000  Uiso   1.00
O1884  O     0.50532   0.82802   0.83749   0.00000  Uiso   1.00
O1885  O     0.61760   0.76094   0.51795   0.00000  Uiso   1.00
O1886  O     0.64468   0.80966   0.79779   0.00000  Uiso   1.00
O1887  O     0.55531   0.67757   0.72222   0.00000  Uiso   1.00
O1888  O     0.44172   0.99212   0.77645   0.00000  Uiso   1.00
O1889  O     0.46620   0.83155   0.59884   0.00000  Uiso   1.00
O1890  O     0.59921   0.76778   0.95534   0.00000  Uiso   1.00
O1891  O     0.51182   0.74768   0.77821   0.00000  Uiso   1.00
O1892  O     0.54529   0.85116   0.89213   0.00000  Uiso   1.00
O1893  O     0.48787   0.90251   0.57463   0.00000  Uiso   1.00
O1894  O     0.47914   0.92803   0.76767   0.00000  Uiso   1.00
O1895  O     0.40785   0.79917   0.73607   0.00000  Uiso   1.00
O1896  O     0.60119   0.85845   0.71806   0.00000  Uiso   1.00
O1897  O     0.40323   0.85627   0.77820   0.00000  Uiso   1.00
O1898  O     0.58773   0.81944   0.76768   0.00000  Uiso   1.00
O1899  O     0.47133   0.73570   0.73607   0.00000  Uiso   1.00
O1900  O     0.53771   0.92193   0.71806   0.00000  Uiso   1.00
Zn1901 Zn    0.52577   0.80756   0.78278   0.00000  Uiso   1.00
Zn1902 Zn    0.46792   0.79044   0.72258   0.00000  Uiso   1.00
Zn1903 Zn    0.54500   0.86331   0.71188   0.00000  Uiso   1.00
Zn1904 Zn    0.46131   0.87202   0.78277   0.00000  Uiso   1.00
C1905  C     0.71942   0.82689   0.75841   0.00000  Uiso   1.00
C1906  C     0.87862   0.81135   0.95812   0.00000  Uiso   1.00
C1907  C     0.90324   0.79487   0.97718   0.00000  Uiso   1.00
C1908  C     0.94769   0.84019   0.74142   0.00000  Uiso   1.00
C1909  C     0.89353   0.80115   0.51870   0.00000  Uiso   1.00
C1910  C     0.85929   0.82531   0.54000   0.00000  Uiso   1.00
C1911  C     0.91626   0.78291   0.53938   0.00000  Uiso   1.00
C1912  C     0.90157   0.78594   0.58082   0.00000  Uiso   1.00
C1913  C     0.84118   0.82159   0.58076   0.00000  Uiso   1.00
C1914  C     0.99354   0.84115   0.73780   0.00000  Uiso   1.00
C1915  C     0.67360   0.82346   0.76343   0.00000  Uiso   1.00
C1916  C     0.77166   0.88705   0.92151   0.00000  Uiso   1.00
C1917  C     0.84958   0.99005   0.74178   0.00000  Uiso   1.00
C1918  C     0.81667   0.67870   0.76217   0.00000  Uiso   1.00
C1919  C     0.82244   0.72292   0.75890   0.00000  Uiso   1.00
C1920  C     0.84385   0.94454   0.74184   0.00000  Uiso   1.00
C1921  C     0.85468   0.81230   0.64399   0.00000  Uiso   1.00
C1922  C     0.81298   0.85519   0.85600   0.00000  Uiso   1.00
C1923  C     0.80690   0.86641   0.89851   0.00000  Uiso   1.00
C1924  C     0.86448   0.80466   0.60119   0.00000  Uiso   1.00
C1925  C     0.76688   0.89815   0.96160   0.00000  Uiso   1.00
C1926  C     0.98597   0.76580   0.53483   0.00000  Uiso   1.00
C1927  C     0.83762   0.85764   0.91605   0.00000  Uiso   1.00
C1928  C     0.67281   0.81141   0.53938   0.00000  Uiso   1.00
C1929  C     0.71173   0.81461   0.55562   0.00000  Uiso   1.00
C1930  C     0.98601   0.77033   0.80497   0.00000  Uiso   1.00
C1931  C     0.96800   0.73496   0.77885   0.00000  Uiso   1.00
C1932  C     0.97457   0.69232   0.78775   0.00000  Uiso   1.00
C1933  C     0.75551   0.67494   0.81568   0.00000  Uiso   1.00
C1934  C     0.76846   0.98641   0.84517   0.00000  Uiso   1.00
C1935  C     0.74671   0.66920   0.88764   0.00000  Uiso   1.00
C1936  C     0.96937   0.79117   0.93293   0.00000  Uiso   1.00
C1937  C     0.67014   0.76197   0.91146   0.00000  Uiso   1.00
C1938  C     0.82794   0.86074   0.95766   0.00000  Uiso   1.00
C1939  C     0.71148   0.78624   0.88854   0.00000  Uiso   1.00
C1940  C     0.90646   0.88866   0.89417   0.00000  Uiso   1.00
C1941  C     0.94913   0.88475   0.86220   0.00000  Uiso   1.00
C1942  C     0.98112   0.92386   0.86369   0.00000  Uiso   1.00
C1943  C     0.79477   0.88511   0.97982   0.00000  Uiso   1.00
C1944  C     0.85023   0.84109   0.97782   0.00000  Uiso   1.00
C1945  C     0.84191   0.84972   0.51932   0.00000  Uiso   1.00
C1946  C     0.81739   0.88316   0.53851   0.00000  Uiso   1.00
C1947  C     0.79151   0.89812   0.51938   0.00000  Uiso   1.00
H1948  H     0.76966   0.92084   0.53515   0.00000  Uiso   1.00
H1949  H     0.98220   0.83095   0.55995   0.00000  Uiso   1.00
H1950  H     0.70276   0.79962   0.58347   0.00000  Uiso   1.00
H1951  H     0.72304   0.84795   0.56215   0.00000  Uiso   1.00
H1952  H     0.73848   0.79941   0.53374   0.00000  Uiso   1.00
H1953  H     0.96868   0.76604   0.83624   0.00000  Uiso   1.00
H1954  H     0.68734   0.76842   0.80194   0.00000  Uiso   1.00
H1955  H     0.93289   0.73651   0.78405   0.00000  Uiso   1.00
H1956  H     0.98448   0.73860   0.74727   0.00000  Uiso   1.00
H1957  H     0.67627   0.68953   0.78111   0.00000  Uiso   1.00
H1958  H     0.96027   0.66741   0.76912   0.00000  Uiso   1.00
H1959  H     0.68352   0.85538   0.71315   0.00000  Uiso   1.00
H1960  H     0.95857   0.68785   0.81924   0.00000  Uiso   1.00
H1961  H     0.90983   0.99050   0.71058   0.00000  Uiso   1.00
H1962  H     0.71995   0.66832   0.82092   0.00000  Uiso   1.00
H1963  H     0.76233   0.70942   0.82114   0.00000  Uiso   1.00
H1964  H     0.75883   0.95227   0.84077   0.00000  Uiso   1.00
H1965  H     0.80409   0.99176   0.84005   0.00000  Uiso   1.00
H1966  H     0.75769   0.70283   0.89341   0.00000  Uiso   1.00
H1967  H     0.75546   0.98496   0.90816   0.00000  Uiso   1.00
H1968  H     0.71101   0.99820   0.89339   0.00000  Uiso   1.00
H1969  H     0.78860   0.82177   0.62535   0.00000  Uiso   1.00
H1970  H     0.91791   0.77287   0.59791   0.00000  Uiso   1.00
H1971  H     0.98336   0.81558   0.95243   0.00000  Uiso   1.00
H1972  H     0.96097   0.80635   0.91051   0.00000  Uiso   1.00
H1973  H     0.67781   0.74524   0.93324   0.00000  Uiso   1.00
H1974  H     0.99062   0.73844   0.89071   0.00000  Uiso   1.00
H1975  H     0.70460   0.80440   0.86738   0.00000  Uiso   1.00
H1976  H     0.73505   0.76433   0.87187   0.00000  Uiso   1.00
H1977  H     0.72610   0.80784   0.90931   0.00000  Uiso   1.00
H1978  H     0.91313   0.89455   0.92348   0.00000  Uiso   1.00
H1979  H     0.89212   0.91582   0.88925   0.00000  Uiso   1.00
H1980  H     0.96373   0.85753   0.86617   0.00000  Uiso   1.00
H1981  H     0.74082   0.91609   0.97854   0.00000  Uiso   1.00
H1982  H     0.94278   0.87965   0.83282   0.00000  Uiso   1.00
H1983  H     0.96757   0.95159   0.85930   0.00000  Uiso   1.00
H1984  H     0.67821   0.91989   0.83989   0.00000  Uiso   1.00
H1985  H     0.98873   0.92910   0.89251   0.00000  Uiso   1.00
H1986  H     0.80254   0.92546   0.58334   0.00000  Uiso   1.00
H1987  H     0.74852   0.89555   0.90830   0.00000  Uiso   1.00
H1988  H     0.88224   0.79969   0.92765   0.00000  Uiso   1.00
H1989  H     0.67798   0.74772   0.51425   0.00000  Uiso   1.00
H1990  H     0.97724   0.75112   0.56277   0.00000  Uiso   1.00
H1991  H     0.68321   0.82404   0.51026   0.00000  Uiso   1.00
O1992  O     0.83333   0.83333   0.75000   0.00000  Uiso   1.00
O1993  O     0.82360   0.79060   0.66625   0.00000  Uiso   1.00
O1994  O     0.79354   0.87313   0.83749   0.00000  Uiso   1.00
O1995  O     0.87755   0.84159   0.65877   0.00000  Uiso   1.00
O1996  O     0.83865   0.82802   0.83749   0.00000  Uiso   1.00
O1997  O     0.95093   0.76094   0.51795   0.00000  Uiso   1.00
O1998  O     0.97801   0.80966   0.79779   0.00000  Uiso   1.00
O1999  O     0.88865   0.67757   0.72222   0.00000  Uiso   1.00
O2000  O     0.77506   0.99212   0.77645   0.00000  Uiso   1.00
O2001  O     0.79954   0.83155   0.59884   0.00000  Uiso   1.00
O2002  O     0.93254   0.76778   0.95534   0.00000  Uiso   1.00
O2003  O     0.84515   0.74768   0.77821   0.00000  Uiso   1.00
O2004  O     0.87863   0.85116   0.89213   0.00000  Uiso   1.00
O2005  O     0.82120   0.90251   0.57463   0.00000  Uiso   1.00
O2006  O     0.81247   0.92803   0.76767   0.00000  Uiso   1.00
O2007  O     0.74119   0.79917   0.73607   0.00000  Uiso   1.00
O2008  O     0.93452   0.85845   0.71806   0.00000  Uiso   1.00
O2009  O     0.73656   0.85627   0.77820   0.00000  Uiso   1.00
O2010  O     0.92106   0.81944   0.76768   0.00000  Uiso   1.00
O2011  O     0.80467   0.73570   0.73607   0.00000  Uiso   1.00
O2012  O     0.87104   0.92193   0.71806   0.00000  Uiso   1.00
Zn2013 Zn    0.85910   0.80756   0.78278   0.00000  Uiso   1.00
Zn2014 Zn    0.80125   0.79044   0.72258   0.00000  Uiso   1.00
Zn2015 Zn    0.87833   0.86331   0.71188   0.00000  Uiso   1.00
Zn2016 Zn    0.79465   0.87202   0.78277   0.00000  Uiso   1.00
loop_
_geom_bond_atom_site_label_1
_geom_bond_atom_site_label_2
_geom_bond_distance
_geom_bond_site_symmetry_2
_ccdc_geom_bond_type
C1     O103    1.268   .     A
C1     C11     1.439   .     S
C1     O105    1.268   .     A
C2     H84     1.077   .     S
C2     C3      1.394   .     A
C2     C40     1.407   .     A
C3     O98     1.385   .     S
C3     C1013   1.412   .     S
C4     O106    1.271   .     A
C4     C10     1.457   .     S
C4     O104    1.287   .     A
C5     C7      1.421   .     A
C5     C6      1.427   .     A
C5     C1011   1.412   1_554 S
C6     C9      1.414   .     A
C6     C41     1.428   .     A
C7     C8      1.408   .     A
C7     O93     1.397   .     S
C8     H66     1.080   .     S
C8     C20     1.393   .     A
C9     C20     1.405   .     A
C9     O97     1.386   .     S
C10    C123    1.347   .     S
C10    H167    1.088   .     S
C11    C234    1.347   1_455 S
C11    O318    1.394   1_455 S
C12    C21     1.393   .     A
C12    H83     1.083   .     S
C12    C19     1.402   .     A
C13    C16     1.466   .     S
C13    C350    1.347   .     S
C13    O431    1.387   .     S
C14    C15     1.442   .     S
C14    C685    1.347   1_545 S
C14    O768    1.395   1_545 S
C15    O107    1.271   .     A
C15    O99     1.279   .     A
C16    O102    1.268   .     A
C16    O108    1.274   .     A
C17    O91     1.272   .     A
C17    C20     1.457   .     S
C17    O89     1.276   .     A
C18    C19     1.470   .     S
C18    O90     1.281   .     A
C18    O92     1.285   .     A
C19    C23     1.406   .     A
C21    C39     1.402   .     A
C21    H77     1.084   .     S
C22    O93     1.418   .     S
C22    H86     1.109   .     S
C22    C136    1.539   .     S
C22    H197    1.111   .     S
C23    O100    1.386   .     S
C23    C34     1.416   .     A
C24    C25     1.526   .     S
C24    H87     1.111   .     S
C24    C246    1.539   1_455 S
C24    H269    1.110   1_455 S
C25    H47     1.108   .     S
C25    H48     1.111   .     S
C25    H46     1.111   .     S
C26    O94     1.416   .     S
C26    C27     1.534   .     S
C26    H49     1.111   .     S
C26    H162    1.112   .     S
C27    H51     1.112   .     S
C27    H52     1.111   .     S
C27    C28     1.526   .     S
C28    H56     1.111   .     S
C28    H54     1.111   .     S
C28    H165    1.110   .     S
C29    H59     1.112   .     S
C29    H58     1.111   .     S
C29    C702    1.533   1_545 S
C29    O768    1.417   1_545 S
C30    H60     1.111   .     S
C30    H61     1.111   .     S
C30    C365    1.533   .     S
C30    C367    1.526   .     S
C31    H62     1.110   .     S
C31    C702    1.526   1_545 S
C31    H735    1.111   1_545 S
C31    H736    1.111   1_545 S
C32    H68     1.113   .     S
C32    H67     1.116   .     S
C32    O98     1.413   .     S
C32    C145    1.528   .     S
C33    C35     1.526   .     S
C33    H69     1.112   .     S
C33    C256    1.528   1_455 S
C33    H294    1.112   1_455 S
C34    C40     1.424   .     A
C34    C39     1.414   .     A
C35    H71     1.111   .     S
C35    H72     1.108   .     S
C35    H73     1.109   .     S
C36    C37     1.527   .     S
C36    H75     1.117   .     S
C36    O100    1.415   .     S
C36    H74     1.114   .     S
C37    C38     1.526   .     S
C37    H76     1.110   .     S
C37    H78     1.111   .     S
C38    H79     1.111   .     S
C38    H81     1.111   .     S
C38    H192    1.111   .     S
C39    C1051   1.392   .     S
C40    C1049   1.419   .     S
C41    C42     1.421   .     A
C41    C1048   1.419   1_554 S
C42    C43     1.402   .     A
C42    O101    1.383   .     S
C43    H44     1.084   .     S
C43    C1047   1.392   1_554 S
H45    C136    1.110   .     S
H50    C250    1.112   1_455 S
H53    C252    1.110   1_455 S
H55    C234    1.088   1_455 S
H57    O431    0.990   .     S
H63    C367    1.111   .     S
H64    C367    1.111   .     S
H65    O97     0.988   .     S
H70    C145    1.112   .     S
H80    C262    1.111   1_455 S
H82    O101    0.992   .     S
H85    C246    1.111   1_455 S
O88    Zn111   1.932   .     S
O88    Zn110   1.944   .     S
O88    Zn109   1.959   .     S
O88    Zn112   1.933   .     S
O89    Zn110   1.926   .     S
O90    Zn112   1.936   .     S
O91    Zn111   1.932   .     S
O92    Zn109   1.923   .     S
O94    C123    1.394   .     S
O95    C685    1.387   1_545 S
O95    H729    0.990   1_545 S
O96    C350    1.395   .     S
O96    C365    1.417   .     S
O99    Zn109   1.931   .     S
O102   Zn112   1.932   .     S
O103   Zn110   1.928   .     S
O104   Zn111   1.938   .     S
O105   Zn112   1.933   .     S
O106   Zn109   1.924   .     S
O107   Zn110   1.938   .     S
O108   Zn111   1.933   .     S
C113   O215    1.268   .     A
C113   C123    1.439   .     S
C113   O217    1.268   .     A
C114   H196    1.077   .     S
C114   C115    1.394   .     A
C114   C152    1.407   .     A
C115   O210    1.385   .     S
C115   C1125   1.412   .     S
C116   O218    1.271   .     A
C116   C122    1.457   .     S
C116   O216    1.287   .     A
C117   C119    1.421   .     A
C117   C118    1.427   .     A
C117   C1123   1.412   1_554 S
C118   C121    1.414   .     A
C118   C153    1.428   .     A
C119   C120    1.408   .     A
C119   O205    1.397   .     S
C120   H178    1.080   .     S
C120   C132    1.393   .     A
C121   C132    1.405   .     A
C121   O209    1.386   .     S
C122   C235    1.347   .     S
C122   H279    1.088   .     S
C124   C133    1.393   .     A
C124   H195    1.083   .     S
C124   C131    1.402   .     A
C125   C128    1.466   .     S
C125   C462    1.347   .     S
C125   O543    1.387   .     S
C126   C127    1.442   .     S
C126   C797    1.347   1_545 S
C126   O880    1.395   1_545 S
C127   O219    1.271   .     A
C127   O211    1.279   .     A
C128   O214    1.268   .     A
C128   O220    1.274   .     A
C129   O203    1.272   .     A
C129   C132    1.457   .     S
C129   O201    1.276   .     A
C130   C131    1.470   .     S
C130   O202    1.281   .     A
C130   O204    1.285   .     A
C131   C135    1.406   .     A
C133   C151    1.402   .     A
C133   H189    1.084   .     S
C134   O205    1.418   .     S
C134   H198    1.109   .     S
C134   C248    1.539   .     S
C134   H309    1.111   .     S
C135   O212    1.386   .     S
C135   C146    1.416   .     A
C136   C137    1.526   .     S
C136   H199    1.111   .     S
C137   H159    1.108   .     S
C137   H160    1.111   .     S
C137   H158    1.111   .     S
C138   O206    1.416   .     S
C138   C139    1.534   .     S
C138   H161    1.111   .     S
C138   H274    1.112   .     S
C139   H163    1.112   .     S
C139   H164    1.111   .     S
C139   C140    1.526   .     S
C140   H168    1.111   .     S
C140   H166    1.111   .     S
C140   H277    1.110   .     S
C141   H171    1.112   .     S
C141   H170    1.111   .     S
C141   C814    1.533   1_545 S
C141   O880    1.417   1_545 S
C142   H172    1.111   .     S
C142   H173    1.111   .     S
C142   C477    1.533   .     S
C142   C479    1.526   .     S
C143   H174    1.110   .     S
C143   C814    1.526   1_545 S
C143   H847    1.111   1_545 S
C143   H848    1.111   1_545 S
C144   H180    1.113   .     S
C144   H179    1.116   .     S
C144   O210    1.413   .     S
C144   C257    1.528   .     S
C145   C147    1.526   .     S
C145   H181    1.112   .     S
C146   C152    1.424   .     A
C146   C151    1.414   .     A
C147   H183    1.111   .     S
C147   H184    1.108   .     S
C147   H185    1.109   .     S
C148   C149    1.527   .     S
C148   H187    1.117   .     S
C148   O212    1.415   .     S
C148   H186    1.114   .     S
C149   C150    1.526   .     S
C149   H188    1.110   .     S
C149   H190    1.111   .     S
C150   H191    1.111   .     S
C150   H193    1.111   .     S
C150   H304    1.111   .     S
C151   C1163   1.392   .     S
C152   C1161   1.419   .     S
C153   C154    1.421   .     A
C153   C1160   1.419   1_554 S
C154   C155    1.402   .     A
C154   O213    1.383   .     S
C155   H156    1.084   .     S
C155   C1159   1.392   1_554 S
H157   C248    1.110   .     S
H169   O543    0.990   .     S
H175   C479    1.111   .     S
H176   C479    1.111   .     S
H177   O209    0.988   .     S
H182   C257    1.112   .     S
H194   O213    0.992   .     S
O200   Zn223   1.932   .     S
O200   Zn222   1.944   .     S
O200   Zn221   1.959   .     S
O200   Zn224   1.933   .     S
O201   Zn222   1.926   .     S
O202   Zn224   1.936   .     S
O203   Zn223   1.932   .     S
O204   Zn221   1.923   .     S
O206   C235    1.394   .     S
O207   C797    1.387   1_545 S
O207   H841    0.990   1_545 S
O208   C462    1.395   .     S
O208   C477    1.417   .     S
O211   Zn221   1.931   .     S
O214   Zn224   1.932   .     S
O215   Zn222   1.928   .     S
O216   Zn223   1.938   .     S
O217   Zn224   1.933   .     S
O218   Zn221   1.924   .     S
O219   Zn222   1.938   .     S
O220   Zn223   1.933   .     S
C225   O327    1.268   .     A
C225   C235    1.439   .     S
C225   O329    1.268   .     A
C226   H308    1.077   .     S
C226   C227    1.394   .     A
C226   C264    1.407   .     A
C227   O322    1.385   .     S
C227   C1237   1.412   .     S
C228   O330    1.271   .     A
C228   C234    1.457   .     S
C228   O328    1.287   .     A
C229   C231    1.421   .     A
C229   C230    1.427   .     A
C229   C1235   1.412   1_554 S
C230   C233    1.414   .     A
C230   C265    1.428   .     A
C231   C232    1.408   .     A
C231   O317    1.397   .     S
C232   H290    1.080   .     S
C232   C244    1.393   .     A
C233   C244    1.405   .     A
C233   O321    1.386   .     S
C234   C11     1.347   1_655 S
C234   H55     1.088   1_655 S
C236   C245    1.393   .     A
C236   H307    1.083   .     S
C236   C243    1.402   .     A
C237   C240    1.466   .     S
C237   C574    1.347   .     S
C237   O655    1.387   .     S
C238   C239    1.442   .     S
C238   C909    1.347   1_545 S
C238   O992    1.395   1_545 S
C239   O331    1.271   .     A
C239   O323    1.279   .     A
C240   O326    1.268   .     A
C240   O332    1.274   .     A
C241   O315    1.272   .     A
C241   C244    1.457   .     S
C241   O313    1.276   .     A
C242   C243    1.470   .     S
C242   O314    1.281   .     A
C242   O316    1.285   .     A
C243   C247    1.406   .     A
C245   C263    1.402   .     A
C245   H301    1.084   .     S
C246   O317    1.418   .     S
C246   H310    1.109   .     S
C246   C24     1.539   1_655 S
C246   H85     1.111   1_655 S
C247   O324    1.386   .     S
C247   C258    1.416   .     A
C248   C249    1.526   .     S
C248   H311    1.111   .     S
C249   H271    1.108   .     S
C249   H272    1.111   .     S
C249   H270    1.111   .     S
C250   O318    1.416   .     S
C250   C251    1.534   .     S
C250   H273    1.111   .     S
C250   H50     1.112   1_655 S
C251   H275    1.112   .     S
C251   H276    1.111   .     S
C251   C252    1.526   .     S
C252   H280    1.111   .     S
C252   H278    1.111   .     S
C252   H53     1.110   1_655 S
C253   H283    1.112   .     S
C253   H282    1.111   .     S
C253   C926    1.533   1_545 S
C253   O992    1.417   1_545 S
C254   H284    1.111   .     S
C254   H285    1.111   .     S
C254   C589    1.533   .     S
C254   C591    1.526   .     S
C255   H286    1.110   .     S
C255   C926    1.526   1_545 S
C255   H959    1.111   1_545 S
C255   H960    1.111   1_545 S
C256   H292    1.113   .     S
C256   H291    1.116   .     S
C256   O322    1.413   .     S
C256   C33     1.528   1_655 S
C257   C259    1.526   .     S
C257   H293    1.112   .     S
C258   C264    1.424   .     A
C258   C263    1.414   .     A
C259   H295    1.111   .     S
C259   H296    1.108   .     S
C259   H297    1.109   .     S
C260   C261    1.527   .     S
C260   H299    1.117   .     S
C260   O324    1.415   .     S
C260   H298    1.114   .     S
C261   C262    1.526   .     S
C261   H300    1.110   .     S
C261   H302    1.111   .     S
C262   H303    1.111   .     S
C262   H305    1.111   .     S
C262   H80     1.111   1_655 S
C263   C1275   1.392   .     S
C264   C1273   1.419   .     S
C265   C266    1.421   .     A
C265   C1272   1.419   1_554 S
C266   C267    1.402   .     A
C266   O325    1.383   .     S
C267   H268    1.084   .     S
C267   C1271   1.392   1_554 S
H269   C24     1.110   1_655 S
H281   O655    0.990   .     S
H287   C591    1.111   .     S
H288   C591    1.111   .     S
H289   O321    0.988   .     S
H294   C33     1.112   1_655 S
H306   O325    0.992   .     S
O312   Zn335   1.932   .     S
O312   Zn334   1.944   .     S
O312   Zn333   1.959   .     S
O312   Zn336   1.933   .     S
O313   Zn334   1.926   .     S
O314   Zn336   1.936   .     S
O315   Zn335   1.932   .     S
O316   Zn333   1.923   .     S
O318   C11     1.394   1_655 S
O319   C909    1.387   1_545 S
O319   H953    0.990   1_545 S
O320   C574    1.395   .     S
O320   C589    1.417   .     S
O323   Zn333   1.931   .     S
O326   Zn336   1.932   .     S
O327   Zn334   1.928   .     S
O328   Zn335   1.938   .     S
O329   Zn336   1.933   .     S
O330   Zn333   1.924   .     S
O331   Zn334   1.938   .     S
O332   Zn335   1.933   .     S
C337   O439    1.268   .     A
C337   C347    1.439   .     S
C337   O441    1.268   .     A
C338   H420    1.077   .     S
C338   C339    1.394   .     A
C338   C376    1.407   .     A
C339   O434    1.385   .     S
C339   C1349   1.412   .     S
C340   O442    1.271   .     A
C340   C346    1.457   .     S
C340   O440    1.287   .     A
C341   C343    1.421   .     A
C341   C342    1.427   .     A
C341   C1347   1.412   1_554 S
C342   C345    1.414   .     A
C342   C377    1.428   .     A
C343   C344    1.408   .     A
C343   O429    1.397   .     S
C344   H402    1.080   .     S
C344   C356    1.393   .     A
C345   C356    1.405   .     A
C345   O433    1.386   .     S
C346   C459    1.347   .     S
C346   H503    1.088   .     S
C347   C570    1.347   1_455 S
C347   O654    1.394   1_455 S
C348   C357    1.393   .     A
C348   H419    1.083   .     S
C348   C355    1.402   .     A
C349   C352    1.466   .     S
C349   C686    1.347   .     S
C349   O767    1.387   .     S
C350   C351    1.442   .     S
C351   O443    1.271   .     A
C351   O435    1.279   .     A
C352   O438    1.268   .     A
C352   O444    1.274   .     A
C353   O427    1.272   .     A
C353   C356    1.457   .     S
C353   O425    1.276   .     A
C354   C355    1.470   .     S
C354   O426    1.281   .     A
C354   O428    1.285   .     A
C355   C359    1.406   .     A
C357   C375    1.402   .     A
C357   H413    1.084   .     S
C358   O429    1.418   .     S
C358   H422    1.109   .     S
C358   C472    1.539   .     S
C358   H533    1.111   .     S
C359   O436    1.386   .     S
C359   C370    1.416   .     A
C360   C361    1.526   .     S
C360   H423    1.111   .     S
C360   C582    1.539   1_455 S
C360   H605    1.110   1_455 S
C361   H383    1.108   .     S
C361   H384    1.111   .     S
C361   H382    1.111   .     S
C362   O430    1.416   .     S
C362   C363    1.534   .     S
C362   H385    1.111   .     S
C362   H498    1.112   .     S
C363   H387    1.112   .     S
C363   H388    1.111   .     S
C363   C364    1.526   .     S
C364   H392    1.111   .     S
C364   H390    1.111   .     S
C364   H501    1.110   .     S
C365   H395    1.112   .     S
C365   H394    1.111   .     S
C366   H396    1.111   .     S
C366   H397    1.111   .     S
C366   C701    1.533   .     S
C366   C703    1.526   .     S
C367   H398    1.110   .     S
C368   H404    1.113   .     S
C368   H403    1.116   .     S
C368   O434    1.413   .     S
C368   C481    1.528   .     S
C369   C371    1.526   .     S
C369   H405    1.112   .     S
C369   C592    1.528   1_455 S
C369   H630    1.112   1_455 S
C370   C376    1.424   .     A
C370   C375    1.414   .     A
C371   H407    1.111   .     S
C371   H408    1.108   .     S
C371   H409    1.109   .     S
C372   C373    1.527   .     S
C372   H411    1.117   .     S
C372   O436    1.415   .     S
C372   H410    1.114   .     S
C373   C374    1.526   .     S
C373   H412    1.110   .     S
C373   H414    1.111   .     S
C374   H415    1.111   .     S
C374   H417    1.111   .     S
C374   H528    1.111   .     S
C375   C1387   1.392   .     S
C376   C1385   1.419   .     S
C377   C378    1.421   .     A
C377   C1384   1.419   1_554 S
C378   C379    1.402   .     A
C378   O437    1.383   .     S
C379   H380    1.084   .     S
C379   C1383   1.392   1_554 S
H381   C472    1.110   .     S
H386   C586    1.112   1_455 S
H389   C588    1.110   1_455 S
H391   C570    1.088   1_455 S
H393   O767    0.990   .     S
H399   C703    1.111   .     S
H400   C703    1.111   .     S
H401   O433    0.988   .     S
H406   C481    1.112   .     S
H416   C598    1.111   1_455 S
H418   O437    0.992   .     S
H421   C582    1.111   1_455 S
O424   Zn447   1.932   .     S
O424   Zn446   1.944   .     S
O424   Zn445   1.959   .     S
O424   Zn448   1.933   .     S
O425   Zn446   1.926   .     S
O426   Zn448   1.936   .     S
O427   Zn447   1.932   .     S
O428   Zn445   1.923   .     S
O430   C459    1.394   .     S
O432   C686    1.395   .     S
O432   C701    1.417   .     S
O435   Zn445   1.931   .     S
O438   Zn448   1.932   .     S
O439   Zn446   1.928   .     S
O440   Zn447   1.938   .     S
O441   Zn448   1.933   .     S
O442   Zn445   1.924   .     S
O443   Zn446   1.938   .     S
O444   Zn447   1.933   .     S
C449   O551    1.268   .     A
C449   C459    1.439   .     S
C449   O553    1.268   .     A
C450   H532    1.077   .     S
C450   C451    1.394   .     A
C450   C488    1.407   .     A
C451   O546    1.385   .     S
C451   C1461   1.412   .     S
C452   O554    1.271   .     A
C452   C458    1.457   .     S
C452   O552    1.287   .     A
C453   C455    1.421   .     A
C453   C454    1.427   .     A
C453   C1459   1.412   1_554 S
C454   C457    1.414   .     A
C454   C489    1.428   .     A
C455   C456    1.408   .     A
C455   O541    1.397   .     S
C456   H514    1.080   .     S
C456   C468    1.393   .     A
C457   C468    1.405   .     A
C457   O545    1.386   .     S
C458   C571    1.347   .     S
C458   H615    1.088   .     S
C460   C469    1.393   .     A
C460   H531    1.083   .     S
C460   C467    1.402   .     A
C461   C464    1.466   .     S
C461   C798    1.347   .     S
C461   O879    1.387   .     S
C462   C463    1.442   .     S
C463   O555    1.271   .     A
C463   O547    1.279   .     A
C464   O550    1.268   .     A
C464   O556    1.274   .     A
C465   O539    1.272   .     A
C465   C468    1.457   .     S
C465   O537    1.276   .     A
C466   C467    1.470   .     S
C466   O538    1.281   .     A
C466   O540    1.285   .     A
C467   C471    1.406   .     A
C469   C487    1.402   .     A
C469   H525    1.084   .     S
C470   O541    1.418   .     S
C470   H534    1.109   .     S
C470   C584    1.539   .     S
C470   H645    1.111   .     S
C471   O548    1.386   .     S
C471   C482    1.416   .     A
C472   C473    1.526   .     S
C472   H535    1.111   .     S
C473   H495    1.108   .     S
C473   H496    1.111   .     S
C473   H494    1.111   .     S
C474   O542    1.416   .     S
C474   C475    1.534   .     S
C474   H497    1.111   .     S
C474   H610    1.112   .     S
C475   H499    1.112   .     S
C475   H500    1.111   .     S
C475   C476    1.526   .     S
C476   H504    1.111   .     S
C476   H502    1.111   .     S
C476   H613    1.110   .     S
C477   H507    1.112   .     S
C477   H506    1.111   .     S
C478   H508    1.111   .     S
C478   H509    1.111   .     S
C478   C813    1.533   .     S
C478   C815    1.526   .     S
C479   H510    1.110   .     S
C480   H516    1.113   .     S
C480   H515    1.116   .     S
C480   O546    1.413   .     S
C480   C593    1.528   .     S
C481   C483    1.526   .     S
C481   H517    1.112   .     S
C482   C488    1.424   .     A
C482   C487    1.414   .     A
C483   H519    1.111   .     S
C483   H520    1.108   .     S
C483   H521    1.109   .     S
C484   C485    1.527   .     S
C484   H523    1.117   .     S
C484   O548    1.415   .     S
C484   H522    1.114   .     S
C485   C486    1.526   .     S
C485   H524    1.110   .     S
C485   H526    1.111   .     S
C486   H527    1.111   .     S
C486   H529    1.111   .     S
C486   H640    1.111   .     S
C487   C1499   1.392   .     S
C488   C1497   1.419   .     S
C489   C490    1.421   .     A
C489   C1496   1.419   1_554 S
C490   C491    1.402   .     A
C490   O549    1.383   .     S
C491   H492    1.084   .     S
C491   C1495   1.392   1_554 S
H493   C584    1.110   .     S
H505   O879    0.990   .     S
H511   C815    1.111   .     S
H512   C815    1.111   .     S
H513   O545    0.988   .     S
H518   C593    1.112   .     S
H530   O549    0.992   .     S
O536   Zn559   1.932   .     S
O536   Zn558   1.944   .     S
O536   Zn557   1.959   .     S
O536   Zn560   1.933   .     S
O537   Zn558   1.926   .     S
O538   Zn560   1.936   .     S
O539   Zn559   1.932   .     S
O540   Zn557   1.923   .     S
O542   C571    1.394   .     S
O544   C798    1.395   .     S
O544   C813    1.417   .     S
O547   Zn557   1.931   .     S
O550   Zn560   1.932   .     S
O551   Zn558   1.928   .     S
O552   Zn559   1.938   .     S
O553   Zn560   1.933   .     S
O554   Zn557   1.924   .     S
O555   Zn558   1.938   .     S
O556   Zn559   1.933   .     S
C561   O663    1.268   .     A
C561   C571    1.439   .     S
C561   O665    1.268   .     A
C562   H644    1.077   .     S
C562   C563    1.394   .     A
C562   C600    1.407   .     A
C563   O658    1.385   .     S
C563   C1573   1.412   .     S
C564   O666    1.271   .     A
C564   C570    1.457   .     S
C564   O664    1.287   .     A
C565   C567    1.421   .     A
C565   C566    1.427   .     A
C565   C1571   1.412   1_554 S
C566   C569    1.414   .     A
C566   C601    1.428   .     A
C567   C568    1.408   .     A
C567   O653    1.397   .     S
C568   H626    1.080   .     S
C568   C580    1.393   .     A
C569   C580    1.405   .     A
C569   O657    1.386   .     S
C570   C347    1.347   1_655 S
C570   H391    1.088   1_655 S
C572   C581    1.393   .     A
C572   H643    1.083   .     S
C572   C579    1.402   .     A
C573   C576    1.466   .     S
C573   C910    1.347   .     S
C573   O991    1.387   .     S
C574   C575    1.442   .     S
C575   O667    1.271   .     A
C575   O659    1.279   .     A
C576   O662    1.268   .     A
C576   O668    1.274   .     A
C577   O651    1.272   .     A
C577   C580    1.457   .     S
C577   O649    1.276   .     A
C578   C579    1.470   .     S
C578   O650    1.281   .     A
C578   O652    1.285   .     A
C579   C583    1.406   .     A
C581   C599    1.402   .     A
C581   H637    1.084   .     S
C582   O653    1.418   .     S
C582   H646    1.109   .     S
C582   C360    1.539   1_655 S
C582   H421    1.111   1_655 S
C583   O660    1.386   .     S
C583   C594    1.416   .     A
C584   C585    1.526   .     S
C584   H647    1.111   .     S
C585   H607    1.108   .     S
C585   H608    1.111   .     S
C585   H606    1.111   .     S
C586   O654    1.416   .     S
C586   C587    1.534   .     S
C586   H609    1.111   .     S
C586   H386    1.112   1_655 S
C587   H611    1.112   .     S
C587   H612    1.111   .     S
C587   C588    1.526   .     S
C588   H616    1.111   .     S
C588   H614    1.111   .     S
C588   H389    1.110   1_655 S
C589   H619    1.112   .     S
C589   H618    1.111   .     S
C590   H620    1.111   .     S
C590   H621    1.111   .     S
C590   C925    1.533   .     S
C590   C927    1.526   .     S
C591   H622    1.110   .     S
C592   H628    1.113   .     S
C592   H627    1.116   .     S
C592   O658    1.413   .     S
C592   C369    1.528   1_655 S
C593   C595    1.526   .     S
C593   H629    1.112   .     S
C594   C600    1.424   .     A
C594   C599    1.414   .     A
C595   H631    1.111   .     S
C595   H632    1.108   .     S
C595   H633    1.109   .     S
C596   C597    1.527   .     S
C596   H635    1.117   .     S
C596   O660    1.415   .     S
C596   H634    1.114   .     S
C597   C598    1.526   .     S
C597   H636    1.110   .     S
C597   H638    1.111   .     S
C598   H639    1.111   .     S
C598   H641    1.111   .     S
C598   H416    1.111   1_655 S
C599   C1611   1.392   .     S
C600   C1609   1.419   .     S
C601   C602    1.421   .     A
C601   C1608   1.419   1_554 S
C602   C603    1.402   .     A
C602   O661    1.383   .     S
C603   H604    1.084   .     S
C603   C1607   1.392   1_554 S
H605   C360    1.110   1_655 S
H617   O991    0.990   .     S
H623   C927    1.111   .     S
H624   C927    1.111   .     S
H625   O657    0.988   .     S
H630   C369    1.112   1_655 S
H642   O661    0.992   .     S
O648   Zn671   1.932   .     S
O648   Zn670   1.944   .     S
O648   Zn669   1.959   .     S
O648   Zn672   1.933   .     S
O649   Zn670   1.926   .     S
O650   Zn672   1.936   .     S
O651   Zn671   1.932   .     S
O652   Zn669   1.923   .     S
O654   C347    1.394   1_655 S
O656   C910    1.395   .     S
O656   C925    1.417   .     S
O659   Zn669   1.931   .     S
O662   Zn672   1.932   .     S
O663   Zn670   1.928   .     S
O664   Zn671   1.938   .     S
O665   Zn672   1.933   .     S
O666   Zn669   1.924   .     S
O667   Zn670   1.938   .     S
O668   Zn671   1.933   .     S
C673   O775    1.268   .     A
C673   C683    1.439   .     S
C673   O777    1.268   .     A
C674   H756    1.077   .     S
C674   C675    1.394   .     A
C674   C712    1.407   .     A
C675   O770    1.385   .     S
C675   C1685   1.412   .     S
C676   O778    1.271   .     A
C676   C682    1.457   .     S
C676   O776    1.287   .     A
C677   C679    1.421   .     A
C677   C678    1.427   .     A
C677   C1683   1.412   1_554 S
C678   C681    1.414   .     A
C678   C713    1.428   .     A
C679   C680    1.408   .     A
C679   O765    1.397   .     S
C680   H738    1.080   .     S
C680   C692    1.393   .     A
C681   C692    1.405   .     A
C681   O769    1.386   .     S
C682   C795    1.347   .     S
C682   H839    1.088   .     S
C683   C906    1.347   1_455 S
C683   O990    1.394   1_455 S
C684   C693    1.393   .     A
C684   H755    1.083   .     S
C684   C691    1.402   .     A
C685   C688    1.466   .     S
C685   C14     1.347   1_565 S
C685   O95     1.387   1_565 S
C686   C687    1.442   .     S
C687   O779    1.271   .     A
C687   O771    1.279   .     A
C688   O774    1.268   .     A
C688   O780    1.274   .     A
C689   O763    1.272   .     A
C689   C692    1.457   .     S
C689   O761    1.276   .     A
C690   C691    1.470   .     S
C690   O762    1.281   .     A
C690   O764    1.285   .     A
C691   C695    1.406   .     A
C693   C711    1.402   .     A
C693   H749    1.084   .     S
C694   O765    1.418   .     S
C694   H758    1.109   .     S
C694   C808    1.539   .     S
C694   H869    1.111   .     S
C695   O772    1.386   .     S
C695   C706    1.416   .     A
C696   C697    1.526   .     S
C696   H759    1.111   .     S
C696   C918    1.539   1_455 S
C696   H941    1.110   1_455 S
C697   H719    1.108   .     S
C697   H720    1.111   .     S
C697   H718    1.111   .     S
C698   O766    1.416   .     S
C698   C699    1.534   .     S
C698   H721    1.111   .     S
C698   H834    1.112   .     S
C699   H723    1.112   .     S
C699   H724    1.111   .     S
C699   C700    1.526   .     S
C700   H728    1.111   .     S
C700   H726    1.111   .     S
C700   H837    1.110   .     S
C701   H731    1.112   .     S
C701   H730    1.111   .     S
C702   H732    1.111   .     S
C702   H733    1.111   .     S
C702   C29     1.533   1_565 S
C702   C31     1.526   1_565 S
C703   H734    1.110   .     S
C704   H740    1.113   .     S
C704   H739    1.116   .     S
C704   O770    1.413   .     S
C704   C817    1.528   .     S
C705   C707    1.526   .     S
C705   H741    1.112   .     S
C705   C928    1.528   1_455 S
C705   H966    1.112   1_455 S
C706   C712    1.424   .     A
C706   C711    1.414   .     A
C707   H743    1.111   .     S
C707   H744    1.108   .     S
C707   H745    1.109   .     S
C708   C709    1.527   .     S
C708   H747    1.117   .     S
C708   O772    1.415   .     S
C708   H746    1.114   .     S
C709   C710    1.526   .     S
C709   H748    1.110   .     S
C709   H750    1.111   .     S
C710   H751    1.111   .     S
C710   H753    1.111   .     S
C710   H864    1.111   .     S
C711   C1723   1.392   .     S
C712   C1721   1.419   .     S
C713   C714    1.421   .     A
C713   C1720   1.419   1_554 S
C714   C715    1.402   .     A
C714   O773    1.383   .     S
C715   H716    1.084   .     S
C715   C1719   1.392   1_554 S
H717   C808    1.110   .     S
H722   C922    1.112   1_455 S
H725   C924    1.110   1_455 S
H727   C906    1.088   1_455 S
H729   O95     0.990   1_565 S
H735   C31     1.111   1_565 S
H736   C31     1.111   1_565 S
H737   O769    0.988   .     S
H742   C817    1.112   .     S
H752   C934    1.111   1_455 S
H754   O773    0.992   .     S
H757   C918    1.111   1_455 S
O760   Zn783   1.932   .     S
O760   Zn782   1.944   .     S
O760   Zn781   1.959   .     S
O760   Zn784   1.933   .     S
O761   Zn782   1.926   .     S
O762   Zn784   1.936   .     S
O763   Zn783   1.932   .     S
O764   Zn781   1.923   .     S
O766   C795    1.394   .     S
O768   C14     1.395   1_565 S
O768   C29     1.417   1_565 S
O771   Zn781   1.931   .     S
O774   Zn784   1.932   .     S
O775   Zn782   1.928   .     S
O776   Zn783   1.938   .     S
O777   Zn784   1.933   .     S
O778   Zn781   1.924   .     S
O779   Zn782   1.938   .     S
O780   Zn783   1.933   .     S
C785   O887    1.268   .     A
C785   C795    1.439   .     S
C785   O889    1.268   .     A
C786   H868    1.077   .     S
C786   C787    1.394   .     A
C786   C824    1.407   .     A
C787   O882    1.385   .     S
C787   C1797   1.412   .     S
C788   O890    1.271   .     A
C788   C794    1.457   .     S
C788   O888    1.287   .     A
C789   C791    1.421   .     A
C789   C790    1.427   .     A
C789   C1795   1.412   1_554 S
C790   C793    1.414   .     A
C790   C825    1.428   .     A
C791   C792    1.408   .     A
C791   O877    1.397   .     S
C792   H850    1.080   .     S
C792   C804    1.393   .     A
C793   C804    1.405   .     A
C793   O881    1.386   .     S
C794   C907    1.347   .     S
C794   H951    1.088   .     S
C796   C805    1.393   .     A
C796   H867    1.083   .     S
C796   C803    1.402   .     A
C797   C800    1.466   .     S
C797   C126    1.347   1_565 S
C797   O207    1.387   1_565 S
C798   C799    1.442   .     S
C799   O891    1.271   .     A
C799   O883    1.279   .     A
C800   O886    1.268   .     A
C800   O892    1.274   .     A
C801   O875    1.272   .     A
C801   C804    1.457   .     S
C801   O873    1.276   .     A
C802   C803    1.470   .     S
C802   O874    1.281   .     A
C802   O876    1.285   .     A
C803   C807    1.406   .     A
C805   C823    1.402   .     A
C805   H861    1.084   .     S
C806   O877    1.418   .     S
C806   H870    1.109   .     S
C806   C920    1.539   .     S
C806   H981    1.111   .     S
C807   O884    1.386   .     S
C807   C818    1.416   .     A
C808   C809    1.526   .     S
C808   H871    1.111   .     S
C809   H831    1.108   .     S
C809   H832    1.111   .     S
C809   H830    1.111   .     S
C810   O878    1.416   .     S
C810   C811    1.534   .     S
C810   H833    1.111   .     S
C810   H946    1.112   .     S
C811   H835    1.112   .     S
C811   H836    1.111   .     S
C811   C812    1.526   .     S
C812   H840    1.111   .     S
C812   H838    1.111   .     S
C812   H949    1.110   .     S
C813   H843    1.112   .     S
C813   H842    1.111   .     S
C814   H844    1.111   .     S
C814   H845    1.111   .     S
C814   C141    1.533   1_565 S
C814   C143    1.526   1_565 S
C815   H846    1.110   .     S
C816   H852    1.113   .     S
C816   H851    1.116   .     S
C816   O882    1.413   .     S
C816   C929    1.528   .     S
C817   C819    1.526   .     S
C817   H853    1.112   .     S
C818   C824    1.424   .     A
C818   C823    1.414   .     A
C819   H855    1.111   .     S
C819   H856    1.108   .     S
C819   H857    1.109   .     S
C820   C821    1.527   .     S
C820   H859    1.117   .     S
C820   O884    1.415   .     S
C820   H858    1.114   .     S
C821   C822    1.526   .     S
C821   H860    1.110   .     S
C821   H862    1.111   .     S
C822   H863    1.111   .     S
C822   H865    1.111   .     S
C822   H976    1.111   .     S
C823   C1835   1.392   .     S
C824   C1833   1.419   .     S
C825   C826    1.421   .     A
C825   C1832   1.419   1_554 S
C826   C827    1.402   .     A
C826   O885    1.383   .     S
C827   H828    1.084   .     S
C827   C1831   1.392   1_554 S
H829   C920    1.110   .     S
H841   O207    0.990   1_565 S
H847   C143    1.111   1_565 S
H848   C143    1.111   1_565 S
H849   O881    0.988   .     S
H854   C929    1.112   .     S
H866   O885    0.992   .     S
O872   Zn895   1.932   .     S
O872   Zn894   1.944   .     S
O872   Zn893   1.959   .     S
O872   Zn896   1.933   .     S
O873   Zn894   1.926   .     S
O874   Zn896   1.936   .     S
O875   Zn895   1.932   .     S
O876   Zn893   1.923   .     S
O878   C907    1.394   .     S
O880   C126    1.395   1_565 S
O880   C141    1.417   1_565 S
O883   Zn893   1.931   .     S
O886   Zn896   1.932   .     S
O887   Zn894   1.928   .     S
O888   Zn895   1.938   .     S
O889   Zn896   1.933   .     S
O890   Zn893   1.924   .     S
O891   Zn894   1.938   .     S
O892   Zn895   1.933   .     S
C897   O999    1.268   .     A
C897   C907    1.439   .     S
C897   O1001   1.268   .     A
C898   H980    1.077   .     S
C898   C899    1.394   .     A
C898   C936    1.407   .     A
C899   O994    1.385   .     S
C899   C1909   1.412   .     S
C900   O1002   1.271   .     A
C900   C906    1.457   .     S
C900   O1000   1.287   .     A
C901   C903    1.421   .     A
C901   C902    1.427   .     A
C901   C1907   1.412   1_554 S
C902   C905    1.414   .     A
C902   C937    1.428   .     A
C903   C904    1.408   .     A
C903   O989    1.397   .     S
C904   H962    1.080   .     S
C904   C916    1.393   .     A
C905   C916    1.405   .     A
C905   O993    1.386   .     S
C906   C683    1.347   1_655 S
C906   H727    1.088   1_655 S
C908   C917    1.393   .     A
C908   H979    1.083   .     S
C908   C915    1.402   .     A
C909   C912    1.466   .     S
C909   C238    1.347   1_565 S
C909   O319    1.387   1_565 S
C910   C911    1.442   .     S
C911   O1003   1.271   .     A
C911   O995    1.279   .     A
C912   O998    1.268   .     A
C912   O1004   1.274   .     A
C913   O987    1.272   .     A
C913   C916    1.457   .     S
C913   O985    1.276   .     A
C914   C915    1.470   .     S
C914   O986    1.281   .     A
C914   O988    1.285   .     A
C915   C919    1.406   .     A
C917   C935    1.402   .     A
C917   H973    1.084   .     S
C918   O989    1.418   .     S
C918   H982    1.109   .     S
C918   C696    1.539   1_655 S
C918   H757    1.111   1_655 S
C919   O996    1.386   .     S
C919   C930    1.416   .     A
C920   C921    1.526   .     S
C920   H983    1.111   .     S
C921   H943    1.108   .     S
C921   H944    1.111   .     S
C921   H942    1.111   .     S
C922   O990    1.416   .     S
C922   C923    1.534   .     S
C922   H945    1.111   .     S
C922   H722    1.112   1_655 S
C923   H947    1.112   .     S
C923   H948    1.111   .     S
C923   C924    1.526   .     S
C924   H952    1.111   .     S
C924   H950    1.111   .     S
C924   H725    1.110   1_655 S
C925   H955    1.112   .     S
C925   H954    1.111   .     S
C926   H956    1.111   .     S
C926   H957    1.111   .     S
C926   C253    1.533   1_565 S
C926   C255    1.526   1_565 S
C927   H958    1.110   .     S
C928   H964    1.113   .     S
C928   H963    1.116   .     S
C928   O994    1.413   .     S
C928   C705    1.528   1_655 S
C929   C931    1.526   .     S
C929   H965    1.112   .     S
C930   C936    1.424   .     A
C930   C935    1.414   .     A
C931   H967    1.111   .     S
C931   H968    1.108   .     S
C931   H969    1.109   .     S
C932   C933    1.527   .     S
C932   H971    1.117   .     S
C932   O996    1.415   .     S
C932   H970    1.114   .     S
C933   C934    1.526   .     S
C933   H972    1.110   .     S
C933   H974    1.111   .     S
C934   H975    1.111   .     S
C934   H977    1.111   .     S
C934   H752    1.111   1_655 S
C935   C1947   1.392   .     S
C936   C1945   1.419   .     S
C937   C938    1.421   .     A
C937   C1944   1.419   1_554 S
C938   C939    1.402   .     A
C938   O997    1.383   .     S
C939   H940    1.084   .     S
C939   C1943   1.392   1_554 S
H941   C696    1.110   1_655 S
H953   O319    0.990   1_565 S
H959   C255    1.111   1_565 S
H960   C255    1.111   1_565 S
H961   O993    0.988   .     S
H966   C705    1.112   1_655 S
H978   O997    0.992   .     S
O984   Zn1007  1.932   .     S
O984   Zn1006  1.944   .     S
O984   Zn1005  1.959   .     S
O984   Zn1008  1.933   .     S
O985   Zn1006  1.926   .     S
O986   Zn1008  1.936   .     S
O987   Zn1007  1.932   .     S
O988   Zn1005  1.923   .     S
O990   C683    1.394   1_655 S
O992   C238    1.395   1_565 S
O992   C253    1.417   1_565 S
O995   Zn1005  1.931   .     S
O998   Zn1008  1.932   .     S
O999   Zn1006  1.928   .     S
O1000  Zn1007  1.938   .     S
O1001  Zn1008  1.933   .     S
O1002  Zn1005  1.924   .     S
O1003  Zn1006  1.938   .     S
O1004  Zn1007  1.933   .     S
C1009  O1111   1.268   .     A
C1009  C1019   1.439   .     S
C1009  O1113   1.268   .     A
C1010  H1092   1.077   .     S
C1010  C1011   1.394   .     A
C1010  C1048   1.407   .     A
C1011  O1106   1.385   .     S
C1011  C5      1.412   1_556 S
C1012  O1114   1.271   .     A
C1012  C1018   1.457   .     S
C1012  O1112   1.287   .     A
C1013  C1015   1.421   .     A
C1013  C1014   1.427   .     A
C1014  C1017   1.414   .     A
C1014  C1049   1.428   .     A
C1015  C1016   1.408   .     A
C1015  O1101   1.397   .     S
C1016  H1074   1.080   .     S
C1016  C1028   1.393   .     A
C1017  C1028   1.405   .     A
C1017  O1105   1.386   .     S
C1018  C1131   1.347   .     S
C1018  H1175   1.088   .     S
C1019  C1242   1.347   1_455 S
C1019  O1326   1.394   1_455 S
C1020  C1029   1.393   .     A
C1020  H1091   1.083   .     S
C1020  C1027   1.402   .     A
C1021  C1024   1.466   .     S
C1021  C1358   1.347   .     S
C1021  O1439   1.387   .     S
C1022  C1023   1.442   .     S
C1022  C1693   1.347   1_545 S
C1022  O1776   1.395   1_545 S
C1023  O1115   1.271   .     A
C1023  O1107   1.279   .     A
C1024  O1110   1.268   .     A
C1024  O1116   1.274   .     A
C1025  O1099   1.272   .     A
C1025  C1028   1.457   .     S
C1025  O1097   1.276   .     A
C1026  C1027   1.470   .     S
C1026  O1098   1.281   .     A
C1026  O1100   1.285   .     A
C1027  C1031   1.406   .     A
C1029  C1047   1.402   .     A
C1029  H1085   1.084   .     S
C1030  O1101   1.418   .     S
C1030  H1094   1.109   .     S
C1030  C1144   1.539   .     S
C1030  H1205   1.111   .     S
C1031  O1108   1.386   .     S
C1031  C1042   1.416   .     A
C1032  C1033   1.526   .     S
C1032  H1095   1.111   .     S
C1032  C1254   1.539   1_455 S
C1032  H1277   1.110   1_455 S
C1033  H1055   1.108   .     S
C1033  H1056   1.111   .     S
C1033  H1054   1.111   .     S
C1034  O1102   1.416   .     S
C1034  C1035   1.534   .     S
C1034  H1057   1.111   .     S
C1034  H1170   1.112   .     S
C1035  H1059   1.112   .     S
C1035  H1060   1.111   .     S
C1035  C1036   1.526   .     S
C1036  H1064   1.111   .     S
C1036  H1062   1.111   .     S
C1036  H1173   1.110   .     S
C1037  H1067   1.112   .     S
C1037  H1066   1.111   .     S
C1037  C1710   1.533   1_545 S
C1037  O1776   1.417   1_545 S
C1038  H1068   1.111   .     S
C1038  H1069   1.111   .     S
C1038  C1373   1.533   .     S
C1038  C1375   1.526   .     S
C1039  H1070   1.110   .     S
C1039  C1710   1.526   1_545 S
C1039  H1743   1.111   1_545 S
C1039  H1744   1.111   1_545 S
C1040  H1076   1.113   .     S
C1040  H1075   1.116   .     S
C1040  O1106   1.413   .     S
C1040  C1153   1.528   .     S
C1041  C1043   1.526   .     S
C1041  H1077   1.112   .     S
C1041  C1264   1.528   1_455 S
C1041  H1302   1.112   1_455 S
C1042  C1048   1.424   .     A
C1042  C1047   1.414   .     A
C1043  H1079   1.111   .     S
C1043  H1080   1.108   .     S
C1043  H1081   1.109   .     S
C1044  C1045   1.527   .     S
C1044  H1083   1.117   .     S
C1044  O1108   1.415   .     S
C1044  H1082   1.114   .     S
C1045  C1046   1.526   .     S
C1045  H1084   1.110   .     S
C1045  H1086   1.111   .     S
C1046  H1087   1.111   .     S
C1046  H1089   1.111   .     S
C1046  H1200   1.111   .     S
C1047  C43     1.392   1_556 S
C1048  C41     1.419   1_556 S
C1049  C1050   1.421   .     A
C1050  C1051   1.402   .     A
C1050  O1109   1.383   .     S
C1051  H1052   1.084   .     S
H1053  C1144   1.110   .     S
H1058  C1258   1.112   1_455 S
H1061  C1260   1.110   1_455 S
H1063  C1242   1.088   1_455 S
H1065  O1439   0.990   .     S
H1071  C1375   1.111   .     S
H1072  C1375   1.111   .     S
H1073  O1105   0.988   .     S
H1078  C1153   1.112   .     S
H1088  C1270   1.111   1_455 S
H1090  O1109   0.992   .     S
H1093  C1254   1.111   1_455 S
O1096  Zn1119  1.932   .     S
O1096  Zn1118  1.944   .     S
O1096  Zn1117  1.959   .     S
O1096  Zn1120  1.933   .     S
O1097  Zn1118  1.926   .     S
O1098  Zn1120  1.936   .     S
O1099  Zn1119  1.932   .     S
O1100  Zn1117  1.923   .     S
O1102  C1131   1.394   .     S
O1103  C1693   1.387   1_545 S
O1103  H1737   0.990   1_545 S
O1104  C1358   1.395   .     S
O1104  C1373   1.417   .     S
O1107  Zn1117  1.931   .     S
O1110  Zn1120  1.932   .     S
O1111  Zn1118  1.928   .     S
O1112  Zn1119  1.938   .     S
O1113  Zn1120  1.933   .     S
O1114  Zn1117  1.924   .     S
O1115  Zn1118  1.938   .     S
O1116  Zn1119  1.933   .     S
C1121  O1223   1.268   .     A
C1121  C1131   1.439   .     S
C1121  O1225   1.268   .     A
C1122  H1204   1.077   .     S
C1122  C1123   1.394   .     A
C1122  C1160   1.407   .     A
C1123  O1218   1.385   .     S
C1123  C117    1.412   1_556 S
C1124  O1226   1.271   .     A
C1124  C1130   1.457   .     S
C1124  O1224   1.287   .     A
C1125  C1127   1.421   .     A
C1125  C1126   1.427   .     A
C1126  C1129   1.414   .     A
C1126  C1161   1.428   .     A
C1127  C1128   1.408   .     A
C1127  O1213   1.397   .     S
C1128  H1186   1.080   .     S
C1128  C1140   1.393   .     A
C1129  C1140   1.405   .     A
C1129  O1217   1.386   .     S
C1130  C1243   1.347   .     S
C1130  H1287   1.088   .     S
C1132  C1141   1.393   .     A
C1132  H1203   1.083   .     S
C1132  C1139   1.402   .     A
C1133  C1136   1.466   .     S
C1133  C1470   1.347   .     S
C1133  O1551   1.387   .     S
C1134  C1135   1.442   .     S
C1134  C1805   1.347   1_545 S
C1134  O1888   1.395   1_545 S
C1135  O1227   1.271   .     A
C1135  O1219   1.279   .     A
C1136  O1222   1.268   .     A
C1136  O1228   1.274   .     A
C1137  O1211   1.272   .     A
C1137  C1140   1.457   .     S
C1137  O1209   1.276   .     A
C1138  C1139   1.470   .     S
C1138  O1210   1.281   .     A
C1138  O1212   1.285   .     A
C1139  C1143   1.406   .     A
C1141  C1159   1.402   .     A
C1141  H1197   1.084   .     S
C1142  O1213   1.418   .     S
C1142  H1206   1.109   .     S
C1142  C1256   1.539   .     S
C1142  H1317   1.111   .     S
C1143  O1220   1.386   .     S
C1143  C1154   1.416   .     A
C1144  C1145   1.526   .     S
C1144  H1207   1.111   .     S
C1145  H1167   1.108   .     S
C1145  H1168   1.111   .     S
C1145  H1166   1.111   .     S
C1146  O1214   1.416   .     S
C1146  C1147   1.534   .     S
C1146  H1169   1.111   .     S
C1146  H1282   1.112   .     S
C1147  H1171   1.112   .     S
C1147  H1172   1.111   .     S
C1147  C1148   1.526   .     S
C1148  H1176   1.111   .     S
C1148  H1174   1.111   .     S
C1148  H1285   1.110   .     S
C1149  H1179   1.112   .     S
C1149  H1178   1.111   .     S
C1149  C1822   1.533   1_545 S
C1149  O1888   1.417   1_545 S
C1150  H1180   1.111   .     S
C1150  H1181   1.111   .     S
C1150  C1485   1.533   .     S
C1150  C1487   1.526   .     S
C1151  H1182   1.110   .     S
C1151  C1822   1.526   1_545 S
C1151  H1855   1.111   1_545 S
C1151  H1856   1.111   1_545 S
C1152  H1188   1.113   .     S
C1152  H1187   1.116   .     S
C1152  O1218   1.413   .     S
C1152  C1265   1.528   .     S
C1153  C1155   1.526   .     S
C1153  H1189   1.112   .     S
C1154  C1160   1.424   .     A
C1154  C1159   1.414   .     A
C1155  H1191   1.111   .     S
C1155  H1192   1.108   .     S
C1155  H1193   1.109   .     S
C1156  C1157   1.527   .     S
C1156  H1195   1.117   .     S
C1156  O1220   1.415   .     S
C1156  H1194   1.114   .     S
C1157  C1158   1.526   .     S
C1157  H1196   1.110   .     S
C1157  H1198   1.111   .     S
C1158  H1199   1.111   .     S
C1158  H1201   1.111   .     S
C1158  H1312   1.111   .     S
C1159  C155    1.392   1_556 S
C1160  C153    1.419   1_556 S
C1161  C1162   1.421   .     A
C1162  C1163   1.402   .     A
C1162  O1221   1.383   .     S
C1163  H1164   1.084   .     S
H1165  C1256   1.110   .     S
H1177  O1551   0.990   .     S
H1183  C1487   1.111   .     S
H1184  C1487   1.111   .     S
H1185  O1217   0.988   .     S
H1190  C1265   1.112   .     S
H1202  O1221   0.992   .     S
O1208  Zn1231  1.932   .     S
O1208  Zn1230  1.944   .     S
O1208  Zn1229  1.959   .     S
O1208  Zn1232  1.933   .     S
O1209  Zn1230  1.926   .     S
O1210  Zn1232  1.936   .     S
O1211  Zn1231  1.932   .     S
O1212  Zn1229  1.923   .     S
O1214  C1243   1.394   .     S
O1215  C1805   1.387   1_545 S
O1215  H1849   0.990   1_545 S
O1216  C1470   1.395   .     S
O1216  C1485   1.417   .     S
O1219  Zn1229  1.931   .     S
O1222  Zn1232  1.932   .     S
O1223  Zn1230  1.928   .     S
O1224  Zn1231  1.938   .     S
O1225  Zn1232  1.933   .     S
O1226  Zn1229  1.924   .     S
O1227  Zn1230  1.938   .     S
O1228  Zn1231  1.933   .     S
C1233  O1335   1.268   .     A
C1233  C1243   1.439   .     S
C1233  O1337   1.268   .     A
C1234  H1316   1.077   .     S
C1234  C1235   1.394   .     A
C1234  C1272   1.407   .     A
C1235  O1330   1.385   .     S
C1235  C229    1.412   1_556 S
C1236  O1338   1.271   .     A
C1236  C1242   1.457   .     S
C1236  O1336   1.287   .     A
C1237  C1239   1.421   .     A
C1237  C1238   1.427   .     A
C1238  C1241   1.414   .     A
C1238  C1273   1.428   .     A
C1239  C1240   1.408   .     A
C1239  O1325   1.397   .     S
C1240  H1298   1.080   .     S
C1240  C1252   1.393   .     A
C1241  C1252   1.405   .     A
C1241  O1329   1.386   .     S
C1242  C1019   1.347   1_655 S
C1242  H1063   1.088   1_655 S
C1244  C1253   1.393   .     A
C1244  H1315   1.083   .     S
C1244  C1251   1.402   .     A
C1245  C1248   1.466   .     S
C1245  C1582   1.347   .     S
C1245  O1663   1.387   .     S
C1246  C1247   1.442   .     S
C1246  C1917   1.347   1_545 S
C1246  O2000   1.395   1_545 S
C1247  O1339   1.271   .     A
C1247  O1331   1.279   .     A
C1248  O1334   1.268   .     A
C1248  O1340   1.274   .     A
C1249  O1323   1.272   .     A
C1249  C1252   1.457   .     S
C1249  O1321   1.276   .     A
C1250  C1251   1.470   .     S
C1250  O1322   1.281   .     A
C1250  O1324   1.285   .     A
C1251  C1255   1.406   .     A
C1253  C1271   1.402   .     A
C1253  H1309   1.084   .     S
C1254  O1325   1.418   .     S
C1254  H1318   1.109   .     S
C1254  C1032   1.539   1_655 S
C1254  H1093   1.111   1_655 S
C1255  O1332   1.386   .     S
C1255  C1266   1.416   .     A
C1256  C1257   1.526   .     S
C1256  H1319   1.111   .     S
C1257  H1279   1.108   .     S
C1257  H1280   1.111   .     S
C1257  H1278   1.111   .     S
C1258  O1326   1.416   .     S
C1258  C1259   1.534   .     S
C1258  H1281   1.111   .     S
C1258  H1058   1.112   1_655 S
C1259  H1283   1.112   .     S
C1259  H1284   1.111   .     S
C1259  C1260   1.526   .     S
C1260  H1288   1.111   .     S
C1260  H1286   1.111   .     S
C1260  H1061   1.110   1_655 S
C1261  H1291   1.112   .     S
C1261  H1290   1.111   .     S
C1261  C1934   1.533   1_545 S
C1261  O2000   1.417   1_545 S
C1262  H1292   1.111   .     S
C1262  H1293   1.111   .     S
C1262  C1597   1.533   .     S
C1262  C1599   1.526   .     S
C1263  H1294   1.110   .     S
C1263  C1934   1.526   1_545 S
C1263  H1967   1.111   1_545 S
C1263  H1968   1.111   1_545 S
C1264  H1300   1.113   .     S
C1264  H1299   1.116   .     S
C1264  O1330   1.413   .     S
C1264  C1041   1.528   1_655 S
C1265  C1267   1.526   .     S
C1265  H1301   1.112   .     S
C1266  C1272   1.424   .     A
C1266  C1271   1.414   .     A
C1267  H1303   1.111   .     S
C1267  H1304   1.108   .     S
C1267  H1305   1.109   .     S
C1268  C1269   1.527   .     S
C1268  H1307   1.117   .     S
C1268  O1332   1.415   .     S
C1268  H1306   1.114   .     S
C1269  C1270   1.526   .     S
C1269  H1308   1.110   .     S
C1269  H1310   1.111   .     S
C1270  H1311   1.111   .     S
C1270  H1313   1.111   .     S
C1270  H1088   1.111   1_655 S
C1271  C267    1.392   1_556 S
C1272  C265    1.419   1_556 S
C1273  C1274   1.421   .     A
C1274  C1275   1.402   .     A
C1274  O1333   1.383   .     S
C1275  H1276   1.084   .     S
H1277  C1032   1.110   1_655 S
H1289  O1663   0.990   .     S
H1295  C1599   1.111   .     S
H1296  C1599   1.111   .     S
H1297  O1329   0.988   .     S
H1302  C1041   1.112   1_655 S
H1314  O1333   0.992   .     S
O1320  Zn1343  1.932   .     S
O1320  Zn1342  1.944   .     S
O1320  Zn1341  1.959   .     S
O1320  Zn1344  1.933   .     S
O1321  Zn1342  1.926   .     S
O1322  Zn1344  1.936   .     S
O1323  Zn1343  1.932   .     S
O1324  Zn1341  1.923   .     S
O1326  C1019   1.394   1_655 S
O1327  C1917   1.387   1_545 S
O1327  H1961   0.990   1_545 S
O1328  C1582   1.395   .     S
O1328  C1597   1.417   .     S
O1331  Zn1341  1.931   .     S
O1334  Zn1344  1.932   .     S
O1335  Zn1342  1.928   .     S
O1336  Zn1343  1.938   .     S
O1337  Zn1344  1.933   .     S
O1338  Zn1341  1.924   .     S
O1339  Zn1342  1.938   .     S
O1340  Zn1343  1.933   .     S
C1345  O1447   1.268   .     A
C1345  C1355   1.439   .     S
C1345  O1449   1.268   .     A
C1346  H1428   1.077   .     S
C1346  C1347   1.394   .     A
C1346  C1384   1.407   .     A
C1347  O1442   1.385   .     S
C1347  C341    1.412   1_556 S
C1348  O1450   1.271   .     A
C1348  C1354   1.457   .     S
C1348  O1448   1.287   .     A
C1349  C1351   1.421   .     A
C1349  C1350   1.427   .     A
C1350  C1353   1.414   .     A
C1350  C1385   1.428   .     A
C1351  C1352   1.408   .     A
C1351  O1437   1.397   .     S
C1352  H1410   1.080   .     S
C1352  C1364   1.393   .     A
C1353  C1364   1.405   .     A
C1353  O1441   1.386   .     S
C1354  C1467   1.347   .     S
C1354  H1511   1.088   .     S
C1355  C1578   1.347   1_455 S
C1355  O1662   1.394   1_455 S
C1356  C1365   1.393   .     A
C1356  H1427   1.083   .     S
C1356  C1363   1.402   .     A
C1357  C1360   1.466   .     S
C1357  C1694   1.347   .     S
C1357  O1775   1.387   .     S
C1358  C1359   1.442   .     S
C1359  O1451   1.271   .     A
C1359  O1443   1.279   .     A
C1360  O1446   1.268   .     A
C1360  O1452   1.274   .     A
C1361  O1435   1.272   .     A
C1361  C1364   1.457   .     S
C1361  O1433   1.276   .     A
C1362  C1363   1.470   .     S
C1362  O1434   1.281   .     A
C1362  O1436   1.285   .     A
C1363  C1367   1.406   .     A
C1365  C1383   1.402   .     A
C1365  H1421   1.084   .     S
C1366  O1437   1.418   .     S
C1366  H1430   1.109   .     S
C1366  C1480   1.539   .     S
C1366  H1541   1.111   .     S
C1367  O1444   1.386   .     S
C1367  C1378   1.416   .     A
C1368  C1369   1.526   .     S
C1368  H1431   1.111   .     S
C1368  C1590   1.539   1_455 S
C1368  H1613   1.110   1_455 S
C1369  H1391   1.108   .     S
C1369  H1392   1.111   .     S
C1369  H1390   1.111   .     S
C1370  O1438   1.416   .     S
C1370  C1371   1.534   .     S
C1370  H1393   1.111   .     S
C1370  H1506   1.112   .     S
C1371  H1395   1.112   .     S
C1371  H1396   1.111   .     S
C1371  C1372   1.526   .     S
C1372  H1400   1.111   .     S
C1372  H1398   1.111   .     S
C1372  H1509   1.110   .     S
C1373  H1403   1.112   .     S
C1373  H1402   1.111   .     S
C1374  H1404   1.111   .     S
C1374  H1405   1.111   .     S
C1374  C1709   1.533   .     S
C1374  C1711   1.526   .     S
C1375  H1406   1.110   .     S
C1376  H1412   1.113   .     S
C1376  H1411   1.116   .     S
C1376  O1442   1.413   .     S
C1376  C1489   1.528   .     S
C1377  C1379   1.526   .     S
C1377  H1413   1.112   .     S
C1377  C1600   1.528   1_455 S
C1377  H1638   1.112   1_455 S
C1378  C1384   1.424   .     A
C1378  C1383   1.414   .     A
C1379  H1415   1.111   .     S
C1379  H1416   1.108   .     S
C1379  H1417   1.109   .     S
C1380  C1381   1.527   .     S
C1380  H1419   1.117   .     S
C1380  O1444   1.415   .     S
C1380  H1418   1.114   .     S
C1381  C1382   1.526   .     S
C1381  H1420   1.110   .     S
C1381  H1422   1.111   .     S
C1382  H1423   1.111   .     S
C1382  H1425   1.111   .     S
C1382  H1536   1.111   .     S
C1383  C379    1.392   1_556 S
C1384  C377    1.419   1_556 S
C1385  C1386   1.421   .     A
C1386  C1387   1.402   .     A
C1386  O1445   1.383   .     S
C1387  H1388   1.084   .     S
H1389  C1480   1.110   .     S
H1394  C1594   1.112   1_455 S
H1397  C1596   1.110   1_455 S
H1399  C1578   1.088   1_455 S
H1401  O1775   0.990   .     S
H1407  C1711   1.111   .     S
H1408  C1711   1.111   .     S
H1409  O1441   0.988   .     S
H1414  C1489   1.112   .     S
H1424  C1606   1.111   1_455 S
H1426  O1445   0.992   .     S
H1429  C1590   1.111   1_455 S
O1432  Zn1455  1.932   .     S
O1432  Zn1454  1.944   .     S
O1432  Zn1453  1.959   .     S
O1432  Zn1456  1.933   .     S
O1433  Zn1454  1.926   .     S
O1434  Zn1456  1.936   .     S
O1435  Zn1455  1.932   .     S
O1436  Zn1453  1.923   .     S
O1438  C1467   1.394   .     S
O1440  C1694   1.395   .     S
O1440  C1709   1.417   .     S
O1443  Zn1453  1.931   .     S
O1446  Zn1456  1.932   .     S
O1447  Zn1454  1.928   .     S
O1448  Zn1455  1.938   .     S
O1449  Zn1456  1.933   .     S
O1450  Zn1453  1.924   .     S
O1451  Zn1454  1.938   .     S
O1452  Zn1455  1.933   .     S
C1457  O1559   1.268   .     A
C1457  C1467   1.439   .     S
C1457  O1561   1.268   .     A
C1458  H1540   1.077   .     S
C1458  C1459   1.394   .     A
C1458  C1496   1.407   .     A
C1459  O1554   1.385   .     S
C1459  C453    1.412   1_556 S
C1460  O1562   1.271   .     A
C1460  C1466   1.457   .     S
C1460  O1560   1.287   .     A
C1461  C1463   1.421   .     A
C1461  C1462   1.427   .     A
C1462  C1465   1.414   .     A
C1462  C1497   1.428   .     A
C1463  C1464   1.408   .     A
C1463  O1549   1.397   .     S
C1464  H1522   1.080   .     S
C1464  C1476   1.393   .     A
C1465  C1476   1.405   .     A
C1465  O1553   1.386   .     S
C1466  C1579   1.347   .     S
C1466  H1623   1.088   .     S
C1468  C1477   1.393   .     A
C1468  H1539   1.083   .     S
C1468  C1475   1.402   .     A
C1469  C1472   1.466   .     S
C1469  C1806   1.347   .     S
C1469  O1887   1.387   .     S
C1470  C1471   1.442   .     S
C1471  O1563   1.271   .     A
C1471  O1555   1.279   .     A
C1472  O1558   1.268   .     A
C1472  O1564   1.274   .     A
C1473  O1547   1.272   .     A
C1473  C1476   1.457   .     S
C1473  O1545   1.276   .     A
C1474  C1475   1.470   .     S
C1474  O1546   1.281   .     A
C1474  O1548   1.285   .     A
C1475  C1479   1.406   .     A
C1477  C1495   1.402   .     A
C1477  H1533   1.084   .     S
C1478  O1549   1.418   .     S
C1478  H1542   1.109   .     S
C1478  C1592   1.539   .     S
C1478  H1653   1.111   .     S
C1479  O1556   1.386   .     S
C1479  C1490   1.416   .     A
C1480  C1481   1.526   .     S
C1480  H1543   1.111   .     S
C1481  H1503   1.108   .     S
C1481  H1504   1.111   .     S
C1481  H1502   1.111   .     S
C1482  O1550   1.416   .     S
C1482  C1483   1.534   .     S
C1482  H1505   1.111   .     S
C1482  H1618   1.112   .     S
C1483  H1507   1.112   .     S
C1483  H1508   1.111   .     S
C1483  C1484   1.526   .     S
C1484  H1512   1.111   .     S
C1484  H1510   1.111   .     S
C1484  H1621   1.110   .     S
C1485  H1515   1.112   .     S
C1485  H1514   1.111   .     S
C1486  H1516   1.111   .     S
C1486  H1517   1.111   .     S
C1486  C1821   1.533   .     S
C1486  C1823   1.526   .     S
C1487  H1518   1.110   .     S
C1488  H1524   1.113   .     S
C1488  H1523   1.116   .     S
C1488  O1554   1.413   .     S
C1488  C1601   1.528   .     S
C1489  C1491   1.526   .     S
C1489  H1525   1.112   .     S
C1490  C1496   1.424   .     A
C1490  C1495   1.414   .     A
C1491  H1527   1.111   .     S
C1491  H1528   1.108   .     S
C1491  H1529   1.109   .     S
C1492  C1493   1.527   .     S
C1492  H1531   1.117   .     S
C1492  O1556   1.415   .     S
C1492  H1530   1.114   .     S
C1493  C1494   1.526   .     S
C1493  H1532   1.110   .     S
C1493  H1534   1.111   .     S
C1494  H1535   1.111   .     S
C1494  H1537   1.111   .     S
C1494  H1648   1.111   .     S
C1495  C491    1.392   1_556 S
C1496  C489    1.419   1_556 S
C1497  C1498   1.421   .     A
C1498  C1499   1.402   .     A
C1498  O1557   1.383   .     S
C1499  H1500   1.084   .     S
H1501  C1592   1.110   .     S
H1513  O1887   0.990   .     S
H1519  C1823   1.111   .     S
H1520  C1823   1.111   .     S
H1521  O1553   0.988   .     S
H1526  C1601   1.112   .     S
H1538  O1557   0.992   .     S
O1544  Zn1567  1.932   .     S
O1544  Zn1566  1.944   .     S
O1544  Zn1565  1.959   .     S
O1544  Zn1568  1.933   .     S
O1545  Zn1566  1.926   .     S
O1546  Zn1568  1.936   .     S
O1547  Zn1567  1.932   .     S
O1548  Zn1565  1.923   .     S
O1550  C1579   1.394   .     S
O1552  C1806   1.395   .     S
O1552  C1821   1.417   .     S
O1555  Zn1565  1.931   .     S
O1558  Zn1568  1.932   .     S
O1559  Zn1566  1.928   .     S
O1560  Zn1567  1.938   .     S
O1561  Zn1568  1.933   .     S
O1562  Zn1565  1.924   .     S
O1563  Zn1566  1.938   .     S
O1564  Zn1567  1.933   .     S
C1569  O1671   1.268   .     A
C1569  C1579   1.439   .     S
C1569  O1673   1.268   .     A
C1570  H1652   1.077   .     S
C1570  C1571   1.394   .     A
C1570  C1608   1.407   .     A
C1571  O1666   1.385   .     S
C1571  C565    1.412   1_556 S
C1572  O1674   1.271   .     A
C1572  C1578   1.457   .     S
C1572  O1672   1.287   .     A
C1573  C1575   1.421   .     A
C1573  C1574   1.427   .     A
C1574  C1577   1.414   .     A
C1574  C1609   1.428   .     A
C1575  C1576   1.408   .     A
C1575  O1661   1.397   .     S
C1576  H1634   1.080   .     S
C1576  C1588   1.393   .     A
C1577  C1588   1.405   .     A
C1577  O1665   1.386   .     S
C1578  C1355   1.347   1_655 S
C1578  H1399   1.088   1_655 S
C1580  C1589   1.393   .     A
C1580  H1651   1.083   .     S
C1580  C1587   1.402   .     A
C1581  C1584   1.466   .     S
C1581  C1918   1.347   .     S
C1581  O1999   1.387   .     S
C1582  C1583   1.442   .     S
C1583  O1675   1.271   .     A
C1583  O1667   1.279   .     A
C1584  O1670   1.268   .     A
C1584  O1676   1.274   .     A
C1585  O1659   1.272   .     A
C1585  C1588   1.457   .     S
C1585  O1657   1.276   .     A
C1586  C1587   1.470   .     S
C1586  O1658   1.281   .     A
C1586  O1660   1.285   .     A
C1587  C1591   1.406   .     A
C1589  C1607   1.402   .     A
C1589  H1645   1.084   .     S
C1590  O1661   1.418   .     S
C1590  H1654   1.109   .     S
C1590  C1368   1.539   1_655 S
C1590  H1429   1.111   1_655 S
C1591  O1668   1.386   .     S
C1591  C1602   1.416   .     A
C1592  C1593   1.526   .     S
C1592  H1655   1.111   .     S
C1593  H1615   1.108   .     S
C1593  H1616   1.111   .     S
C1593  H1614   1.111   .     S
C1594  O1662   1.416   .     S
C1594  C1595   1.534   .     S
C1594  H1617   1.111   .     S
C1594  H1394   1.112   1_655 S
C1595  H1619   1.112   .     S
C1595  H1620   1.111   .     S
C1595  C1596   1.526   .     S
C1596  H1624   1.111   .     S
C1596  H1622   1.111   .     S
C1596  H1397   1.110   1_655 S
C1597  H1627   1.112   .     S
C1597  H1626   1.111   .     S
C1598  H1628   1.111   .     S
C1598  H1629   1.111   .     S
C1598  C1933   1.533   .     S
C1598  C1935   1.526   .     S
C1599  H1630   1.110   .     S
C1600  H1636   1.113   .     S
C1600  H1635   1.116   .     S
C1600  O1666   1.413   .     S
C1600  C1377   1.528   1_655 S
C1601  C1603   1.526   .     S
C1601  H1637   1.112   .     S
C1602  C1608   1.424   .     A
C1602  C1607   1.414   .     A
C1603  H1639   1.111   .     S
C1603  H1640   1.108   .     S
C1603  H1641   1.109   .     S
C1604  C1605   1.527   .     S
C1604  H1643   1.117   .     S
C1604  O1668   1.415   .     S
C1604  H1642   1.114   .     S
C1605  C1606   1.526   .     S
C1605  H1644   1.110   .     S
C1605  H1646   1.111   .     S
C1606  H1647   1.111   .     S
C1606  H1649   1.111   .     S
C1606  H1424   1.111   1_655 S
C1607  C603    1.392   1_556 S
C1608  C601    1.419   1_556 S
C1609  C1610   1.421   .     A
C1610  C1611   1.402   .     A
C1610  O1669   1.383   .     S
C1611  H1612   1.084   .     S
H1613  C1368   1.110   1_655 S
H1625  O1999   0.990   .     S
H1631  C1935   1.111   .     S
H1632  C1935   1.111   .     S
H1633  O1665   0.988   .     S
H1638  C1377   1.112   1_655 S
H1650  O1669   0.992   .     S
O1656  Zn1679  1.932   .     S
O1656  Zn1678  1.944   .     S
O1656  Zn1677  1.959   .     S
O1656  Zn1680  1.933   .     S
O1657  Zn1678  1.926   .     S
O1658  Zn1680  1.936   .     S
O1659  Zn1679  1.932   .     S
O1660  Zn1677  1.923   .     S
O1662  C1355   1.394   1_655 S
O1664  C1918   1.395   .     S
O1664  C1933   1.417   .     S
O1667  Zn1677  1.931   .     S
O1670  Zn1680  1.932   .     S
O1671  Zn1678  1.928   .     S
O1672  Zn1679  1.938   .     S
O1673  Zn1680  1.933   .     S
O1674  Zn1677  1.924   .     S
O1675  Zn1678  1.938   .     S
O1676  Zn1679  1.933   .     S
C1681  O1783   1.268   .     A
C1681  C1691   1.439   .     S
C1681  O1785   1.268   .     A
C1682  H1764   1.077   .     S
C1682  C1683   1.394   .     A
C1682  C1720   1.407   .     A
C1683  O1778   1.385   .     S
C1683  C677    1.412   1_556 S
C1684  O1786   1.271   .     A
C1684  C1690   1.457   .     S
C1684  O1784   1.287   .     A
C1685  C1687   1.421   .     A
C1685  C1686   1.427   .     A
C1686  C1689   1.414   .     A
C1686  C1721   1.428   .     A
C1687  C1688   1.408   .     A
C1687  O1773   1.397   .     S
C1688  H1746   1.080   .     S
C1688  C1700   1.393   .     A
C1689  C1700   1.405   .     A
C1689  O1777   1.386   .     S
C1690  C1803   1.347   .     S
C1690  H1847   1.088   .     S
C1691  C1914   1.347   1_455 S
C1691  O1998   1.394   1_455 S
C1692  C1701   1.393   .     A
C1692  H1763   1.083   .     S
C1692  C1699   1.402   .     A
C1693  C1696   1.466   .     S
C1693  C1022   1.347   1_565 S
C1693  O1103   1.387   1_565 S
C1694  C1695   1.442   .     S
C1695  O1787   1.271   .     A
C1695  O1779   1.279   .     A
C1696  O1782   1.268   .     A
C1696  O1788   1.274   .     A
C1697  O1771   1.272   .     A
C1697  C1700   1.457   .     S
C1697  O1769   1.276   .     A
C1698  C1699   1.470   .     S
C1698  O1770   1.281   .     A
C1698  O1772   1.285   .     A
C1699  C1703   1.406   .     A
C1701  C1719   1.402   .     A
C1701  H1757   1.084   .     S
C1702  O1773   1.418   .     S
C1702  H1766   1.109   .     S
C1702  C1816   1.539   .     S
C1702  H1877   1.111   .     S
C1703  O1780   1.386   .     S
C1703  C1714   1.416   .     A
C1704  C1705   1.526   .     S
C1704  H1767   1.111   .     S
C1704  C1926   1.539   1_455 S
C1704  H1949   1.110   1_455 S
C1705  H1727   1.108   .     S
C1705  H1728   1.111   .     S
C1705  H1726   1.111   .     S
C1706  O1774   1.416   .     S
C1706  C1707   1.534   .     S
C1706  H1729   1.111   .     S
C1706  H1842   1.112   .     S
C1707  H1731   1.112   .     S
C1707  H1732   1.111   .     S
C1707  C1708   1.526   .     S
C1708  H1736   1.111   .     S
C1708  H1734   1.111   .     S
C1708  H1845   1.110   .     S
C1709  H1739   1.112   .     S
C1709  H1738   1.111   .     S
C1710  H1740   1.111   .     S
C1710  H1741   1.111   .     S
C1710  C1037   1.533   1_565 S
C1710  C1039   1.526   1_565 S
C1711  H1742   1.110   .     S
C1712  H1748   1.113   .     S
C1712  H1747   1.116   .     S
C1712  O1778   1.413   .     S
C1712  C1825   1.528   .     S
C1713  C1715   1.526   .     S
C1713  H1749   1.112   .     S
C1713  C1936   1.528   1_455 S
C1713  H1974   1.112   1_455 S
C1714  C1720   1.424   .     A
C1714  C1719   1.414   .     A
C1715  H1751   1.111   .     S
C1715  H1752   1.108   .     S
C1715  H1753   1.109   .     S
C1716  C1717   1.527   .     S
C1716  H1755   1.117   .     S
C1716  O1780   1.415   .     S
C1716  H1754   1.114   .     S
C1717  C1718   1.526   .     S
C1717  H1756   1.110   .     S
C1717  H1758   1.111   .     S
C1718  H1759   1.111   .     S
C1718  H1761   1.111   .     S
C1718  H1872   1.111   .     S
C1719  C715    1.392   1_556 S
C1720  C713    1.419   1_556 S
C1721  C1722   1.421   .     A
C1722  C1723   1.402   .     A
C1722  O1781   1.383   .     S
C1723  H1724   1.084   .     S
H1725  C1816   1.110   .     S
H1730  C1930   1.112   1_455 S
H1733  C1932   1.110   1_455 S
H1735  C1914   1.088   1_455 S
H1737  O1103   0.990   1_565 S
H1743  C1039   1.111   1_565 S
H1744  C1039   1.111   1_565 S
H1745  O1777   0.988   .     S
H1750  C1825   1.112   .     S
H1760  C1942   1.111   1_455 S
H1762  O1781   0.992   .     S
H1765  C1926   1.111   1_455 S
O1768  Zn1791  1.932   .     S
O1768  Zn1790  1.944   .     S
O1768  Zn1789  1.959   .     S
O1768  Zn1792  1.933   .     S
O1769  Zn1790  1.926   .     S
O1770  Zn1792  1.936   .     S
O1771  Zn1791  1.932   .     S
O1772  Zn1789  1.923   .     S
O1774  C1803   1.394   .     S
O1776  C1022   1.395   1_565 S
O1776  C1037   1.417   1_565 S
O1779  Zn1789  1.931   .     S
O1782  Zn1792  1.932   .     S
O1783  Zn1790  1.928   .     S
O1784  Zn1791  1.938   .     S
O1785  Zn1792  1.933   .     S
O1786  Zn1789  1.924   .     S
O1787  Zn1790  1.938   .     S
O1788  Zn1791  1.933   .     S
C1793  O1895   1.268   .     A
C1793  C1803   1.439   .     S
C1793  O1897   1.268   .     A
C1794  H1876   1.077   .     S
C1794  C1795   1.394   .     A
C1794  C1832   1.407   .     A
C1795  O1890   1.385   .     S
C1795  C789    1.412   1_556 S
C1796  O1898   1.271   .     A
C1796  C1802   1.457   .     S
C1796  O1896   1.287   .     A
C1797  C1799   1.421   .     A
C1797  C1798   1.427   .     A
C1798  C1801   1.414   .     A
C1798  C1833   1.428   .     A
C1799  C1800   1.408   .     A
C1799  O1885   1.397   .     S
C1800  H1858   1.080   .     S
C1800  C1812   1.393   .     A
C1801  C1812   1.405   .     A
C1801  O1889   1.386   .     S
C1802  C1915   1.347   .     S
C1802  H1959   1.088   .     S
C1804  C1813   1.393   .     A
C1804  H1875   1.083   .     S
C1804  C1811   1.402   .     A
C1805  C1808   1.466   .     S
C1805  C1134   1.347   1_565 S
C1805  O1215   1.387   1_565 S
C1806  C1807   1.442   .     S
C1807  O1899   1.271   .     A
C1807  O1891   1.279   .     A
C1808  O1894   1.268   .     A
C1808  O1900   1.274   .     A
C1809  O1883   1.272   .     A
C1809  C1812   1.457   .     S
C1809  O1881   1.276   .     A
C1810  C1811   1.470   .     S
C1810  O1882   1.281   .     A
C1810  O1884   1.285   .     A
C1811  C1815   1.406   .     A
C1813  C1831   1.402   .     A
C1813  H1869   1.084   .     S
C1814  O1885   1.418   .     S
C1814  H1878   1.109   .     S
C1814  C1928   1.539   .     S
C1814  H1989   1.111   .     S
C1815  O1892   1.386   .     S
C1815  C1826   1.416   .     A
C1816  C1817   1.526   .     S
C1816  H1879   1.111   .     S
C1817  H1839   1.108   .     S
C1817  H1840   1.111   .     S
C1817  H1838   1.111   .     S
C1818  O1886   1.416   .     S
C1818  C1819   1.534   .     S
C1818  H1841   1.111   .     S
C1818  H1954   1.112   .     S
C1819  H1843   1.112   .     S
C1819  H1844   1.111   .     S
C1819  C1820   1.526   .     S
C1820  H1848   1.111   .     S
C1820  H1846   1.111   .     S
C1820  H1957   1.110   .     S
C1821  H1851   1.112   .     S
C1821  H1850   1.111   .     S
C1822  H1852   1.111   .     S
C1822  H1853   1.111   .     S
C1822  C1149   1.533   1_565 S
C1822  C1151   1.526   1_565 S
C1823  H1854   1.110   .     S
C1824  H1860   1.113   .     S
C1824  H1859   1.116   .     S
C1824  O1890   1.413   .     S
C1824  C1937   1.528   .     S
C1825  C1827   1.526   .     S
C1825  H1861   1.112   .     S
C1826  C1832   1.424   .     A
C1826  C1831   1.414   .     A
C1827  H1863   1.111   .     S
C1827  H1864   1.108   .     S
C1827  H1865   1.109   .     S
C1828  C1829   1.527   .     S
C1828  H1867   1.117   .     S
C1828  O1892   1.415   .     S
C1828  H1866   1.114   .     S
C1829  C1830   1.526   .     S
C1829  H1868   1.110   .     S
C1829  H1870   1.111   .     S
C1830  H1871   1.111   .     S
C1830  H1873   1.111   .     S
C1830  H1984   1.111   .     S
C1831  C827    1.392   1_556 S
C1832  C825    1.419   1_556 S
C1833  C1834   1.421   .     A
C1834  C1835   1.402   .     A
C1834  O1893   1.383   .     S
C1835  H1836   1.084   .     S
H1837  C1928   1.110   .     S
H1849  O1215   0.990   1_565 S
H1855  C1151   1.111   1_565 S
H1856  C1151   1.111   1_565 S
H1857  O1889   0.988   .     S
H1862  C1937   1.112   .     S
H1874  O1893   0.992   .     S
O1880  Zn1903  1.932   .     S
O1880  Zn1902  1.944   .     S
O1880  Zn1901  1.959   .     S
O1880  Zn1904  1.933   .     S
O1881  Zn1902  1.926   .     S
O1882  Zn1904  1.936   .     S
O1883  Zn1903  1.932   .     S
O1884  Zn1901  1.923   .     S
O1886  C1915   1.394   .     S
O1888  C1134   1.395   1_565 S
O1888  C1149   1.417   1_565 S
O1891  Zn1901  1.931   .     S
O1894  Zn1904  1.932   .     S
O1895  Zn1902  1.928   .     S
O1896  Zn1903  1.938   .     S
O1897  Zn1904  1.933   .     S
O1898  Zn1901  1.924   .     S
O1899  Zn1902  1.938   .     S
O1900  Zn1903  1.933   .     S
C1905  O2007   1.268   .     A
C1905  C1915   1.439   .     S
C1905  O2009   1.268   .     A
C1906  H1988   1.077   .     S
C1906  C1907   1.394   .     A
C1906  C1944   1.407   .     A
C1907  O2002   1.385   .     S
C1907  C901    1.412   1_556 S
C1908  O2010   1.271   .     A
C1908  C1914   1.457   .     S
C1908  O2008   1.287   .     A
C1909  C1911   1.421   .     A
C1909  C1910   1.427   .     A
C1910  C1913   1.414   .     A
C1910  C1945   1.428   .     A
C1911  C1912   1.408   .     A
C1911  O1997   1.397   .     S
C1912  H1970   1.080   .     S
C1912  C1924   1.393   .     A
C1913  C1924   1.405   .     A
C1913  O2001   1.386   .     S
C1914  C1691   1.347   1_655 S
C1914  H1735   1.088   1_655 S
C1916  C1925   1.393   .     A
C1916  H1987   1.083   .     S
C1916  C1923   1.402   .     A
C1917  C1920   1.466   .     S
C1917  C1246   1.347   1_565 S
C1917  O1327   1.387   1_565 S
C1918  C1919   1.442   .     S
C1919  O2011   1.271   .     A
C1919  O2003   1.279   .     A
C1920  O2006   1.268   .     A
C1920  O2012   1.274   .     A
C1921  O1995   1.272   .     A
C1921  C1924   1.457   .     S
C1921  O1993   1.276   .     A
C1922  C1923   1.470   .     S
C1922  O1994   1.281   .     A
C1922  O1996   1.285   .     A
C1923  C1927   1.406   .     A
C1925  C1943   1.402   .     A
C1925  H1981   1.084   .     S
C1926  O1997   1.418   .     S
C1926  H1990   1.109   .     S
C1926  C1704   1.539   1_655 S
C1926  H1765   1.111   1_655 S
C1927  O2004   1.386   .     S
C1927  C1938   1.416   .     A
C1928  C1929   1.526   .     S
C1928  H1991   1.111   .     S
C1929  H1951   1.108   .     S
C1929  H1952   1.111   .     S
C1929  H1950   1.111   .     S
C1930  O1998   1.416   .     S
C1930  C1931   1.534   .     S
C1930  H1953   1.111   .     S
C1930  H1730   1.112   1_655 S
C1931  H1955   1.112   .     S
C1931  H1956   1.111   .     S
C1931  C1932   1.526   .     S
C1932  H1960   1.111   .     S
C1932  H1958   1.111   .     S
C1932  H1733   1.110   1_655 S
C1933  H1963   1.112   .     S
C1933  H1962   1.111   .     S
C1934  H1964   1.111   .     S
C1934  H1965   1.111   .     S
C1934  C1261   1.533   1_565 S
C1934  C1263   1.526   1_565 S
C1935  H1966   1.110   .     S
C1936  H1972   1.113   .     S
C1936  H1971   1.116   .     S
C1936  O2002   1.413   .     S
C1936  C1713   1.528   1_655 S
C1937  C1939   1.526   .     S
C1937  H1973   1.112   .     S
C1938  C1944   1.424   .     A
C1938  C1943   1.414   .     A
C1939  H1975   1.111   .     S
C1939  H1976   1.108   .     S
C1939  H1977   1.109   .     S
C1940  C1941   1.527   .     S
C1940  H1979   1.117   .     S
C1940  O2004   1.415   .     S
C1940  H1978   1.114   .     S
C1941  C1942   1.526   .     S
C1941  H1980   1.110   .     S
C1941  H1982   1.111   .     S
C1942  H1983   1.111   .     S
C1942  H1985   1.111   .     S
C1942  H1760   1.111   1_655 S
C1943  C939    1.392   1_556 S
C1944  C937    1.419   1_556 S
C1945  C1946   1.421   .     A
C1946  C1947   1.402   .     A
C1946  O2005   1.383   .     S
C1947  H1948   1.084   .     S
H1949  C1704   1.110   1_655 S
H1961  O1327   0.990   1_565 S
H1967  C1263   1.111   1_565 S
H1968  C1263   1.111   1_565 S
H1969  O2001   0.988   .     S
H1974  C1713   1.112   1_655 S
H1986  O2005   0.992   .     S
O1992  Zn2015  1.932   .     S
O1992  Zn2014  1.944   .     S
O1992  Zn2013  1.959   .     S
O1992  Zn2016  1.933   .     S
O1993  Zn2014  1.926   .     S
O1994  Zn2016  1.936   .     S
O1995  Zn2015  1.932   .     S
O1996  Zn2013  1.923   .     S
O1998  C1691   1.394   1_655 S
O2000  C1246   1.395   1_565 S
O2000  C1261   1.417   1_565 S
O2003  Zn2013  1.931   .     S
O2006  Zn2016  1.932   .     S
O2007  Zn2014  1.928   .     S
O2008  Zn2015  1.938   .     S
O2009  Zn2016  1.933   .     S
O2010  Zn2013  1.924   .     S
O2011  Zn2014  1.938   .     S
O2012  Zn2015  1.933   .     S
