data_str_m1_o1_o2_pcu_sym.114
_audit_creation_date              2020-01-03
_audit_creation_method            'Materials Studio'
_symmetry_space_group_name_H-M    'P1'
_symmetry_Int_Tables_number       1
_symmetry_cell_setting            triclinic
loop_
_symmetry_equiv_pos_as_xyz
  x,y,z
_cell_length_a                    36.7266
_cell_length_b                    36.7266
_cell_length_c                    34.3920
_cell_angle_alpha                 89.9999
_cell_angle_beta                  89.9999
_cell_angle_gamma                 89.8759
loop_
_atom_site_label
_atom_site_type_symbol
_atom_site_fract_x
_atom_site_fract_y
_atom_site_fract_z
_atom_site_U_iso_or_equiv
_atom_site_adp_type
_atom_site_occupancy
C1     C     0.22973   0.47408   0.04116   0.00000  Uiso   1.00
C2     C     0.00667   0.21766   0.45811   0.00000  Uiso   1.00
C3     C     0.34827   0.40173   0.75000   0.00000  Uiso   1.00
C4     C     0.40175   0.15175   0.25000   0.00000  Uiso   1.00
C5     C     0.09800   0.34800   0.75000   0.00000  Uiso   1.00
C6     C     0.34796   0.40204   0.25000   0.00000  Uiso   1.00
C7     C     0.15173   0.09827   0.75000   0.00000  Uiso   1.00
C8     C     0.09796   0.15204   0.75000   0.00000  Uiso   1.00
C9     C     0.40173   0.34827   0.25000   0.00000  Uiso   1.00
C10    C     0.15175   0.40175   0.75000   0.00000  Uiso   1.00
C11    C     0.34800   0.09800   0.25000   0.00000  Uiso   1.00
C12    C     0.40204   0.34796   0.75000   0.00000  Uiso   1.00
C13    C     0.28234   0.49332   0.54189   0.00000  Uiso   1.00
C14    C     0.09827   0.15173   0.25000   0.00000  Uiso   1.00
C15    C     0.34825   0.09825   0.75000   0.00000  Uiso   1.00
C16    C     0.15200   0.40200   0.25000   0.00000  Uiso   1.00
C17    C     0.25000   0.00000   0.10236   0.00000  Uiso   1.00
C18    C     0.25000  -0.00000   0.89719   0.00000  Uiso   1.00
C19    C     0.00000   0.25000   0.10281   0.00000  Uiso   1.00
C20    C     0.00000   0.25000   0.89764   0.00000  Uiso   1.00
C21    C     0.00000   0.25000   0.60236   0.00000  Uiso   1.00
C22    C    -0.00000   0.25000   0.39719   0.00000  Uiso   1.00
C23    C     0.25000  -0.00000   0.60281   0.00000  Uiso   1.00
C24    C     0.27592   0.02027   0.45884   0.00000  Uiso   1.00
C25    C     0.25000   0.00000   0.39764   0.00000  Uiso   1.00
C26    C     0.09126   0.46357   0.25039   0.00000  Uiso   1.00
C27    C     0.08193   0.00159   0.23539   0.00000  Uiso   1.00
C28    C     0.06334   0.02456   0.26660   0.00000  Uiso   1.00
C29    C     0.37720   0.06439   0.82905   0.00000  Uiso   1.00
C30    C     0.40803   0.07904   0.85468   0.00000  Uiso   1.00
C31    C     0.39846   0.07602   0.89773   0.00000  Uiso   1.00
C32    C     0.05209   0.11169   0.18380   0.00000  Uiso   1.00
C33    C     0.05902   0.07671   0.16071   0.00000  Uiso   1.00
C34    C     0.02407   0.05477   0.15574   0.00000  Uiso   1.00
C35    C     0.02027   0.27592   0.54116   0.00000  Uiso   1.00
C36    C     0.39413   0.32857   0.83710   0.00000  Uiso   1.00
C37    C     0.35938   0.34023   0.85864   0.00000  Uiso   1.00
C38    C     0.34471   0.30964   0.88417   0.00000  Uiso   1.00
C39    C     0.40881   0.03645   0.25034   0.00000  Uiso   1.00
C40    C     0.41798   0.49838   0.23538   0.00000  Uiso   1.00
C41    C     0.43667   0.47544   0.26655   0.00000  Uiso   1.00
C42    C     0.12280   0.43560   0.82905   0.00000  Uiso   1.00
C43    C     0.09198   0.42095   0.85469   0.00000  Uiso   1.00
C44    C     0.10155   0.42397   0.89774   0.00000  Uiso   1.00
C45    C     0.44788   0.38829   0.18377   0.00000  Uiso   1.00
C46    C     0.49333   0.28234   0.45811   0.00000  Uiso   1.00
C47    C     0.44093   0.42327   0.16068   0.00000  Uiso   1.00
C48    C     0.47587   0.44522   0.15569   0.00000  Uiso   1.00
C49    C     0.10585   0.17142   0.83711   0.00000  Uiso   1.00
C50    C     0.14061   0.15977   0.85863   0.00000  Uiso   1.00
C51    C     0.15528   0.19036   0.88416   0.00000  Uiso   1.00
C52    C     0.11169   0.05211   0.81621   0.00000  Uiso   1.00
C53    C     0.07672   0.05905   0.83931   0.00000  Uiso   1.00
C54    C     0.05477   0.02411   0.84429   0.00000  Uiso   1.00
C55    C     0.32856   0.39413   0.16290   0.00000  Uiso   1.00
C56    C     0.34021   0.35937   0.14138   0.00000  Uiso   1.00
C57    C     0.21766   0.00668   0.54189   0.00000  Uiso   1.00
C58    C     0.30961   0.34470   0.11586   0.00000  Uiso   1.00
C59    C     0.03645   0.40879   0.74965   0.00000  Uiso   1.00
C60    C     0.49838   0.41800   0.76462   0.00000  Uiso   1.00
C61    C     0.47544   0.43667   0.73344   0.00000  Uiso   1.00
C62    C     0.43559   0.12281   0.17094   0.00000  Uiso   1.00
C63    C     0.42092   0.09200   0.14531   0.00000  Uiso   1.00
C64    C     0.42393   0.10157   0.10225   0.00000  Uiso   1.00
C65    C     0.38830   0.44788   0.81623   0.00000  Uiso   1.00
C66    C     0.42327   0.44093   0.83932   0.00000  Uiso   1.00
C67    C     0.44523   0.47587   0.84431   0.00000  Uiso   1.00
C68    C     0.22408   0.47973   0.45884   0.00000  Uiso   1.00
C69    C     0.17140   0.10580   0.16288   0.00000  Uiso   1.00
C70    C     0.15977   0.14059   0.14139   0.00000  Uiso   1.00
C71    C     0.19036   0.15524   0.11586   0.00000  Uiso   1.00
C72    C     0.46355   0.09121   0.74964   0.00000  Uiso   1.00
C73    C     0.00162   0.08201   0.76460   0.00000  Uiso   1.00
C74    C     0.02457   0.06334   0.73342   0.00000  Uiso   1.00
C75    C     0.06439   0.37721   0.17096   0.00000  Uiso   1.00
C76    C     0.07903   0.40803   0.14532   0.00000  Uiso   1.00
C77    C     0.07601   0.39846   0.10227   0.00000  Uiso   1.00
C78    C     0.34118   0.21354   0.75034   0.00000  Uiso   1.00
C79    C     0.22936   0.47355   0.08178   0.00000  Uiso   1.00
C80    C     0.33205   0.25163   0.73540   0.00000  Uiso   1.00
C81    C     0.31333   0.27457   0.76656   0.00000  Uiso   1.00
C82    C     0.12719   0.31441   0.32906   0.00000  Uiso   1.00
C83    C     0.15800   0.32908   0.35469   0.00000  Uiso   1.00
C84    C     0.14843   0.32606   0.39775   0.00000  Uiso   1.00
C85    C     0.30211   0.36170   0.68378   0.00000  Uiso   1.00
C86    C     0.30906   0.32673   0.66068   0.00000  Uiso   1.00
C87    C     0.27413   0.30477   0.65570   0.00000  Uiso   1.00
C88    C     0.14419   0.07861   0.33712   0.00000  Uiso   1.00
C89    C     0.10941   0.09024   0.35862   0.00000  Uiso   1.00
C90    C     0.25677   0.46720   0.91752   0.00000  Uiso   1.00
C91    C     0.09475   0.05964   0.38414   0.00000  Uiso   1.00
C92    C     0.15878   0.28644   0.75036   0.00000  Uiso   1.00
C93    C     0.16800   0.24838   0.73540   0.00000  Uiso   1.00
C94    C     0.18666   0.22543   0.76658   0.00000  Uiso   1.00
C95    C     0.37279   0.18561   0.32904   0.00000  Uiso   1.00
C96    C     0.34197   0.17097   0.35467   0.00000  Uiso   1.00
C97    C     0.35153   0.17399   0.39773   0.00000  Uiso   1.00
C98    C     0.19789   0.13830   0.68379   0.00000  Uiso   1.00
C99    C     0.19095   0.17328   0.66069   0.00000  Uiso   1.00
C100   C     0.22589   0.19523   0.65571   0.00000  Uiso   1.00
C101   C     0.03280   0.24322   0.08248   0.00000  Uiso   1.00
C102   C     0.35587   0.42144   0.33710   0.00000  Uiso   1.00
C103   C     0.39063   0.40978   0.35862   0.00000  Uiso   1.00
C104   C     0.40530   0.44038   0.38415   0.00000  Uiso   1.00
C105   C     0.36171   0.30212   0.31623   0.00000  Uiso   1.00
C106   C     0.32673   0.30907   0.33932   0.00000  Uiso   1.00
C107   C     0.30478   0.27413   0.34431   0.00000  Uiso   1.00
C108   C     0.07858   0.14415   0.66289   0.00000  Uiso   1.00
C109   C     0.09023   0.10939   0.64137   0.00000  Uiso   1.00
C110   C     0.05964   0.09473   0.61584   0.00000  Uiso   1.00
C111   C     0.28642   0.15872   0.24960   0.00000  Uiso   1.00
C112   C     0.25667   0.46766   0.95811   0.00000  Uiso   1.00
C113   C     0.02645   0.27063   0.91823   0.00000  Uiso   1.00
C114   C     0.24841   0.16808   0.26461   0.00000  Uiso   1.00
C115   C     0.22544   0.18666   0.23339   0.00000  Uiso   1.00
C116   C     0.18560   0.37280   0.67095   0.00000  Uiso   1.00
C117   C     0.17095   0.34198   0.64532   0.00000  Uiso   1.00
C118   C     0.17397   0.35155   0.60226   0.00000  Uiso   1.00
C119   C     0.13831   0.19791   0.31620   0.00000  Uiso   1.00
C120   C     0.17329   0.19098   0.33928   0.00000  Uiso   1.00
C121   C     0.19523   0.22593   0.34426   0.00000  Uiso   1.00
C122   C     0.42143   0.35586   0.66290   0.00000  Uiso   1.00
C123   C     0.40978   0.39062   0.64138   0.00000  Uiso   1.00
C124   C     0.27064   0.02645   0.08177   0.00000  Uiso   1.00
C125   C     0.44038   0.40529   0.61585   0.00000  Uiso   1.00
C126   C     0.21355   0.34120   0.24966   0.00000  Uiso   1.00
C127   C     0.25162   0.33200   0.26462   0.00000  Uiso   1.00
C128   C     0.27456   0.31332   0.23345   0.00000  Uiso   1.00
C129   C     0.31440   0.12719   0.67095   0.00000  Uiso   1.00
C130   C     0.32906   0.15801   0.64531   0.00000  Uiso   1.00
C131   C     0.32604   0.14844   0.60226   0.00000  Uiso   1.00
C132   C     0.20712   0.44408   0.10176   0.00000  Uiso   1.00
C133   C     0.23130   0.41541   0.12104   0.00000  Uiso   1.00
C134   C     0.26375   0.43140   0.89681   0.00000  Uiso   1.00
C135   C     0.24323   0.03280   0.91752   0.00000  Uiso   1.00
C136   C     0.22820   0.41403   0.88325   0.00000  Uiso   1.00
C137   C     0.06859   0.23623   0.10319   0.00000  Uiso   1.00
C138   C     0.08597   0.27177   0.11676   0.00000  Uiso   1.00
C139   C     0.05592   0.29288   0.89824   0.00000  Uiso   1.00
C140   C     0.08459   0.26870   0.87896   0.00000  Uiso   1.00
C141   C     0.29288   0.05592   0.10176   0.00000  Uiso   1.00
C142   C     0.26869   0.08459   0.12104   0.00000  Uiso   1.00
C143   C     0.23626   0.06860   0.89681   0.00000  Uiso   1.00
C144   C     0.27180   0.08597   0.88325   0.00000  Uiso   1.00
C145   C     0.43141   0.26377   0.10319   0.00000  Uiso   1.00
C146   C     0.46720   0.25678   0.08248   0.00000  Uiso   1.00
C147   C     0.41403   0.22823   0.11676   0.00000  Uiso   1.00
C148   C     0.44408   0.20712   0.89824   0.00000  Uiso   1.00
C149   C     0.41541   0.23130   0.87895   0.00000  Uiso   1.00
C150   C     0.45712   0.19408   0.60176   0.00000  Uiso   1.00
C151   C     0.48130   0.16541   0.62104   0.00000  Uiso   1.00
C152   C     0.01376   0.18140   0.39681   0.00000  Uiso   1.00
C153   C     0.47821   0.16403   0.38325   0.00000  Uiso   1.00
C154   C     0.31859   0.48623   0.60319   0.00000  Uiso   1.00
C155   C     0.33597   0.02176   0.61676   0.00000  Uiso   1.00
C156   C     0.30592   0.04288   0.39824   0.00000  Uiso   1.00
C157   C     0.47355   0.22937   0.91823   0.00000  Uiso   1.00
C158   C     0.33459   0.01869   0.37895   0.00000  Uiso   1.00
C159   C     0.04288   0.30592   0.60176   0.00000  Uiso   1.00
C160   C     0.01870   0.33459   0.62104   0.00000  Uiso   1.00
C161   C     0.48624   0.31860   0.39681   0.00000  Uiso   1.00
C162   C     0.02179   0.33597   0.38325   0.00000  Uiso   1.00
C163   C     0.18141   0.01377   0.60319   0.00000  Uiso   1.00
C164   C     0.16403   0.47824   0.61676   0.00000  Uiso   1.00
C165   C     0.19408   0.45713   0.39824   0.00000  Uiso   1.00
C166   C     0.16540   0.48131   0.37896   0.00000  Uiso   1.00
C167   C     0.47936   0.22355   0.58178   0.00000  Uiso   1.00
C168   C     0.00677   0.21720   0.41752   0.00000  Uiso   1.00
C169   C     0.28280   0.49322   0.58248   0.00000  Uiso   1.00
C170   C     0.27645   0.02063   0.41823   0.00000  Uiso   1.00
C171   C     0.02064   0.27645   0.58177   0.00000  Uiso   1.00
C172   C     0.03234   0.24332   0.04189   0.00000  Uiso   1.00
C173   C     0.49323   0.28280   0.41752   0.00000  Uiso   1.00
C174   C     0.21720   0.00678   0.58248   0.00000  Uiso   1.00
C175   C     0.22355   0.47937   0.41823   0.00000  Uiso   1.00
C176   C     0.25000  -0.00000   0.02095   0.00000  Uiso   1.00
C177   C     0.25000   0.00000   0.97837   0.00000  Uiso   1.00
C178   C    -0.00000   0.25000   0.02163   0.00000  Uiso   1.00
C179   C    -0.00000   0.25000   0.97905   0.00000  Uiso   1.00
C180   C    -0.00000   0.25000   0.52095   0.00000  Uiso   1.00
C181   C    -0.00000   0.25000   0.47837   0.00000  Uiso   1.00
C182   C     0.25000  -0.00000   0.52163   0.00000  Uiso   1.00
C183   C     0.02592   0.27027   0.95884   0.00000  Uiso   1.00
C184   C     0.25000  -0.00000   0.47905   0.00000  Uiso   1.00
C185   C     0.25000   0.00000   0.35515   0.00000  Uiso   1.00
C186   C     0.25000   0.00000   0.64503   0.00000  Uiso   1.00
C187   C     0.00000   0.25000   0.35497   0.00000  Uiso   1.00
C188   C     0.00000   0.25000   0.64485   0.00000  Uiso   1.00
C189   C     0.00000   0.25000   0.85515   0.00000  Uiso   1.00
C190   C     0.00000   0.25000   0.14503   0.00000  Uiso   1.00
C191   C     0.25000  -0.00000   0.85497   0.00000  Uiso   1.00
C192   C     0.25000   0.00000   0.14485   0.00000  Uiso   1.00
C193   C     0.18001   0.06999   0.25000   0.00000  Uiso   1.00
C194   C     0.27027   0.02592   0.04116   0.00000  Uiso   1.00
C195   C     0.32011   0.42989   0.75000   0.00000  Uiso   1.00
C196   C     0.42989   0.17989   0.25000   0.00000  Uiso   1.00
C197   C     0.07002   0.32002   0.75000   0.00000  Uiso   1.00
C198   C     0.31999   0.43001   0.25000   0.00000  Uiso   1.00
C199   C     0.17989   0.07011   0.75000   0.00000  Uiso   1.00
C200   C     0.07011   0.32011   0.25000   0.00000  Uiso   1.00
C201   C     0.42998   0.17998   0.75000   0.00000  Uiso   1.00
C202   C     0.17989   0.42989   0.75000   0.00000  Uiso   1.00
C203   C     0.32002   0.07002   0.25000   0.00000  Uiso   1.00
C204   C     0.43001   0.31999   0.75000   0.00000  Uiso   1.00
C205   C     0.24333   0.03234   0.95811   0.00000  Uiso   1.00
C206   C     0.07011   0.17989   0.25000   0.00000  Uiso   1.00
C207   C     0.32011   0.07011   0.75000   0.00000  Uiso   1.00
C208   C     0.17998   0.42998   0.25000   0.00000  Uiso   1.00
C209   C     0.06999   0.18001   0.75000   0.00000  Uiso   1.00
C210   C     0.42989   0.32011   0.25000   0.00000  Uiso   1.00
C211   C     0.11742   0.40959   0.23434   0.00000  Uiso   1.00
C212   C     0.38162   0.09221   0.76958   0.00000  Uiso   1.00
C213   C     0.10347   0.12971   0.21671   0.00000  Uiso   1.00
C214   C     0.39421   0.36706   0.78448   0.00000  Uiso   1.00
C215   C     0.38258   0.09041   0.23433   0.00000  Uiso   1.00
C216   C     0.46766   0.25668   0.04189   0.00000  Uiso   1.00
C217   C     0.11838   0.40779   0.76958   0.00000  Uiso   1.00
C218   C     0.39651   0.37028   0.21670   0.00000  Uiso   1.00
C219   C     0.10579   0.13293   0.78448   0.00000  Uiso   1.00
C220   C     0.12972   0.10348   0.78330   0.00000  Uiso   1.00
C221   C     0.36706   0.39421   0.21552   0.00000  Uiso   1.00
C222   C     0.09041   0.38258   0.76566   0.00000  Uiso   1.00
C223   C     0.40779   0.11838   0.23041   0.00000  Uiso   1.00
C224   C     0.37028   0.39651   0.78330   0.00000  Uiso   1.00
C225   C     0.13292   0.10578   0.21552   0.00000  Uiso   1.00
C226   C     0.40959   0.11742   0.76566   0.00000  Uiso   1.00
C227   C     0.47408   0.22973   0.95884   0.00000  Uiso   1.00
C228   C     0.09221   0.38162   0.23042   0.00000  Uiso   1.00
C229   C     0.36742   0.15959   0.73433   0.00000  Uiso   1.00
C230   C     0.13162   0.34221   0.26959   0.00000  Uiso   1.00
C231   C     0.35349   0.37972   0.71670   0.00000  Uiso   1.00
C232   C     0.14422   0.11708   0.28448   0.00000  Uiso   1.00
C233   C     0.13258   0.34041   0.73434   0.00000  Uiso   1.00
C234   C     0.36838   0.15779   0.26958   0.00000  Uiso   1.00
C235   C     0.14652   0.12028   0.71670   0.00000  Uiso   1.00
C236   C     0.35579   0.38294   0.28448   0.00000  Uiso   1.00
C237   C     0.37972   0.35349   0.28330   0.00000  Uiso   1.00
C238   C     0.47973   0.22408   0.54116   0.00000  Uiso   1.00
C239   C     0.11707   0.14421   0.71552   0.00000  Uiso   1.00
C240   C     0.34041   0.13258   0.26566   0.00000  Uiso   1.00
C241   C     0.15779   0.36838   0.73042   0.00000  Uiso   1.00
C242   C     0.12029   0.14653   0.28329   0.00000  Uiso   1.00
C243   C     0.38294   0.35579   0.71552   0.00000  Uiso   1.00
C244   C     0.15959   0.36742   0.26567   0.00000  Uiso   1.00
C245   C     0.34221   0.13162   0.73042   0.00000  Uiso   1.00
C246   C     0.09825   0.34825   0.25000   0.00000  Uiso   1.00
C247   C     0.40200   0.15200   0.75000   0.00000  Uiso   1.00
C248   C     0.15204   0.09796   0.25000   0.00000  Uiso   1.00
H249   H     0.21401   0.45423   0.02500   0.00000  Uiso   1.00
H250   H     0.01195   0.19276   0.47409   0.00000  Uiso   1.00
H251   H     0.45290   0.10550   0.09399   0.00000  Uiso   1.00
H252   H     0.37320   0.47046   0.83049   0.00000  Uiso   1.00
H253   H     0.39506   0.45759   0.78631   0.00000  Uiso   1.00
H254   H     0.41635   0.42982   0.86845   0.00000  Uiso   1.00
H255   H     0.44040   0.42077   0.82377   0.00000  Uiso   1.00
H256   H     0.45182   0.48790   0.81551   0.00000  Uiso   1.00
H257   H     0.47109   0.46972   0.85972   0.00000  Uiso   1.00
H258   H     0.42955   0.49592   0.86176   0.00000  Uiso   1.00
H259   H     0.18279   0.08632   0.14135   0.00000  Uiso   1.00
H260   H     0.19377   0.11182   0.18379   0.00000  Uiso   1.00
H261   H     0.30724   0.48803   0.52591   0.00000  Uiso   1.00
H262   H     0.13569   0.13474   0.12284   0.00000  Uiso   1.00
H263   H     0.15219   0.16191   0.16284   0.00000  Uiso   1.00
H264   H     0.21531   0.15993   0.13340   0.00000  Uiso   1.00
H265   H     0.18178   0.18147   0.10264   0.00000  Uiso   1.00
H266   H     0.19651   0.13570   0.09211   0.00000  Uiso   1.00
H267   H     0.46620   0.10941   0.72383   0.00000  Uiso   1.00
H268   H     0.44984   0.06544   0.74082   0.00000  Uiso   1.00
H269   H     0.01547   0.10743   0.77387   0.00000  Uiso   1.00
H270   H     0.49930   0.06370   0.79021   0.00000  Uiso   1.00
H271   H     0.01208   0.03698   0.72497   0.00000  Uiso   1.00
H272   H     0.29577   0.03599   0.47500   0.00000  Uiso   1.00
H273   H     0.05232   0.05805   0.74487   0.00000  Uiso   1.00
H274   H     0.02690   0.08101   0.70736   0.00000  Uiso   1.00
H275   H     0.03696   0.36945   0.16025   0.00000  Uiso   1.00
H276   H     0.08185   0.35244   0.16769   0.00000  Uiso   1.00
H277   H     0.06350   0.43347   0.15108   0.00000  Uiso   1.00
H278   H     0.10816   0.41290   0.15220   0.00000  Uiso   1.00
H279   H     0.09153   0.37316   0.09589   0.00000  Uiso   1.00
H280   H     0.08741   0.42097   0.08452   0.00000  Uiso   1.00
H281   H     0.04704   0.39452   0.09402   0.00000  Uiso   1.00
H282   H     0.35934   0.21615   0.77619   0.00000  Uiso   1.00
H283   H     0.03599   0.29577   0.52500   0.00000  Uiso   1.00
H284   H     0.31539   0.19985   0.75909   0.00000  Uiso   1.00
H285   H     0.35751   0.26547   0.72621   0.00000  Uiso   1.00
H286   H     0.31380   0.24936   0.70974   0.00000  Uiso   1.00
H287   H     0.28692   0.26213   0.77487   0.00000  Uiso   1.00
H288   H     0.30815   0.30235   0.75514   0.00000  Uiso   1.00
H289   H     0.33091   0.27681   0.79268   0.00000  Uiso   1.00
H290   H     0.11944   0.28698   0.33978   0.00000  Uiso   1.00
H291   H     0.10242   0.33186   0.33231   0.00000  Uiso   1.00
H292   H     0.18345   0.31355   0.34895   0.00000  Uiso   1.00
H293   H     0.16286   0.35820   0.34781   0.00000  Uiso   1.00
H294   H     0.48804   0.30724   0.47409   0.00000  Uiso   1.00
H295   H     0.12311   0.34157   0.40411   0.00000  Uiso   1.00
H296   H     0.17093   0.33748   0.41550   0.00000  Uiso   1.00
H297   H     0.14450   0.29710   0.40601   0.00000  Uiso   1.00
H298   H     0.27954   0.37680   0.66953   0.00000  Uiso   1.00
H299   H     0.29242   0.35493   0.71369   0.00000  Uiso   1.00
H300   H     0.32016   0.33366   0.63154   0.00000  Uiso   1.00
H301   H     0.32923   0.30960   0.67621   0.00000  Uiso   1.00
H302   H     0.26211   0.29817   0.68450   0.00000  Uiso   1.00
H303   H     0.28027   0.27892   0.64028   0.00000  Uiso   1.00
H304   H     0.25407   0.32045   0.63826   0.00000  Uiso   1.00
H305   H     0.19276   0.01197   0.52591   0.00000  Uiso   1.00
H306   H     0.16367   0.06721   0.35865   0.00000  Uiso   1.00
H307   H     0.13817   0.05623   0.31621   0.00000  Uiso   1.00
H308   H     0.11527   0.11431   0.37717   0.00000  Uiso   1.00
H309   H     0.08809   0.09782   0.33716   0.00000  Uiso   1.00
H310   H     0.09006   0.03470   0.36660   0.00000  Uiso   1.00
H311   H     0.06853   0.06823   0.39737   0.00000  Uiso   1.00
H312   H     0.11430   0.05350   0.40789   0.00000  Uiso   1.00
H313   H     0.14057   0.28379   0.77616   0.00000  Uiso   1.00
H314   H     0.18454   0.30016   0.75920   0.00000  Uiso   1.00
H315   H     0.14258   0.23453   0.72611   0.00000  Uiso   1.00
H316   H     0.20423   0.46401   0.47500   0.00000  Uiso   1.00
H317   H     0.18632   0.25071   0.70980   0.00000  Uiso   1.00
H318   H     0.21300   0.23793   0.77506   0.00000  Uiso   1.00
H319   H     0.19196   0.19769   0.75512   0.00000  Uiso   1.00
H320   H     0.16897   0.22308   0.79262   0.00000  Uiso   1.00
H321   H     0.38055   0.21305   0.33975   0.00000  Uiso   1.00
H322   H     0.39755   0.16816   0.33231   0.00000  Uiso   1.00
H323   H     0.31653   0.18650   0.34892   0.00000  Uiso   1.00
H324   H     0.33709   0.14184   0.34780   0.00000  Uiso   1.00
H325   H     0.37684   0.15847   0.40411   0.00000  Uiso   1.00
H326   H     0.32903   0.16259   0.41548   0.00000  Uiso   1.00
H327   H     0.10955   0.46629   0.27612   0.00000  Uiso   1.00
H328   H     0.35548   0.20296   0.40598   0.00000  Uiso   1.00
H329   H     0.22047   0.12321   0.66953   0.00000  Uiso   1.00
H330   H     0.20759   0.14507   0.71370   0.00000  Uiso   1.00
H331   H     0.17984   0.16636   0.63156   0.00000  Uiso   1.00
H332   H     0.17079   0.19040   0.67623   0.00000  Uiso   1.00
H333   H     0.23792   0.20182   0.68451   0.00000  Uiso   1.00
H334   H     0.21975   0.22109   0.64030   0.00000  Uiso   1.00
H335   H     0.24594   0.17955   0.63826   0.00000  Uiso   1.00
H336   H     0.33640   0.43287   0.35862   0.00000  Uiso   1.00
H337   H     0.36193   0.44379   0.31617   0.00000  Uiso   1.00
H338   H     0.06555   0.44982   0.25934   0.00000  Uiso   1.00
H339   H     0.38475   0.38572   0.37718   0.00000  Uiso   1.00
H340   H     0.41196   0.40218   0.33718   0.00000  Uiso   1.00
H341   H     0.41002   0.46532   0.36659   0.00000  Uiso   1.00
H342   H     0.43152   0.43177   0.39739   0.00000  Uiso   1.00
H343   H     0.38576   0.44655   0.40788   0.00000  Uiso   1.00
H344   H     0.37680   0.27954   0.33049   0.00000  Uiso   1.00
H345   H     0.35494   0.29241   0.28632   0.00000  Uiso   1.00
H346   H     0.33365   0.32018   0.36845   0.00000  Uiso   1.00
H347   H     0.30961   0.32923   0.32377   0.00000  Uiso   1.00
H348   H     0.29818   0.26210   0.31552   0.00000  Uiso   1.00
H349   H     0.10729   0.01547   0.22598   0.00000  Uiso   1.00
H350   H     0.27892   0.28028   0.35972   0.00000  Uiso   1.00
H351   H     0.32046   0.25409   0.36177   0.00000  Uiso   1.00
H352   H     0.06715   0.16363   0.64138   0.00000  Uiso   1.00
H353   H     0.05623   0.13809   0.68382   0.00000  Uiso   1.00
H354   H     0.11429   0.11527   0.62281   0.00000  Uiso   1.00
H355   H     0.09784   0.08806   0.66280   0.00000  Uiso   1.00
H356   H     0.03470   0.09001   0.63339   0.00000  Uiso   1.00
H357   H     0.06824   0.06851   0.60259   0.00000  Uiso   1.00
H358   H     0.05348   0.11428   0.59210   0.00000  Uiso   1.00
H359   H     0.28368   0.14042   0.22389   0.00000  Uiso   1.00
H360   H     0.26195   0.44276   0.97409   0.00000  Uiso   1.00
H361   H     0.06352   0.49919   0.20987   0.00000  Uiso   1.00
H362   H     0.30018   0.18442   0.24062   0.00000  Uiso   1.00
H363   H     0.23452   0.14273   0.27405   0.00000  Uiso   1.00
H364   H     0.25083   0.18651   0.29011   0.00000  Uiso   1.00
H365   H     0.23802   0.21289   0.22468   0.00000  Uiso   1.00
H366   H     0.19776   0.19216   0.24492   0.00000  Uiso   1.00
H367   H     0.22292   0.16883   0.20748   0.00000  Uiso   1.00
H368   H     0.21304   0.38055   0.66024   0.00000  Uiso   1.00
H369   H     0.16815   0.39756   0.66769   0.00000  Uiso   1.00
H370   H     0.18648   0.31654   0.65107   0.00000  Uiso   1.00
H371   H     0.14183   0.33711   0.65220   0.00000  Uiso   1.00
H372   H     0.03710   0.01198   0.27528   0.00000  Uiso   1.00
H373   H     0.15846   0.37686   0.59589   0.00000  Uiso   1.00
H374   H     0.16257   0.32904   0.58451   0.00000  Uiso   1.00
H375   H     0.20294   0.35549   0.59401   0.00000  Uiso   1.00
H376   H     0.12321   0.22049   0.33044   0.00000  Uiso   1.00
H377   H     0.14507   0.20761   0.28628   0.00000  Uiso   1.00
H378   H     0.16638   0.17987   0.36842   0.00000  Uiso   1.00
H379   H     0.19043   0.17083   0.32374   0.00000  Uiso   1.00
H380   H     0.20182   0.23796   0.31546   0.00000  Uiso   1.00
H381   H     0.22110   0.21979   0.35967   0.00000  Uiso   1.00
H382   H     0.17955   0.24597   0.36172   0.00000  Uiso   1.00
H383   H     0.05785   0.05225   0.25507   0.00000  Uiso   1.00
H384   H     0.43286   0.33638   0.64138   0.00000  Uiso   1.00
H385   H     0.44378   0.36192   0.68382   0.00000  Uiso   1.00
H386   H     0.38572   0.38474   0.62282   0.00000  Uiso   1.00
H387   H     0.40218   0.41195   0.66281   0.00000  Uiso   1.00
H388   H     0.46531   0.41001   0.63340   0.00000  Uiso   1.00
H389   H     0.43177   0.43151   0.60261   0.00000  Uiso   1.00
H390   H     0.44654   0.38574   0.59211   0.00000  Uiso   1.00
H391   H     0.21620   0.35940   0.22384   0.00000  Uiso   1.00
H392   H     0.19983   0.31544   0.24084   0.00000  Uiso   1.00
H393   H     0.26547   0.35742   0.27389   0.00000  Uiso   1.00
H394   H     0.08115   0.02707   0.29252   0.00000  Uiso   1.00
H395   H     0.24929   0.31369   0.29023   0.00000  Uiso   1.00
H396   H     0.26207   0.28696   0.22500   0.00000  Uiso   1.00
H397   H     0.30231   0.30802   0.24491   0.00000  Uiso   1.00
H398   H     0.27691   0.33099   0.20739   0.00000  Uiso   1.00
H399   H     0.28697   0.11944   0.66024   0.00000  Uiso   1.00
H400   H     0.33186   0.10243   0.66769   0.00000  Uiso   1.00
H401   H     0.31353   0.18345   0.65106   0.00000  Uiso   1.00
H402   H     0.35818   0.16288   0.65219   0.00000  Uiso   1.00
H403   H     0.34155   0.12313   0.59589   0.00000  Uiso   1.00
H404   H     0.33745   0.17094   0.58450   0.00000  Uiso   1.00
H405   H     0.36945   0.03696   0.83975   0.00000  Uiso   1.00
H406   H     0.29707   0.14450   0.59400   0.00000  Uiso   1.00
H407   H     0.25023   0.40356   0.09929   0.00000  Uiso   1.00
H408   H     0.24724   0.42719   0.14533   0.00000  Uiso   1.00
H409   H     0.21408   0.39325   0.13298   0.00000  Uiso   1.00
H410   H     0.18806   0.45605   0.12326   0.00000  Uiso   1.00
H411   H     0.18956   0.42975   0.08035   0.00000  Uiso   1.00
H412   H     0.20985   0.40937   0.90843   0.00000  Uiso   1.00
H413   H     0.21412   0.43164   0.86176   0.00000  Uiso   1.00
H414   H     0.23412   0.38742   0.86926   0.00000  Uiso   1.00
H415   H     0.28226   0.43542   0.87165   0.00000  Uiso   1.00
H416   H     0.35244   0.08185   0.83231   0.00000  Uiso   1.00
H417   H     0.27776   0.41191   0.91655   0.00000  Uiso   1.00
H418   H     0.09064   0.29013   0.09158   0.00000  Uiso   1.00
H419   H     0.06837   0.28585   0.13825   0.00000  Uiso   1.00
H420   H     0.11258   0.26584   0.13074   0.00000  Uiso   1.00
H421   H     0.06457   0.21772   0.12835   0.00000  Uiso   1.00
H422   H     0.08808   0.22221   0.08345   0.00000  Uiso   1.00
H423   H     0.09644   0.24977   0.90072   0.00000  Uiso   1.00
H424   H     0.07281   0.25275   0.85468   0.00000  Uiso   1.00
H425   H     0.10675   0.28592   0.86702   0.00000  Uiso   1.00
H426   H     0.04395   0.31193   0.87673   0.00000  Uiso   1.00
H427   H     0.43347   0.06350   0.84892   0.00000  Uiso   1.00
H428   H     0.07025   0.31044   0.91965   0.00000  Uiso   1.00
H429   H     0.24978   0.09645   0.09927   0.00000  Uiso   1.00
H430   H     0.25274   0.07281   0.14531   0.00000  Uiso   1.00
H431   H     0.28592   0.10675   0.13299   0.00000  Uiso   1.00
H432   H     0.31193   0.04395   0.12327   0.00000  Uiso   1.00
H433   H     0.31044   0.07025   0.08035   0.00000  Uiso   1.00
H434   H     0.29016   0.09063   0.90844   0.00000  Uiso   1.00
H435   H     0.28588   0.06836   0.86177   0.00000  Uiso   1.00
H436   H     0.26588   0.11258   0.86926   0.00000  Uiso   1.00
H437   H     0.21775   0.06458   0.87165   0.00000  Uiso   1.00
H438   H     0.41290   0.10816   0.84780   0.00000  Uiso   1.00
H439   H     0.22224   0.08809   0.91655   0.00000  Uiso   1.00
H440   H     0.40936   0.20987   0.09158   0.00000  Uiso   1.00
H441   H     0.43163   0.21415   0.13825   0.00000  Uiso   1.00
H442   H     0.38742   0.23416   0.13075   0.00000  Uiso   1.00
H443   H     0.43543   0.28228   0.12835   0.00000  Uiso   1.00
H444   H     0.41192   0.27779   0.08345   0.00000  Uiso   1.00
H445   H     0.40356   0.25023   0.90071   0.00000  Uiso   1.00
H446   H     0.42719   0.24724   0.85467   0.00000  Uiso   1.00
H447   H     0.39325   0.21407   0.86702   0.00000  Uiso   1.00
H448   H     0.45605   0.18806   0.87674   0.00000  Uiso   1.00
H449   H     0.37315   0.09154   0.90411   0.00000  Uiso   1.00
H450   H     0.42975   0.18956   0.91965   0.00000  Uiso   1.00
H451   H     0.00023   0.15356   0.59928   0.00000  Uiso   1.00
H452   H     0.49725   0.17719   0.64533   0.00000  Uiso   1.00
H453   H     0.46408   0.14325   0.63299   0.00000  Uiso   1.00
H454   H     0.43807   0.20605   0.62327   0.00000  Uiso   1.00
H455   H     0.43956   0.17975   0.58035   0.00000  Uiso   1.00
H456   H     0.45986   0.15936   0.40843   0.00000  Uiso   1.00
H457   H     0.46414   0.18163   0.36176   0.00000  Uiso   1.00
H458   H     0.48414   0.13742   0.36926   0.00000  Uiso   1.00
H459   H     0.03227   0.18542   0.37165   0.00000  Uiso   1.00
H460   H     0.42097   0.08741   0.91549   0.00000  Uiso   1.00
H461   H     0.02777   0.16191   0.41655   0.00000  Uiso   1.00
H462   H     0.34064   0.04012   0.59158   0.00000  Uiso   1.00
H463   H     0.31837   0.03584   0.63825   0.00000  Uiso   1.00
H464   H     0.36258   0.01583   0.63075   0.00000  Uiso   1.00
H465   H     0.31457   0.46771   0.62835   0.00000  Uiso   1.00
H466   H     0.33808   0.47221   0.58345   0.00000  Uiso   1.00
H467   H     0.34644   0.49977   0.40071   0.00000  Uiso   1.00
H468   H     0.32281   0.00276   0.35467   0.00000  Uiso   1.00
H469   H     0.35675   0.03592   0.36702   0.00000  Uiso   1.00
H470   H     0.29395   0.06193   0.37674   0.00000  Uiso   1.00
H471   H     0.05724   0.23804   0.02591   0.00000  Uiso   1.00
H472   H     0.39451   0.04705   0.90598   0.00000  Uiso   1.00
H473   H     0.32026   0.06044   0.41965   0.00000  Uiso   1.00
H474   H     0.49978   0.34644   0.59929   0.00000  Uiso   1.00
H475   H     0.00276   0.32281   0.64533   0.00000  Uiso   1.00
H476   H     0.03593   0.35675   0.63299   0.00000  Uiso   1.00
H477   H     0.06194   0.29395   0.62326   0.00000  Uiso   1.00
H478   H     0.06044   0.32025   0.58035   0.00000  Uiso   1.00
H479   H     0.04013   0.34065   0.40844   0.00000  Uiso   1.00
H480   H     0.03587   0.31837   0.36177   0.00000  Uiso   1.00
H481   H     0.01586   0.36258   0.36925   0.00000  Uiso   1.00
H482   H     0.46773   0.31458   0.37165   0.00000  Uiso   1.00
H483   H     0.02951   0.12679   0.16956   0.00000  Uiso   1.00
H484   H     0.47222   0.33808   0.41655   0.00000  Uiso   1.00
H485   H     0.15936   0.45988   0.59158   0.00000  Uiso   1.00
H486   H     0.18163   0.46416   0.63825   0.00000  Uiso   1.00
H487   H     0.13742   0.48417   0.63075   0.00000  Uiso   1.00
H488   H     0.18543   0.03229   0.62835   0.00000  Uiso   1.00
H489   H     0.16192   0.02779   0.58345   0.00000  Uiso   1.00
H490   H     0.15355   0.00023   0.40073   0.00000  Uiso   1.00
H491   H     0.17719   0.49726   0.35468   0.00000  Uiso   1.00
H492   H     0.14325   0.46409   0.36701   0.00000  Uiso   1.00
H493   H     0.20604   0.43807   0.37673   0.00000  Uiso   1.00
H494   H     0.04240   0.10493   0.21372   0.00000  Uiso   1.00
H495   H     0.17974   0.43956   0.41965   0.00000  Uiso   1.00
H496   H     0.07012   0.08363   0.13157   0.00000  Uiso   1.00
H497   H     0.07918   0.05958   0.17625   0.00000  Uiso   1.00
H498   H     0.01205   0.04818   0.18453   0.00000  Uiso   1.00
H499   H     0.03021   0.02891   0.14032   0.00000  Uiso   1.00
H500   H     0.00403   0.07045   0.13828   0.00000  Uiso   1.00
H501   H     0.41361   0.31712   0.85861   0.00000  Uiso   1.00
H502   H     0.38805   0.30622   0.81617   0.00000  Uiso   1.00
H503   H     0.04577   0.28599   0.97500   0.00000  Uiso   1.00
H504   H     0.36527   0.36429   0.87719   0.00000  Uiso   1.00
H505   H     0.33804   0.34784   0.83721   0.00000  Uiso   1.00
H506   H     0.33998   0.28470   0.86662   0.00000  Uiso   1.00
H507   H     0.31850   0.31825   0.89742   0.00000  Uiso   1.00
H508   H     0.36426   0.30346   0.90790   0.00000  Uiso   1.00
H509   H     0.39062   0.03382   0.27617   0.00000  Uiso   1.00
H510   H     0.43458   0.05016   0.25913   0.00000  Uiso   1.00
H511   H     0.39255   0.48453   0.22614   0.00000  Uiso   1.00
H512   H     0.43627   0.00069   0.20976   0.00000  Uiso   1.00
H513   H     0.46305   0.48791   0.27495   0.00000  Uiso   1.00
H514   H     0.28599   0.04577   0.02500   0.00000  Uiso   1.00
H515   H     0.44192   0.44767   0.25511   0.00000  Uiso   1.00
H516   H     0.41904   0.47313   0.29263   0.00000  Uiso   1.00
H517   H     0.13056   0.46303   0.83976   0.00000  Uiso   1.00
H518   H     0.14757   0.41815   0.83231   0.00000  Uiso   1.00
H519   H     0.06654   0.43648   0.84893   0.00000  Uiso   1.00
H520   H     0.08712   0.39182   0.84781   0.00000  Uiso   1.00
H521   H     0.12687   0.40845   0.90411   0.00000  Uiso   1.00
H522   H     0.07905   0.41256   0.91550   0.00000  Uiso   1.00
H523   H     0.10550   0.45294   0.90599   0.00000  Uiso   1.00
H524   H     0.47046   0.37320   0.16951   0.00000  Uiso   1.00
H525   H     0.23806   0.05724   0.97409   0.00000  Uiso   1.00
H526   H     0.45759   0.39506   0.21368   0.00000  Uiso   1.00
H527   H     0.42982   0.41635   0.13155   0.00000  Uiso   1.00
H528   H     0.42077   0.44039   0.17622   0.00000  Uiso   1.00
H529   H     0.48790   0.45182   0.18448   0.00000  Uiso   1.00
H530   H     0.46972   0.47108   0.14028   0.00000  Uiso   1.00
H531   H     0.49592   0.42954   0.13823   0.00000  Uiso   1.00
H532   H     0.08637   0.18285   0.85863   0.00000  Uiso   1.00
H533   H     0.11190   0.19378   0.81618   0.00000  Uiso   1.00
H534   H     0.13473   0.13571   0.87718   0.00000  Uiso   1.00
H535   H     0.16194   0.15217   0.83719   0.00000  Uiso   1.00
H536   H     0.44276   0.26196   0.02591   0.00000  Uiso   1.00
H537   H     0.15999   0.21530   0.86661   0.00000  Uiso   1.00
H538   H     0.18149   0.18176   0.89740   0.00000  Uiso   1.00
H539   H     0.13573   0.19653   0.90789   0.00000  Uiso   1.00
H540   H     0.12679   0.02953   0.83047   0.00000  Uiso   1.00
H541   H     0.10493   0.04241   0.78630   0.00000  Uiso   1.00
H542   H     0.08364   0.07016   0.86844   0.00000  Uiso   1.00
H543   H     0.05959   0.07921   0.82377   0.00000  Uiso   1.00
H544   H     0.04818   0.01208   0.81549   0.00000  Uiso   1.00
H545   H     0.02891   0.03026   0.85970   0.00000  Uiso   1.00
H546   H     0.07045   0.00406   0.86174   0.00000  Uiso   1.00
H547   H     0.45423   0.21401   0.97500   0.00000  Uiso   1.00
H548   H     0.31713   0.41361   0.14138   0.00000  Uiso   1.00
H549   H     0.30621   0.38808   0.18383   0.00000  Uiso   1.00
H550   H     0.36427   0.36525   0.12282   0.00000  Uiso   1.00
H551   H     0.34782   0.33804   0.16282   0.00000  Uiso   1.00
H552   H     0.28468   0.33999   0.13341   0.00000  Uiso   1.00
H553   H     0.31822   0.31848   0.10262   0.00000  Uiso   1.00
H554   H     0.30345   0.36424   0.09212   0.00000  Uiso   1.00
H555   H     0.03380   0.39059   0.72384   0.00000  Uiso   1.00
H556   H     0.05016   0.43456   0.74082   0.00000  Uiso   1.00
H557   H     0.48453   0.39257   0.77389   0.00000  Uiso   1.00
H558   H     0.46401   0.20423   0.52501   0.00000  Uiso   1.00
H559   H     0.00071   0.43631   0.79022   0.00000  Uiso   1.00
H560   H     0.48793   0.46303   0.72499   0.00000  Uiso   1.00
H561   H     0.44769   0.44197   0.74490   0.00000  Uiso   1.00
H562   H     0.47309   0.41900   0.70739   0.00000  Uiso   1.00
H563   H     0.46302   0.13056   0.16022   0.00000  Uiso   1.00
H564   H     0.41814   0.14758   0.16769   0.00000  Uiso   1.00
H565   H     0.43644   0.06655   0.15105   0.00000  Uiso   1.00
H566   H     0.39179   0.08714   0.15219   0.00000  Uiso   1.00
H567   H     0.40843   0.12689   0.09589   0.00000  Uiso   1.00
H568   H     0.41252   0.07907   0.08450   0.00000  Uiso   1.00
O569   O     0.25000   0.00000   0.25000   0.00000  Uiso   1.00
O570   O     0.25000   0.46964   0.66317   0.00000  Uiso   1.00
O571   O     0.46964   0.25000   0.33683   0.00000  Uiso   1.00
O572   O     0.03036   0.25000   0.66317   0.00000  Uiso   1.00
O573   O     0.00000   0.21964   0.83683   0.00000  Uiso   1.00
O574   O     0.00000   0.28036   0.16317   0.00000  Uiso   1.00
O575   O     0.28036   0.00000   0.83683   0.00000  Uiso   1.00
O576   O     0.21964   0.00000   0.16317   0.00000  Uiso   1.00
O577   O     0.00000   0.28036   0.83683   0.00000  Uiso   1.00
O578   O     0.00000   0.21964   0.16317   0.00000  Uiso   1.00
O579   O     0.21964   0.00000   0.83683   0.00000  Uiso   1.00
O580   O     0.25000   0.00000   0.75000   0.00000  Uiso   1.00
O581   O     0.28036   0.00000   0.16317   0.00000  Uiso   1.00
O582   O     0.20726   0.07307   0.27282   0.00000  Uiso   1.00
O583   O     0.29275   0.42693   0.72718   0.00000  Uiso   1.00
O584   O     0.42693   0.20725   0.27282   0.00000  Uiso   1.00
O585   O     0.07307   0.29274   0.72718   0.00000  Uiso   1.00
O586   O     0.29275   0.42693   0.27282   0.00000  Uiso   1.00
O587   O     0.20726   0.07307   0.72718   0.00000  Uiso   1.00
O588   O     0.07307   0.29274   0.27282   0.00000  Uiso   1.00
O589   O     0.42693   0.20725   0.72718   0.00000  Uiso   1.00
O590   O     0.20726   0.42693   0.72718   0.00000  Uiso   1.00
O591   O     0.00000   0.25000   0.25000   0.00000  Uiso   1.00
O592   O     0.29275   0.07307   0.27282   0.00000  Uiso   1.00
O593   O     0.42693   0.29274   0.72718   0.00000  Uiso   1.00
O594   O     0.07307   0.20725   0.27282   0.00000  Uiso   1.00
O595   O     0.29275   0.07307   0.72718   0.00000  Uiso   1.00
O596   O     0.20726   0.42693   0.27282   0.00000  Uiso   1.00
O597   O     0.07307   0.20725   0.72718   0.00000  Uiso   1.00
O598   O     0.42693   0.29274   0.27282   0.00000  Uiso   1.00
O599   O     0.45726   0.32307   0.77282   0.00000  Uiso   1.00
O600   O     0.04275   0.17693   0.22718   0.00000  Uiso   1.00
O601   O     0.17693   0.45725   0.77282   0.00000  Uiso   1.00
O602   O     0.00000   0.25000   0.75000   0.00000  Uiso   1.00
O603   O     0.32307   0.04275   0.22718   0.00000  Uiso   1.00
O604   O     0.04275   0.17693   0.77282   0.00000  Uiso   1.00
O605   O     0.45726   0.32307   0.22718   0.00000  Uiso   1.00
O606   O     0.32307   0.04275   0.77282   0.00000  Uiso   1.00
O607   O     0.17693   0.45725   0.22718   0.00000  Uiso   1.00
O608   O     0.45726   0.17693   0.22718   0.00000  Uiso   1.00
O609   O     0.04275   0.32307   0.77282   0.00000  Uiso   1.00
O610   O     0.17693   0.04275   0.22718   0.00000  Uiso   1.00
O611   O     0.32307   0.45725   0.77282   0.00000  Uiso   1.00
O612   O     0.04275   0.32307   0.22718   0.00000  Uiso   1.00
O613   O     0.25000   0.46964   0.33683   0.00000  Uiso   1.00
O614   O     0.45726   0.17693   0.77282   0.00000  Uiso   1.00
O615   O     0.32307   0.45725   0.22718   0.00000  Uiso   1.00
O616   O     0.17693   0.04275   0.77282   0.00000  Uiso   1.00
O617   O     0.10872   0.44387   0.22044   0.00000  Uiso   1.00
O618   O     0.38864   0.06036   0.78986   0.00000  Uiso   1.00
O619   O     0.08304   0.13474   0.18323   0.00000  Uiso   1.00
O620   O     0.41139   0.35870   0.81925   0.00000  Uiso   1.00
O621   O     0.39128   0.05614   0.22042   0.00000  Uiso   1.00
O622   O     0.11137   0.43964   0.78987   0.00000  Uiso   1.00
O623   O     0.41694   0.36523   0.18322   0.00000  Uiso   1.00
O624   O     0.25000   0.03036   0.66317   0.00000  Uiso   1.00
O625   O     0.08860   0.14129   0.81925   0.00000  Uiso   1.00
O626   O     0.13475   0.08305   0.81678   0.00000  Uiso   1.00
O627   O     0.35870   0.41139   0.18075   0.00000  Uiso   1.00
O628   O     0.05613   0.39128   0.77957   0.00000  Uiso   1.00
O629   O     0.43963   0.11137   0.21012   0.00000  Uiso   1.00
O630   O     0.36524   0.41694   0.81678   0.00000  Uiso   1.00
O631   O     0.14126   0.08857   0.18076   0.00000  Uiso   1.00
O632   O     0.44387   0.10872   0.77957   0.00000  Uiso   1.00
O633   O     0.06036   0.38864   0.21014   0.00000  Uiso   1.00
O634   O     0.35873   0.19387   0.72043   0.00000  Uiso   1.00
O635   O     0.03036   0.25000   0.33683   0.00000  Uiso   1.00
O636   O     0.13863   0.31037   0.28988   0.00000  Uiso   1.00
O637   O     0.33306   0.38476   0.68322   0.00000  Uiso   1.00
O638   O     0.16143   0.10874   0.31924   0.00000  Uiso   1.00
O639   O     0.14128   0.30613   0.72043   0.00000  Uiso   1.00
O640   O     0.36136   0.18964   0.28986   0.00000  Uiso   1.00
O641   O     0.16695   0.11525   0.68322   0.00000  Uiso   1.00
O642   O     0.33861   0.39130   0.31925   0.00000  Uiso   1.00
O643   O     0.38477   0.33306   0.31678   0.00000  Uiso   1.00
O644   O     0.10871   0.16140   0.68076   0.00000  Uiso   1.00
O645   O     0.30613   0.14129   0.27956   0.00000  Uiso   1.00
O646   O     0.46964   0.25000   0.66317   0.00000  Uiso   1.00
O647   O     0.18964   0.36136   0.71013   0.00000  Uiso   1.00
O648   O     0.11526   0.16696   0.31677   0.00000  Uiso   1.00
O649   O     0.39130   0.33861   0.68075   0.00000  Uiso   1.00
O650   O     0.19386   0.35872   0.27958   0.00000  Uiso   1.00
O651   O     0.31036   0.13863   0.71013   0.00000  Uiso   1.00
O652   O     0.25000   0.03036   0.33683   0.00000  Uiso   1.00
Zn653  Zn    0.20660   0.00000   0.21760   0.00000  Uiso   1.00
Zn654  Zn    0.04340   0.25000   0.28240   0.00000  Uiso   1.00
Zn655  Zn    0.25000   0.45660   0.71760   0.00000  Uiso   1.00
Zn656  Zn    0.25000   0.04340   0.28240   0.00000  Uiso   1.00
Zn657  Zn    0.04340   0.25000   0.71760   0.00000  Uiso   1.00
Zn658  Zn    0.45660   0.25000   0.28240   0.00000  Uiso   1.00
Zn659  Zn    0.25000   0.04340   0.71760   0.00000  Uiso   1.00
Zn660  Zn    0.25000   0.45660   0.28240   0.00000  Uiso   1.00
Zn661  Zn    0.29340   0.00000   0.78240   0.00000  Uiso   1.00
Zn662  Zn    0.00000   0.20660   0.21760   0.00000  Uiso   1.00
Zn663  Zn    0.00000   0.29340   0.78240   0.00000  Uiso   1.00
Zn664  Zn    0.29340   0.00000   0.21760   0.00000  Uiso   1.00
Zn665  Zn    0.20660   0.00000   0.78240   0.00000  Uiso   1.00
Zn666  Zn    0.00000   0.29340   0.21760   0.00000  Uiso   1.00
Zn667  Zn    0.00000   0.20660   0.78240   0.00000  Uiso   1.00
Zn668  Zn    0.45660   0.25000   0.71760   0.00000  Uiso   1.00
C669   C     0.72973   0.47408   0.04116   0.00000  Uiso   1.00
C670   C     0.50667   0.21766   0.45811   0.00000  Uiso   1.00
C671   C     0.84827   0.40173   0.75000   0.00000  Uiso   1.00
C672   C     0.90175   0.15175   0.25000   0.00000  Uiso   1.00
C673   C     0.59800   0.34800   0.75000   0.00000  Uiso   1.00
C674   C     0.84796   0.40204   0.25000   0.00000  Uiso   1.00
C675   C     0.65173   0.09827   0.75000   0.00000  Uiso   1.00
C676   C     0.59796   0.15204   0.75000   0.00000  Uiso   1.00
C677   C     0.90173   0.34827   0.25000   0.00000  Uiso   1.00
C678   C     0.65175   0.40175   0.75000   0.00000  Uiso   1.00
C679   C     0.84800   0.09800   0.25000   0.00000  Uiso   1.00
C680   C     0.90204   0.34796   0.75000   0.00000  Uiso   1.00
C681   C     0.78234   0.49332   0.54189   0.00000  Uiso   1.00
C682   C     0.59827   0.15173   0.25000   0.00000  Uiso   1.00
C683   C     0.84825   0.09825   0.75000   0.00000  Uiso   1.00
C684   C     0.65200   0.40200   0.25000   0.00000  Uiso   1.00
C685   C     0.75000   0.00000   0.10236   0.00000  Uiso   1.00
C686   C     0.75000  -0.00000   0.89719   0.00000  Uiso   1.00
C687   C     0.50000   0.25000   0.10281   0.00000  Uiso   1.00
C688   C     0.50000   0.25000   0.89764   0.00000  Uiso   1.00
C689   C     0.50000   0.25000   0.60236   0.00000  Uiso   1.00
C690   C     0.50000   0.25000   0.39719   0.00000  Uiso   1.00
C691   C     0.75000  -0.00000   0.60281   0.00000  Uiso   1.00
C692   C     0.77592   0.02027   0.45884   0.00000  Uiso   1.00
C693   C     0.75000   0.00000   0.39764   0.00000  Uiso   1.00
C694   C     0.59126   0.46357   0.25039   0.00000  Uiso   1.00
C695   C     0.58193   0.00159   0.23539   0.00000  Uiso   1.00
C696   C     0.56334   0.02456   0.26660   0.00000  Uiso   1.00
C697   C     0.87720   0.06439   0.82905   0.00000  Uiso   1.00
C698   C     0.90803   0.07904   0.85468   0.00000  Uiso   1.00
C699   C     0.89846   0.07602   0.89773   0.00000  Uiso   1.00
C700   C     0.55209   0.11169   0.18380   0.00000  Uiso   1.00
C701   C     0.55902   0.07671   0.16071   0.00000  Uiso   1.00
C702   C     0.52407   0.05477   0.15574   0.00000  Uiso   1.00
C703   C     0.52027   0.27592   0.54116   0.00000  Uiso   1.00
C704   C     0.89413   0.32857   0.83710   0.00000  Uiso   1.00
C705   C     0.85938   0.34023   0.85864   0.00000  Uiso   1.00
C706   C     0.84471   0.30964   0.88417   0.00000  Uiso   1.00
C707   C     0.90881   0.03645   0.25034   0.00000  Uiso   1.00
C708   C     0.91798   0.49838   0.23538   0.00000  Uiso   1.00
C709   C     0.93667   0.47544   0.26655   0.00000  Uiso   1.00
C710   C     0.62280   0.43560   0.82905   0.00000  Uiso   1.00
C711   C     0.59198   0.42095   0.85469   0.00000  Uiso   1.00
C712   C     0.60155   0.42397   0.89774   0.00000  Uiso   1.00
C713   C     0.94788   0.38829   0.18377   0.00000  Uiso   1.00
C714   C     0.99333   0.28234   0.45811   0.00000  Uiso   1.00
C715   C     0.94093   0.42327   0.16068   0.00000  Uiso   1.00
C716   C     0.97587   0.44522   0.15569   0.00000  Uiso   1.00
C717   C     0.60585   0.17142   0.83711   0.00000  Uiso   1.00
C718   C     0.64061   0.15977   0.85863   0.00000  Uiso   1.00
C719   C     0.65528   0.19036   0.88416   0.00000  Uiso   1.00
C720   C     0.61169   0.05211   0.81621   0.00000  Uiso   1.00
C721   C     0.57672   0.05905   0.83931   0.00000  Uiso   1.00
C722   C     0.55477   0.02411   0.84429   0.00000  Uiso   1.00
C723   C     0.82856   0.39413   0.16290   0.00000  Uiso   1.00
C724   C     0.84021   0.35937   0.14138   0.00000  Uiso   1.00
C725   C     0.71766   0.00668   0.54189   0.00000  Uiso   1.00
C726   C     0.80961   0.34470   0.11586   0.00000  Uiso   1.00
C727   C     0.53645   0.40879   0.74965   0.00000  Uiso   1.00
C728   C     0.99838   0.41800   0.76462   0.00000  Uiso   1.00
C729   C     0.97544   0.43667   0.73344   0.00000  Uiso   1.00
C730   C     0.93559   0.12281   0.17094   0.00000  Uiso   1.00
C731   C     0.92092   0.09200   0.14531   0.00000  Uiso   1.00
C732   C     0.92393   0.10157   0.10225   0.00000  Uiso   1.00
C733   C     0.88830   0.44788   0.81623   0.00000  Uiso   1.00
C734   C     0.92327   0.44093   0.83932   0.00000  Uiso   1.00
C735   C     0.94523   0.47587   0.84431   0.00000  Uiso   1.00
C736   C     0.72408   0.47973   0.45884   0.00000  Uiso   1.00
C737   C     0.67140   0.10580   0.16288   0.00000  Uiso   1.00
C738   C     0.65977   0.14059   0.14139   0.00000  Uiso   1.00
C739   C     0.69036   0.15524   0.11586   0.00000  Uiso   1.00
C740   C     0.96355   0.09121   0.74964   0.00000  Uiso   1.00
C741   C     0.50162   0.08201   0.76460   0.00000  Uiso   1.00
C742   C     0.52457   0.06334   0.73342   0.00000  Uiso   1.00
C743   C     0.56439   0.37721   0.17096   0.00000  Uiso   1.00
C744   C     0.57903   0.40803   0.14532   0.00000  Uiso   1.00
C745   C     0.57601   0.39846   0.10227   0.00000  Uiso   1.00
C746   C     0.84118   0.21354   0.75034   0.00000  Uiso   1.00
C747   C     0.72936   0.47355   0.08178   0.00000  Uiso   1.00
C748   C     0.83205   0.25163   0.73540   0.00000  Uiso   1.00
C749   C     0.81333   0.27457   0.76656   0.00000  Uiso   1.00
C750   C     0.62719   0.31441   0.32906   0.00000  Uiso   1.00
C751   C     0.65800   0.32908   0.35469   0.00000  Uiso   1.00
C752   C     0.64843   0.32606   0.39775   0.00000  Uiso   1.00
C753   C     0.80211   0.36170   0.68378   0.00000  Uiso   1.00
C754   C     0.80906   0.32673   0.66068   0.00000  Uiso   1.00
C755   C     0.77413   0.30477   0.65570   0.00000  Uiso   1.00
C756   C     0.64419   0.07861   0.33712   0.00000  Uiso   1.00
C757   C     0.60941   0.09024   0.35862   0.00000  Uiso   1.00
C758   C     0.75677   0.46720   0.91752   0.00000  Uiso   1.00
C759   C     0.59475   0.05964   0.38414   0.00000  Uiso   1.00
C760   C     0.65878   0.28644   0.75036   0.00000  Uiso   1.00
C761   C     0.66800   0.24838   0.73540   0.00000  Uiso   1.00
C762   C     0.68666   0.22543   0.76658   0.00000  Uiso   1.00
C763   C     0.87279   0.18561   0.32904   0.00000  Uiso   1.00
C764   C     0.84197   0.17097   0.35467   0.00000  Uiso   1.00
C765   C     0.85153   0.17399   0.39773   0.00000  Uiso   1.00
C766   C     0.69789   0.13830   0.68379   0.00000  Uiso   1.00
C767   C     0.69095   0.17328   0.66069   0.00000  Uiso   1.00
C768   C     0.72589   0.19523   0.65571   0.00000  Uiso   1.00
C769   C     0.53280   0.24322   0.08248   0.00000  Uiso   1.00
C770   C     0.85587   0.42144   0.33710   0.00000  Uiso   1.00
C771   C     0.89063   0.40978   0.35862   0.00000  Uiso   1.00
C772   C     0.90530   0.44038   0.38415   0.00000  Uiso   1.00
C773   C     0.86171   0.30212   0.31623   0.00000  Uiso   1.00
C774   C     0.82673   0.30907   0.33932   0.00000  Uiso   1.00
C775   C     0.80478   0.27413   0.34431   0.00000  Uiso   1.00
C776   C     0.57858   0.14415   0.66289   0.00000  Uiso   1.00
C777   C     0.59023   0.10939   0.64137   0.00000  Uiso   1.00
C778   C     0.55964   0.09473   0.61584   0.00000  Uiso   1.00
C779   C     0.78642   0.15872   0.24960   0.00000  Uiso   1.00
C780   C     0.75667   0.46766   0.95811   0.00000  Uiso   1.00
C781   C     0.52645   0.27063   0.91823   0.00000  Uiso   1.00
C782   C     0.74841   0.16808   0.26461   0.00000  Uiso   1.00
C783   C     0.72544   0.18666   0.23339   0.00000  Uiso   1.00
C784   C     0.68560   0.37280   0.67095   0.00000  Uiso   1.00
C785   C     0.67095   0.34198   0.64532   0.00000  Uiso   1.00
C786   C     0.67397   0.35155   0.60226   0.00000  Uiso   1.00
C787   C     0.63831   0.19791   0.31620   0.00000  Uiso   1.00
C788   C     0.67329   0.19098   0.33928   0.00000  Uiso   1.00
C789   C     0.69523   0.22593   0.34426   0.00000  Uiso   1.00
C790   C     0.92143   0.35586   0.66290   0.00000  Uiso   1.00
C791   C     0.90978   0.39062   0.64138   0.00000  Uiso   1.00
C792   C     0.77064   0.02645   0.08177   0.00000  Uiso   1.00
C793   C     0.94038   0.40529   0.61585   0.00000  Uiso   1.00
C794   C     0.71355   0.34120   0.24966   0.00000  Uiso   1.00
C795   C     0.75162   0.33200   0.26462   0.00000  Uiso   1.00
C796   C     0.77456   0.31332   0.23345   0.00000  Uiso   1.00
C797   C     0.81440   0.12719   0.67095   0.00000  Uiso   1.00
C798   C     0.82906   0.15801   0.64531   0.00000  Uiso   1.00
C799   C     0.82604   0.14844   0.60226   0.00000  Uiso   1.00
C800   C     0.70712   0.44408   0.10176   0.00000  Uiso   1.00
C801   C     0.73130   0.41541   0.12104   0.00000  Uiso   1.00
C802   C     0.76375   0.43140   0.89681   0.00000  Uiso   1.00
C803   C     0.74323   0.03280   0.91752   0.00000  Uiso   1.00
C804   C     0.72820   0.41403   0.88325   0.00000  Uiso   1.00
C805   C     0.56859   0.23623   0.10319   0.00000  Uiso   1.00
C806   C     0.58597   0.27177   0.11676   0.00000  Uiso   1.00
C807   C     0.55592   0.29288   0.89824   0.00000  Uiso   1.00
C808   C     0.58459   0.26870   0.87896   0.00000  Uiso   1.00
C809   C     0.79288   0.05592   0.10176   0.00000  Uiso   1.00
C810   C     0.76869   0.08459   0.12104   0.00000  Uiso   1.00
C811   C     0.73626   0.06860   0.89681   0.00000  Uiso   1.00
C812   C     0.77180   0.08597   0.88325   0.00000  Uiso   1.00
C813   C     0.93141   0.26377   0.10319   0.00000  Uiso   1.00
C814   C     0.96720   0.25678   0.08248   0.00000  Uiso   1.00
C815   C     0.91403   0.22823   0.11676   0.00000  Uiso   1.00
C816   C     0.94408   0.20712   0.89824   0.00000  Uiso   1.00
C817   C     0.91541   0.23130   0.87895   0.00000  Uiso   1.00
C818   C     0.95712   0.19408   0.60176   0.00000  Uiso   1.00
C819   C     0.98130   0.16541   0.62104   0.00000  Uiso   1.00
C820   C     0.51376   0.18140   0.39681   0.00000  Uiso   1.00
C821   C     0.97821   0.16403   0.38325   0.00000  Uiso   1.00
C822   C     0.81859   0.48623   0.60319   0.00000  Uiso   1.00
C823   C     0.83597   0.02176   0.61676   0.00000  Uiso   1.00
C824   C     0.80592   0.04288   0.39824   0.00000  Uiso   1.00
C825   C     0.97355   0.22937   0.91823   0.00000  Uiso   1.00
C826   C     0.83459   0.01869   0.37895   0.00000  Uiso   1.00
C827   C     0.54288   0.30592   0.60176   0.00000  Uiso   1.00
C828   C     0.51870   0.33459   0.62104   0.00000  Uiso   1.00
C829   C     0.98624   0.31860   0.39681   0.00000  Uiso   1.00
C830   C     0.52179   0.33597   0.38325   0.00000  Uiso   1.00
C831   C     0.68141   0.01377   0.60319   0.00000  Uiso   1.00
C832   C     0.66403   0.47824   0.61676   0.00000  Uiso   1.00
C833   C     0.69408   0.45713   0.39824   0.00000  Uiso   1.00
C834   C     0.66540   0.48131   0.37896   0.00000  Uiso   1.00
C835   C     0.97936   0.22355   0.58178   0.00000  Uiso   1.00
C836   C     0.50677   0.21720   0.41752   0.00000  Uiso   1.00
C837   C     0.78280   0.49322   0.58248   0.00000  Uiso   1.00
C838   C     0.77645   0.02063   0.41823   0.00000  Uiso   1.00
C839   C     0.52064   0.27645   0.58177   0.00000  Uiso   1.00
C840   C     0.53234   0.24332   0.04189   0.00000  Uiso   1.00
C841   C     0.99323   0.28280   0.41752   0.00000  Uiso   1.00
C842   C     0.71720   0.00678   0.58248   0.00000  Uiso   1.00
C843   C     0.72355   0.47937   0.41823   0.00000  Uiso   1.00
C844   C     0.75000  -0.00000   0.02095   0.00000  Uiso   1.00
C845   C     0.75000   0.00000   0.97837   0.00000  Uiso   1.00
C846   C     0.50000   0.25000   0.02163   0.00000  Uiso   1.00
C847   C     0.50000   0.25000   0.97905   0.00000  Uiso   1.00
C848   C     0.50000   0.25000   0.52095   0.00000  Uiso   1.00
C849   C     0.50000   0.25000   0.47837   0.00000  Uiso   1.00
C850   C     0.75000  -0.00000   0.52163   0.00000  Uiso   1.00
C851   C     0.52592   0.27027   0.95884   0.00000  Uiso   1.00
C852   C     0.75000  -0.00000   0.47905   0.00000  Uiso   1.00
C853   C     0.75000   0.00000   0.35515   0.00000  Uiso   1.00
C854   C     0.75000   0.00000   0.64503   0.00000  Uiso   1.00
C855   C     0.50000   0.25000   0.35497   0.00000  Uiso   1.00
C856   C     0.50000   0.25000   0.64485   0.00000  Uiso   1.00
C857   C     0.50000   0.25000   0.85515   0.00000  Uiso   1.00
C858   C     0.50000   0.25000   0.14503   0.00000  Uiso   1.00
C859   C     0.75000  -0.00000   0.85497   0.00000  Uiso   1.00
C860   C     0.75000   0.00000   0.14485   0.00000  Uiso   1.00
C861   C     0.68001   0.06999   0.25000   0.00000  Uiso   1.00
C862   C     0.77027   0.02592   0.04116   0.00000  Uiso   1.00
C863   C     0.82011   0.42989   0.75000   0.00000  Uiso   1.00
C864   C     0.92989   0.17989   0.25000   0.00000  Uiso   1.00
C865   C     0.57002   0.32002   0.75000   0.00000  Uiso   1.00
C866   C     0.81999   0.43001   0.25000   0.00000  Uiso   1.00
C867   C     0.67989   0.07011   0.75000   0.00000  Uiso   1.00
C868   C     0.57011   0.32011   0.25000   0.00000  Uiso   1.00
C869   C     0.92998   0.17998   0.75000   0.00000  Uiso   1.00
C870   C     0.67989   0.42989   0.75000   0.00000  Uiso   1.00
C871   C     0.82002   0.07002   0.25000   0.00000  Uiso   1.00
C872   C     0.93001   0.31999   0.75000   0.00000  Uiso   1.00
C873   C     0.74333   0.03234   0.95811   0.00000  Uiso   1.00
C874   C     0.57011   0.17989   0.25000   0.00000  Uiso   1.00
C875   C     0.82011   0.07011   0.75000   0.00000  Uiso   1.00
C876   C     0.67998   0.42998   0.25000   0.00000  Uiso   1.00
C877   C     0.56999   0.18001   0.75000   0.00000  Uiso   1.00
C878   C     0.92989   0.32011   0.25000   0.00000  Uiso   1.00
C879   C     0.61742   0.40959   0.23434   0.00000  Uiso   1.00
C880   C     0.88162   0.09221   0.76958   0.00000  Uiso   1.00
C881   C     0.60347   0.12971   0.21671   0.00000  Uiso   1.00
C882   C     0.89421   0.36706   0.78448   0.00000  Uiso   1.00
C883   C     0.88258   0.09041   0.23433   0.00000  Uiso   1.00
C884   C     0.96766   0.25668   0.04189   0.00000  Uiso   1.00
C885   C     0.61838   0.40779   0.76958   0.00000  Uiso   1.00
C886   C     0.89651   0.37028   0.21670   0.00000  Uiso   1.00
C887   C     0.60579   0.13293   0.78448   0.00000  Uiso   1.00
C888   C     0.62972   0.10348   0.78330   0.00000  Uiso   1.00
C889   C     0.86706   0.39421   0.21552   0.00000  Uiso   1.00
C890   C     0.59041   0.38258   0.76566   0.00000  Uiso   1.00
C891   C     0.90779   0.11838   0.23041   0.00000  Uiso   1.00
C892   C     0.87028   0.39651   0.78330   0.00000  Uiso   1.00
C893   C     0.63292   0.10578   0.21552   0.00000  Uiso   1.00
C894   C     0.90959   0.11742   0.76566   0.00000  Uiso   1.00
C895   C     0.97408   0.22973   0.95884   0.00000  Uiso   1.00
C896   C     0.59221   0.38162   0.23042   0.00000  Uiso   1.00
C897   C     0.86742   0.15959   0.73433   0.00000  Uiso   1.00
C898   C     0.63162   0.34221   0.26959   0.00000  Uiso   1.00
C899   C     0.85349   0.37972   0.71670   0.00000  Uiso   1.00
C900   C     0.64422   0.11708   0.28448   0.00000  Uiso   1.00
C901   C     0.63258   0.34041   0.73434   0.00000  Uiso   1.00
C902   C     0.86838   0.15779   0.26958   0.00000  Uiso   1.00
C903   C     0.64652   0.12028   0.71670   0.00000  Uiso   1.00
C904   C     0.85579   0.38294   0.28448   0.00000  Uiso   1.00
C905   C     0.87972   0.35349   0.28330   0.00000  Uiso   1.00
C906   C     0.97973   0.22408   0.54116   0.00000  Uiso   1.00
C907   C     0.61707   0.14421   0.71552   0.00000  Uiso   1.00
C908   C     0.84041   0.13258   0.26566   0.00000  Uiso   1.00
C909   C     0.65779   0.36838   0.73042   0.00000  Uiso   1.00
C910   C     0.62029   0.14653   0.28329   0.00000  Uiso   1.00
C911   C     0.88294   0.35579   0.71552   0.00000  Uiso   1.00
C912   C     0.65959   0.36742   0.26567   0.00000  Uiso   1.00
C913   C     0.84221   0.13162   0.73042   0.00000  Uiso   1.00
C914   C     0.59825   0.34825   0.25000   0.00000  Uiso   1.00
C915   C     0.90200   0.15200   0.75000   0.00000  Uiso   1.00
C916   C     0.65204   0.09796   0.25000   0.00000  Uiso   1.00
H917   H     0.71401   0.45423   0.02500   0.00000  Uiso   1.00
H918   H     0.51195   0.19276   0.47409   0.00000  Uiso   1.00
H919   H     0.95290   0.10550   0.09399   0.00000  Uiso   1.00
H920   H     0.87320   0.47046   0.83049   0.00000  Uiso   1.00
H921   H     0.89506   0.45759   0.78631   0.00000  Uiso   1.00
H922   H     0.91635   0.42982   0.86845   0.00000  Uiso   1.00
H923   H     0.94040   0.42077   0.82377   0.00000  Uiso   1.00
H924   H     0.95182   0.48790   0.81551   0.00000  Uiso   1.00
H925   H     0.97109   0.46972   0.85972   0.00000  Uiso   1.00
H926   H     0.92955   0.49592   0.86176   0.00000  Uiso   1.00
H927   H     0.68279   0.08632   0.14135   0.00000  Uiso   1.00
H928   H     0.69377   0.11182   0.18379   0.00000  Uiso   1.00
H929   H     0.80724   0.48803   0.52591   0.00000  Uiso   1.00
H930   H     0.63569   0.13474   0.12284   0.00000  Uiso   1.00
H931   H     0.65219   0.16191   0.16284   0.00000  Uiso   1.00
H932   H     0.71531   0.15993   0.13340   0.00000  Uiso   1.00
H933   H     0.68178   0.18147   0.10264   0.00000  Uiso   1.00
H934   H     0.69651   0.13570   0.09211   0.00000  Uiso   1.00
H935   H     0.96620   0.10941   0.72383   0.00000  Uiso   1.00
H936   H     0.94984   0.06544   0.74082   0.00000  Uiso   1.00
H937   H     0.51547   0.10743   0.77387   0.00000  Uiso   1.00
H938   H     0.99930   0.06370   0.79021   0.00000  Uiso   1.00
H939   H     0.51208   0.03698   0.72497   0.00000  Uiso   1.00
H940   H     0.79577   0.03599   0.47500   0.00000  Uiso   1.00
H941   H     0.55232   0.05805   0.74487   0.00000  Uiso   1.00
H942   H     0.52690   0.08101   0.70736   0.00000  Uiso   1.00
H943   H     0.53696   0.36945   0.16025   0.00000  Uiso   1.00
H944   H     0.58185   0.35244   0.16769   0.00000  Uiso   1.00
H945   H     0.56350   0.43347   0.15108   0.00000  Uiso   1.00
H946   H     0.60816   0.41290   0.15220   0.00000  Uiso   1.00
H947   H     0.59153   0.37316   0.09589   0.00000  Uiso   1.00
H948   H     0.58741   0.42097   0.08452   0.00000  Uiso   1.00
H949   H     0.54704   0.39452   0.09402   0.00000  Uiso   1.00
H950   H     0.85934   0.21615   0.77619   0.00000  Uiso   1.00
H951   H     0.53599   0.29577   0.52500   0.00000  Uiso   1.00
H952   H     0.81539   0.19985   0.75909   0.00000  Uiso   1.00
H953   H     0.85751   0.26547   0.72621   0.00000  Uiso   1.00
H954   H     0.81380   0.24936   0.70974   0.00000  Uiso   1.00
H955   H     0.78692   0.26213   0.77487   0.00000  Uiso   1.00
H956   H     0.80815   0.30235   0.75514   0.00000  Uiso   1.00
H957   H     0.83091   0.27681   0.79268   0.00000  Uiso   1.00
H958   H     0.61944   0.28698   0.33978   0.00000  Uiso   1.00
H959   H     0.60242   0.33186   0.33231   0.00000  Uiso   1.00
H960   H     0.68345   0.31355   0.34895   0.00000  Uiso   1.00
H961   H     0.66286   0.35820   0.34781   0.00000  Uiso   1.00
H962   H     0.98804   0.30724   0.47409   0.00000  Uiso   1.00
H963   H     0.62311   0.34157   0.40411   0.00000  Uiso   1.00
H964   H     0.67093   0.33748   0.41550   0.00000  Uiso   1.00
H965   H     0.64450   0.29710   0.40601   0.00000  Uiso   1.00
H966   H     0.77954   0.37680   0.66953   0.00000  Uiso   1.00
H967   H     0.79242   0.35493   0.71369   0.00000  Uiso   1.00
H968   H     0.82016   0.33366   0.63154   0.00000  Uiso   1.00
H969   H     0.82923   0.30960   0.67621   0.00000  Uiso   1.00
H970   H     0.76211   0.29817   0.68450   0.00000  Uiso   1.00
H971   H     0.78027   0.27892   0.64028   0.00000  Uiso   1.00
H972   H     0.75407   0.32045   0.63826   0.00000  Uiso   1.00
H973   H     0.69276   0.01197   0.52591   0.00000  Uiso   1.00
H974   H     0.66367   0.06721   0.35865   0.00000  Uiso   1.00
H975   H     0.63817   0.05623   0.31621   0.00000  Uiso   1.00
H976   H     0.61527   0.11431   0.37717   0.00000  Uiso   1.00
H977   H     0.58809   0.09782   0.33716   0.00000  Uiso   1.00
H978   H     0.59006   0.03470   0.36660   0.00000  Uiso   1.00
H979   H     0.56853   0.06823   0.39737   0.00000  Uiso   1.00
H980   H     0.61430   0.05350   0.40789   0.00000  Uiso   1.00
H981   H     0.64057   0.28379   0.77616   0.00000  Uiso   1.00
H982   H     0.68454   0.30016   0.75920   0.00000  Uiso   1.00
H983   H     0.64258   0.23453   0.72611   0.00000  Uiso   1.00
H984   H     0.70423   0.46401   0.47500   0.00000  Uiso   1.00
H985   H     0.68632   0.25071   0.70980   0.00000  Uiso   1.00
H986   H     0.71300   0.23793   0.77506   0.00000  Uiso   1.00
H987   H     0.69196   0.19769   0.75512   0.00000  Uiso   1.00
H988   H     0.66897   0.22308   0.79262   0.00000  Uiso   1.00
H989   H     0.88055   0.21305   0.33975   0.00000  Uiso   1.00
H990   H     0.89755   0.16816   0.33231   0.00000  Uiso   1.00
H991   H     0.81653   0.18650   0.34892   0.00000  Uiso   1.00
H992   H     0.83709   0.14184   0.34780   0.00000  Uiso   1.00
H993   H     0.87684   0.15847   0.40411   0.00000  Uiso   1.00
H994   H     0.82903   0.16259   0.41548   0.00000  Uiso   1.00
H995   H     0.60955   0.46629   0.27612   0.00000  Uiso   1.00
H996   H     0.85548   0.20296   0.40598   0.00000  Uiso   1.00
H997   H     0.72047   0.12321   0.66953   0.00000  Uiso   1.00
H998   H     0.70759   0.14507   0.71370   0.00000  Uiso   1.00
H999   H     0.67984   0.16636   0.63156   0.00000  Uiso   1.00
H1000  H     0.67079   0.19040   0.67623   0.00000  Uiso   1.00
H1001  H     0.73792   0.20182   0.68451   0.00000  Uiso   1.00
H1002  H     0.71975   0.22109   0.64030   0.00000  Uiso   1.00
H1003  H     0.74594   0.17955   0.63826   0.00000  Uiso   1.00
H1004  H     0.83640   0.43287   0.35862   0.00000  Uiso   1.00
H1005  H     0.86193   0.44379   0.31617   0.00000  Uiso   1.00
H1006  H     0.56555   0.44982   0.25934   0.00000  Uiso   1.00
H1007  H     0.88475   0.38572   0.37718   0.00000  Uiso   1.00
H1008  H     0.91196   0.40218   0.33718   0.00000  Uiso   1.00
H1009  H     0.91002   0.46532   0.36659   0.00000  Uiso   1.00
H1010  H     0.93152   0.43177   0.39739   0.00000  Uiso   1.00
H1011  H     0.88576   0.44655   0.40788   0.00000  Uiso   1.00
H1012  H     0.87680   0.27954   0.33049   0.00000  Uiso   1.00
H1013  H     0.85494   0.29241   0.28632   0.00000  Uiso   1.00
H1014  H     0.83365   0.32018   0.36845   0.00000  Uiso   1.00
H1015  H     0.80961   0.32923   0.32377   0.00000  Uiso   1.00
H1016  H     0.79818   0.26210   0.31552   0.00000  Uiso   1.00
H1017  H     0.60729   0.01547   0.22598   0.00000  Uiso   1.00
H1018  H     0.77892   0.28028   0.35972   0.00000  Uiso   1.00
H1019  H     0.82046   0.25409   0.36177   0.00000  Uiso   1.00
H1020  H     0.56715   0.16363   0.64138   0.00000  Uiso   1.00
H1021  H     0.55623   0.13809   0.68382   0.00000  Uiso   1.00
H1022  H     0.61429   0.11527   0.62281   0.00000  Uiso   1.00
H1023  H     0.59784   0.08806   0.66280   0.00000  Uiso   1.00
H1024  H     0.53470   0.09001   0.63339   0.00000  Uiso   1.00
H1025  H     0.56824   0.06851   0.60259   0.00000  Uiso   1.00
H1026  H     0.55348   0.11428   0.59210   0.00000  Uiso   1.00
H1027  H     0.78368   0.14042   0.22389   0.00000  Uiso   1.00
H1028  H     0.76195   0.44276   0.97409   0.00000  Uiso   1.00
H1029  H     0.56352   0.49919   0.20987   0.00000  Uiso   1.00
H1030  H     0.80018   0.18442   0.24062   0.00000  Uiso   1.00
H1031  H     0.73452   0.14273   0.27405   0.00000  Uiso   1.00
H1032  H     0.75083   0.18651   0.29011   0.00000  Uiso   1.00
H1033  H     0.73802   0.21289   0.22468   0.00000  Uiso   1.00
H1034  H     0.69776   0.19216   0.24492   0.00000  Uiso   1.00
H1035  H     0.72292   0.16883   0.20748   0.00000  Uiso   1.00
H1036  H     0.71304   0.38055   0.66024   0.00000  Uiso   1.00
H1037  H     0.66815   0.39756   0.66769   0.00000  Uiso   1.00
H1038  H     0.68648   0.31654   0.65107   0.00000  Uiso   1.00
H1039  H     0.64183   0.33711   0.65220   0.00000  Uiso   1.00
H1040  H     0.53710   0.01198   0.27528   0.00000  Uiso   1.00
H1041  H     0.65846   0.37686   0.59589   0.00000  Uiso   1.00
H1042  H     0.66257   0.32904   0.58451   0.00000  Uiso   1.00
H1043  H     0.70294   0.35549   0.59401   0.00000  Uiso   1.00
H1044  H     0.62321   0.22049   0.33044   0.00000  Uiso   1.00
H1045  H     0.64507   0.20761   0.28628   0.00000  Uiso   1.00
H1046  H     0.66638   0.17987   0.36842   0.00000  Uiso   1.00
H1047  H     0.69043   0.17083   0.32374   0.00000  Uiso   1.00
H1048  H     0.70182   0.23796   0.31546   0.00000  Uiso   1.00
H1049  H     0.72110   0.21979   0.35967   0.00000  Uiso   1.00
H1050  H     0.67955   0.24597   0.36172   0.00000  Uiso   1.00
H1051  H     0.55785   0.05225   0.25507   0.00000  Uiso   1.00
H1052  H     0.93286   0.33638   0.64138   0.00000  Uiso   1.00
H1053  H     0.94378   0.36192   0.68382   0.00000  Uiso   1.00
H1054  H     0.88572   0.38474   0.62282   0.00000  Uiso   1.00
H1055  H     0.90218   0.41195   0.66281   0.00000  Uiso   1.00
H1056  H     0.96531   0.41001   0.63340   0.00000  Uiso   1.00
H1057  H     0.93177   0.43151   0.60261   0.00000  Uiso   1.00
H1058  H     0.94654   0.38574   0.59211   0.00000  Uiso   1.00
H1059  H     0.71620   0.35940   0.22384   0.00000  Uiso   1.00
H1060  H     0.69983   0.31544   0.24084   0.00000  Uiso   1.00
H1061  H     0.76547   0.35742   0.27389   0.00000  Uiso   1.00
H1062  H     0.58115   0.02707   0.29252   0.00000  Uiso   1.00
H1063  H     0.74929   0.31369   0.29023   0.00000  Uiso   1.00
H1064  H     0.76207   0.28696   0.22500   0.00000  Uiso   1.00
H1065  H     0.80231   0.30802   0.24491   0.00000  Uiso   1.00
H1066  H     0.77691   0.33099   0.20739   0.00000  Uiso   1.00
H1067  H     0.78697   0.11944   0.66024   0.00000  Uiso   1.00
H1068  H     0.83186   0.10243   0.66769   0.00000  Uiso   1.00
H1069  H     0.81353   0.18345   0.65106   0.00000  Uiso   1.00
H1070  H     0.85818   0.16288   0.65219   0.00000  Uiso   1.00
H1071  H     0.84155   0.12313   0.59589   0.00000  Uiso   1.00
H1072  H     0.83745   0.17094   0.58450   0.00000  Uiso   1.00
H1073  H     0.86945   0.03696   0.83975   0.00000  Uiso   1.00
H1074  H     0.79707   0.14450   0.59400   0.00000  Uiso   1.00
H1075  H     0.75023   0.40356   0.09929   0.00000  Uiso   1.00
H1076  H     0.74724   0.42719   0.14533   0.00000  Uiso   1.00
H1077  H     0.71408   0.39325   0.13298   0.00000  Uiso   1.00
H1078  H     0.68806   0.45605   0.12326   0.00000  Uiso   1.00
H1079  H     0.68956   0.42975   0.08035   0.00000  Uiso   1.00
H1080  H     0.70985   0.40937   0.90843   0.00000  Uiso   1.00
H1081  H     0.71412   0.43164   0.86176   0.00000  Uiso   1.00
H1082  H     0.73412   0.38742   0.86926   0.00000  Uiso   1.00
H1083  H     0.78226   0.43542   0.87165   0.00000  Uiso   1.00
H1084  H     0.85244   0.08185   0.83231   0.00000  Uiso   1.00
H1085  H     0.77776   0.41191   0.91655   0.00000  Uiso   1.00
H1086  H     0.59064   0.29013   0.09158   0.00000  Uiso   1.00
H1087  H     0.56837   0.28585   0.13825   0.00000  Uiso   1.00
H1088  H     0.61258   0.26584   0.13074   0.00000  Uiso   1.00
H1089  H     0.56457   0.21772   0.12835   0.00000  Uiso   1.00
H1090  H     0.58808   0.22221   0.08345   0.00000  Uiso   1.00
H1091  H     0.59644   0.24977   0.90072   0.00000  Uiso   1.00
H1092  H     0.57281   0.25275   0.85468   0.00000  Uiso   1.00
H1093  H     0.60675   0.28592   0.86702   0.00000  Uiso   1.00
H1094  H     0.54395   0.31193   0.87673   0.00000  Uiso   1.00
H1095  H     0.93347   0.06350   0.84892   0.00000  Uiso   1.00
H1096  H     0.57025   0.31044   0.91965   0.00000  Uiso   1.00
H1097  H     0.74978   0.09645   0.09927   0.00000  Uiso   1.00
H1098  H     0.75274   0.07281   0.14531   0.00000  Uiso   1.00
H1099  H     0.78592   0.10675   0.13299   0.00000  Uiso   1.00
H1100  H     0.81193   0.04395   0.12327   0.00000  Uiso   1.00
H1101  H     0.81044   0.07025   0.08035   0.00000  Uiso   1.00
H1102  H     0.79016   0.09063   0.90844   0.00000  Uiso   1.00
H1103  H     0.78588   0.06836   0.86177   0.00000  Uiso   1.00
H1104  H     0.76588   0.11258   0.86926   0.00000  Uiso   1.00
H1105  H     0.71775   0.06458   0.87165   0.00000  Uiso   1.00
H1106  H     0.91290   0.10816   0.84780   0.00000  Uiso   1.00
H1107  H     0.72224   0.08809   0.91655   0.00000  Uiso   1.00
H1108  H     0.90936   0.20987   0.09158   0.00000  Uiso   1.00
H1109  H     0.93163   0.21415   0.13825   0.00000  Uiso   1.00
H1110  H     0.88742   0.23416   0.13075   0.00000  Uiso   1.00
H1111  H     0.93543   0.28228   0.12835   0.00000  Uiso   1.00
H1112  H     0.91192   0.27779   0.08345   0.00000  Uiso   1.00
H1113  H     0.90356   0.25023   0.90071   0.00000  Uiso   1.00
H1114  H     0.92719   0.24724   0.85467   0.00000  Uiso   1.00
H1115  H     0.89325   0.21407   0.86702   0.00000  Uiso   1.00
H1116  H     0.95605   0.18806   0.87674   0.00000  Uiso   1.00
H1117  H     0.87315   0.09154   0.90411   0.00000  Uiso   1.00
H1118  H     0.92975   0.18956   0.91965   0.00000  Uiso   1.00
H1119  H     0.50023   0.15356   0.59928   0.00000  Uiso   1.00
H1120  H     0.99725   0.17719   0.64533   0.00000  Uiso   1.00
H1121  H     0.96408   0.14325   0.63299   0.00000  Uiso   1.00
H1122  H     0.93807   0.20605   0.62327   0.00000  Uiso   1.00
H1123  H     0.93956   0.17975   0.58035   0.00000  Uiso   1.00
H1124  H     0.95986   0.15936   0.40843   0.00000  Uiso   1.00
H1125  H     0.96414   0.18163   0.36176   0.00000  Uiso   1.00
H1126  H     0.98414   0.13742   0.36926   0.00000  Uiso   1.00
H1127  H     0.53227   0.18542   0.37165   0.00000  Uiso   1.00
H1128  H     0.92097   0.08741   0.91549   0.00000  Uiso   1.00
H1129  H     0.52777   0.16191   0.41655   0.00000  Uiso   1.00
H1130  H     0.84064   0.04012   0.59158   0.00000  Uiso   1.00
H1131  H     0.81837   0.03584   0.63825   0.00000  Uiso   1.00
H1132  H     0.86258   0.01583   0.63075   0.00000  Uiso   1.00
H1133  H     0.81457   0.46771   0.62835   0.00000  Uiso   1.00
H1134  H     0.83808   0.47221   0.58345   0.00000  Uiso   1.00
H1135  H     0.84644   0.49977   0.40071   0.00000  Uiso   1.00
H1136  H     0.82281   0.00276   0.35467   0.00000  Uiso   1.00
H1137  H     0.85675   0.03592   0.36702   0.00000  Uiso   1.00
H1138  H     0.79395   0.06193   0.37674   0.00000  Uiso   1.00
H1139  H     0.55724   0.23804   0.02591   0.00000  Uiso   1.00
H1140  H     0.89451   0.04705   0.90598   0.00000  Uiso   1.00
H1141  H     0.82026   0.06044   0.41965   0.00000  Uiso   1.00
H1142  H     0.99978   0.34644   0.59929   0.00000  Uiso   1.00
H1143  H     0.50276   0.32281   0.64533   0.00000  Uiso   1.00
H1144  H     0.53593   0.35675   0.63299   0.00000  Uiso   1.00
H1145  H     0.56194   0.29395   0.62326   0.00000  Uiso   1.00
H1146  H     0.56044   0.32025   0.58035   0.00000  Uiso   1.00
H1147  H     0.54013   0.34065   0.40844   0.00000  Uiso   1.00
H1148  H     0.53587   0.31837   0.36177   0.00000  Uiso   1.00
H1149  H     0.51586   0.36258   0.36925   0.00000  Uiso   1.00
H1150  H     0.96773   0.31458   0.37165   0.00000  Uiso   1.00
H1151  H     0.52951   0.12679   0.16956   0.00000  Uiso   1.00
H1152  H     0.97222   0.33808   0.41655   0.00000  Uiso   1.00
H1153  H     0.65936   0.45988   0.59158   0.00000  Uiso   1.00
H1154  H     0.68163   0.46416   0.63825   0.00000  Uiso   1.00
H1155  H     0.63742   0.48417   0.63075   0.00000  Uiso   1.00
H1156  H     0.68543   0.03229   0.62835   0.00000  Uiso   1.00
H1157  H     0.66192   0.02779   0.58345   0.00000  Uiso   1.00
H1158  H     0.65355   0.00023   0.40073   0.00000  Uiso   1.00
H1159  H     0.67719   0.49726   0.35468   0.00000  Uiso   1.00
H1160  H     0.64325   0.46409   0.36701   0.00000  Uiso   1.00
H1161  H     0.70604   0.43807   0.37673   0.00000  Uiso   1.00
H1162  H     0.54240   0.10493   0.21372   0.00000  Uiso   1.00
H1163  H     0.67974   0.43956   0.41965   0.00000  Uiso   1.00
H1164  H     0.57012   0.08363   0.13157   0.00000  Uiso   1.00
H1165  H     0.57918   0.05958   0.17625   0.00000  Uiso   1.00
H1166  H     0.51205   0.04818   0.18453   0.00000  Uiso   1.00
H1167  H     0.53021   0.02891   0.14032   0.00000  Uiso   1.00
H1168  H     0.50403   0.07045   0.13828   0.00000  Uiso   1.00
H1169  H     0.91361   0.31712   0.85861   0.00000  Uiso   1.00
H1170  H     0.88805   0.30622   0.81617   0.00000  Uiso   1.00
H1171  H     0.54577   0.28599   0.97500   0.00000  Uiso   1.00
H1172  H     0.86527   0.36429   0.87719   0.00000  Uiso   1.00
H1173  H     0.83804   0.34784   0.83721   0.00000  Uiso   1.00
H1174  H     0.83998   0.28470   0.86662   0.00000  Uiso   1.00
H1175  H     0.81850   0.31825   0.89742   0.00000  Uiso   1.00
H1176  H     0.86426   0.30346   0.90790   0.00000  Uiso   1.00
H1177  H     0.89062   0.03382   0.27617   0.00000  Uiso   1.00
H1178  H     0.93458   0.05016   0.25913   0.00000  Uiso   1.00
H1179  H     0.89255   0.48453   0.22614   0.00000  Uiso   1.00
H1180  H     0.93627   0.00069   0.20976   0.00000  Uiso   1.00
H1181  H     0.96305   0.48791   0.27495   0.00000  Uiso   1.00
H1182  H     0.78599   0.04577   0.02500   0.00000  Uiso   1.00
H1183  H     0.94192   0.44767   0.25511   0.00000  Uiso   1.00
H1184  H     0.91904   0.47313   0.29263   0.00000  Uiso   1.00
H1185  H     0.63056   0.46303   0.83976   0.00000  Uiso   1.00
H1186  H     0.64757   0.41815   0.83231   0.00000  Uiso   1.00
H1187  H     0.56654   0.43648   0.84893   0.00000  Uiso   1.00
H1188  H     0.58712   0.39182   0.84781   0.00000  Uiso   1.00
H1189  H     0.62687   0.40845   0.90411   0.00000  Uiso   1.00
H1190  H     0.57905   0.41256   0.91550   0.00000  Uiso   1.00
H1191  H     0.60550   0.45294   0.90599   0.00000  Uiso   1.00
H1192  H     0.97046   0.37320   0.16951   0.00000  Uiso   1.00
H1193  H     0.73806   0.05724   0.97409   0.00000  Uiso   1.00
H1194  H     0.95759   0.39506   0.21368   0.00000  Uiso   1.00
H1195  H     0.92982   0.41635   0.13155   0.00000  Uiso   1.00
H1196  H     0.92077   0.44039   0.17622   0.00000  Uiso   1.00
H1197  H     0.98790   0.45182   0.18448   0.00000  Uiso   1.00
H1198  H     0.96972   0.47108   0.14028   0.00000  Uiso   1.00
H1199  H     0.99592   0.42954   0.13823   0.00000  Uiso   1.00
H1200  H     0.58637   0.18285   0.85863   0.00000  Uiso   1.00
H1201  H     0.61190   0.19378   0.81618   0.00000  Uiso   1.00
H1202  H     0.63473   0.13571   0.87718   0.00000  Uiso   1.00
H1203  H     0.66194   0.15217   0.83719   0.00000  Uiso   1.00
H1204  H     0.94276   0.26196   0.02591   0.00000  Uiso   1.00
H1205  H     0.65999   0.21530   0.86661   0.00000  Uiso   1.00
H1206  H     0.68149   0.18176   0.89740   0.00000  Uiso   1.00
H1207  H     0.63573   0.19653   0.90789   0.00000  Uiso   1.00
H1208  H     0.62679   0.02953   0.83047   0.00000  Uiso   1.00
H1209  H     0.60493   0.04241   0.78630   0.00000  Uiso   1.00
H1210  H     0.58364   0.07016   0.86844   0.00000  Uiso   1.00
H1211  H     0.55959   0.07921   0.82377   0.00000  Uiso   1.00
H1212  H     0.54818   0.01208   0.81549   0.00000  Uiso   1.00
H1213  H     0.52891   0.03026   0.85970   0.00000  Uiso   1.00
H1214  H     0.57045   0.00406   0.86174   0.00000  Uiso   1.00
H1215  H     0.95423   0.21401   0.97500   0.00000  Uiso   1.00
H1216  H     0.81713   0.41361   0.14138   0.00000  Uiso   1.00
H1217  H     0.80621   0.38808   0.18383   0.00000  Uiso   1.00
H1218  H     0.86427   0.36525   0.12282   0.00000  Uiso   1.00
H1219  H     0.84782   0.33804   0.16282   0.00000  Uiso   1.00
H1220  H     0.78468   0.33999   0.13341   0.00000  Uiso   1.00
H1221  H     0.81822   0.31848   0.10262   0.00000  Uiso   1.00
H1222  H     0.80345   0.36424   0.09212   0.00000  Uiso   1.00
H1223  H     0.53380   0.39059   0.72384   0.00000  Uiso   1.00
H1224  H     0.55016   0.43456   0.74082   0.00000  Uiso   1.00
H1225  H     0.98453   0.39257   0.77389   0.00000  Uiso   1.00
H1226  H     0.96401   0.20423   0.52501   0.00000  Uiso   1.00
H1227  H     0.50071   0.43631   0.79022   0.00000  Uiso   1.00
H1228  H     0.98793   0.46303   0.72499   0.00000  Uiso   1.00
H1229  H     0.94769   0.44197   0.74490   0.00000  Uiso   1.00
H1230  H     0.97309   0.41900   0.70739   0.00000  Uiso   1.00
H1231  H     0.96302   0.13056   0.16022   0.00000  Uiso   1.00
H1232  H     0.91814   0.14758   0.16769   0.00000  Uiso   1.00
H1233  H     0.93644   0.06655   0.15105   0.00000  Uiso   1.00
H1234  H     0.89179   0.08714   0.15219   0.00000  Uiso   1.00
H1235  H     0.90843   0.12689   0.09589   0.00000  Uiso   1.00
H1236  H     0.91252   0.07907   0.08450   0.00000  Uiso   1.00
O1237  O     0.75000   0.00000   0.25000   0.00000  Uiso   1.00
O1238  O     0.75000   0.46964   0.66317   0.00000  Uiso   1.00
O1239  O     0.96964   0.25000   0.33683   0.00000  Uiso   1.00
O1240  O     0.53036   0.25000   0.66317   0.00000  Uiso   1.00
O1241  O     0.50000   0.21964   0.83683   0.00000  Uiso   1.00
O1242  O     0.50000   0.28036   0.16317   0.00000  Uiso   1.00
O1243  O     0.78036   0.00000   0.83683   0.00000  Uiso   1.00
O1244  O     0.71964   0.00000   0.16317   0.00000  Uiso   1.00
O1245  O     0.50000   0.28036   0.83683   0.00000  Uiso   1.00
O1246  O     0.50000   0.21964   0.16317   0.00000  Uiso   1.00
O1247  O     0.71964   0.00000   0.83683   0.00000  Uiso   1.00
O1248  O     0.75000   0.00000   0.75000   0.00000  Uiso   1.00
O1249  O     0.78036   0.00000   0.16317   0.00000  Uiso   1.00
O1250  O     0.70726   0.07307   0.27282   0.00000  Uiso   1.00
O1251  O     0.79275   0.42693   0.72718   0.00000  Uiso   1.00
O1252  O     0.92693   0.20725   0.27282   0.00000  Uiso   1.00
O1253  O     0.57307   0.29274   0.72718   0.00000  Uiso   1.00
O1254  O     0.79275   0.42693   0.27282   0.00000  Uiso   1.00
O1255  O     0.70726   0.07307   0.72718   0.00000  Uiso   1.00
O1256  O     0.57307   0.29274   0.27282   0.00000  Uiso   1.00
O1257  O     0.92693   0.20725   0.72718   0.00000  Uiso   1.00
O1258  O     0.70726   0.42693   0.72718   0.00000  Uiso   1.00
O1259  O     0.50000   0.25000   0.25000   0.00000  Uiso   1.00
O1260  O     0.79275   0.07307   0.27282   0.00000  Uiso   1.00
O1261  O     0.92693   0.29274   0.72718   0.00000  Uiso   1.00
O1262  O     0.57307   0.20725   0.27282   0.00000  Uiso   1.00
O1263  O     0.79275   0.07307   0.72718   0.00000  Uiso   1.00
O1264  O     0.70726   0.42693   0.27282   0.00000  Uiso   1.00
O1265  O     0.57307   0.20725   0.72718   0.00000  Uiso   1.00
O1266  O     0.92693   0.29274   0.27282   0.00000  Uiso   1.00
O1267  O     0.95726   0.32307   0.77282   0.00000  Uiso   1.00
O1268  O     0.54275   0.17693   0.22718   0.00000  Uiso   1.00
O1269  O     0.67693   0.45725   0.77282   0.00000  Uiso   1.00
O1270  O     0.50000   0.25000   0.75000   0.00000  Uiso   1.00
O1271  O     0.82307   0.04275   0.22718   0.00000  Uiso   1.00
O1272  O     0.54275   0.17693   0.77282   0.00000  Uiso   1.00
O1273  O     0.95726   0.32307   0.22718   0.00000  Uiso   1.00
O1274  O     0.82307   0.04275   0.77282   0.00000  Uiso   1.00
O1275  O     0.67693   0.45725   0.22718   0.00000  Uiso   1.00
O1276  O     0.95726   0.17693   0.22718   0.00000  Uiso   1.00
O1277  O     0.54275   0.32307   0.77282   0.00000  Uiso   1.00
O1278  O     0.67693   0.04275   0.22718   0.00000  Uiso   1.00
O1279  O     0.82307   0.45725   0.77282   0.00000  Uiso   1.00
O1280  O     0.54275   0.32307   0.22718   0.00000  Uiso   1.00
O1281  O     0.75000   0.46964   0.33683   0.00000  Uiso   1.00
O1282  O     0.95726   0.17693   0.77282   0.00000  Uiso   1.00
O1283  O     0.82307   0.45725   0.22718   0.00000  Uiso   1.00
O1284  O     0.67693   0.04275   0.77282   0.00000  Uiso   1.00
O1285  O     0.60872   0.44387   0.22044   0.00000  Uiso   1.00
O1286  O     0.88864   0.06036   0.78986   0.00000  Uiso   1.00
O1287  O     0.58304   0.13474   0.18323   0.00000  Uiso   1.00
O1288  O     0.91139   0.35870   0.81925   0.00000  Uiso   1.00
O1289  O     0.89128   0.05614   0.22042   0.00000  Uiso   1.00
O1290  O     0.61137   0.43964   0.78987   0.00000  Uiso   1.00
O1291  O     0.91694   0.36523   0.18322   0.00000  Uiso   1.00
O1292  O     0.75000   0.03036   0.66317   0.00000  Uiso   1.00
O1293  O     0.58860   0.14129   0.81925   0.00000  Uiso   1.00
O1294  O     0.63475   0.08305   0.81678   0.00000  Uiso   1.00
O1295  O     0.85870   0.41139   0.18075   0.00000  Uiso   1.00
O1296  O     0.55613   0.39128   0.77957   0.00000  Uiso   1.00
O1297  O     0.93963   0.11137   0.21012   0.00000  Uiso   1.00
O1298  O     0.86524   0.41694   0.81678   0.00000  Uiso   1.00
O1299  O     0.64126   0.08857   0.18076   0.00000  Uiso   1.00
O1300  O     0.94387   0.10872   0.77957   0.00000  Uiso   1.00
O1301  O     0.56036   0.38864   0.21014   0.00000  Uiso   1.00
O1302  O     0.85873   0.19387   0.72043   0.00000  Uiso   1.00
O1303  O     0.53036   0.25000   0.33683   0.00000  Uiso   1.00
O1304  O     0.63863   0.31037   0.28988   0.00000  Uiso   1.00
O1305  O     0.83306   0.38476   0.68322   0.00000  Uiso   1.00
O1306  O     0.66143   0.10874   0.31924   0.00000  Uiso   1.00
O1307  O     0.64128   0.30613   0.72043   0.00000  Uiso   1.00
O1308  O     0.86136   0.18964   0.28986   0.00000  Uiso   1.00
O1309  O     0.66695   0.11525   0.68322   0.00000  Uiso   1.00
O1310  O     0.83861   0.39130   0.31925   0.00000  Uiso   1.00
O1311  O     0.88477   0.33306   0.31678   0.00000  Uiso   1.00
O1312  O     0.60871   0.16140   0.68076   0.00000  Uiso   1.00
O1313  O     0.80613   0.14129   0.27956   0.00000  Uiso   1.00
O1314  O     0.96964   0.25000   0.66317   0.00000  Uiso   1.00
O1315  O     0.68964   0.36136   0.71013   0.00000  Uiso   1.00
O1316  O     0.61526   0.16696   0.31677   0.00000  Uiso   1.00
O1317  O     0.89130   0.33861   0.68075   0.00000  Uiso   1.00
O1318  O     0.69386   0.35872   0.27958   0.00000  Uiso   1.00
O1319  O     0.81036   0.13863   0.71013   0.00000  Uiso   1.00
O1320  O     0.75000   0.03036   0.33683   0.00000  Uiso   1.00
Zn1321 Zn    0.70660   0.00000   0.21760   0.00000  Uiso   1.00
Zn1322 Zn    0.54340   0.25000   0.28240   0.00000  Uiso   1.00
Zn1323 Zn    0.75000   0.45660   0.71760   0.00000  Uiso   1.00
Zn1324 Zn    0.75000   0.04340   0.28240   0.00000  Uiso   1.00
Zn1325 Zn    0.54340   0.25000   0.71760   0.00000  Uiso   1.00
Zn1326 Zn    0.95660   0.25000   0.28240   0.00000  Uiso   1.00
Zn1327 Zn    0.75000   0.04340   0.71760   0.00000  Uiso   1.00
Zn1328 Zn    0.75000   0.45660   0.28240   0.00000  Uiso   1.00
Zn1329 Zn    0.79340   0.00000   0.78240   0.00000  Uiso   1.00
Zn1330 Zn    0.50000   0.20660   0.21760   0.00000  Uiso   1.00
Zn1331 Zn    0.50000   0.29340   0.78240   0.00000  Uiso   1.00
Zn1332 Zn    0.79340   0.00000   0.21760   0.00000  Uiso   1.00
Zn1333 Zn    0.70660   0.00000   0.78240   0.00000  Uiso   1.00
Zn1334 Zn    0.50000   0.29340   0.21760   0.00000  Uiso   1.00
Zn1335 Zn    0.50000   0.20660   0.78240   0.00000  Uiso   1.00
Zn1336 Zn    0.95660   0.25000   0.71760   0.00000  Uiso   1.00
C1337  C     0.22973   0.97408   0.04116   0.00000  Uiso   1.00
C1338  C     0.00667   0.71766   0.45811   0.00000  Uiso   1.00
C1339  C     0.34827   0.90173   0.75000   0.00000  Uiso   1.00
C1340  C     0.40175   0.65175   0.25000   0.00000  Uiso   1.00
C1341  C     0.09800   0.84800   0.75000   0.00000  Uiso   1.00
C1342  C     0.34796   0.90204   0.25000   0.00000  Uiso   1.00
C1343  C     0.15173   0.59827   0.75000   0.00000  Uiso   1.00
C1344  C     0.09796   0.65204   0.75000   0.00000  Uiso   1.00
C1345  C     0.40173   0.84827   0.25000   0.00000  Uiso   1.00
C1346  C     0.15175   0.90175   0.75000   0.00000  Uiso   1.00
C1347  C     0.34800   0.59800   0.25000   0.00000  Uiso   1.00
C1348  C     0.40204   0.84796   0.75000   0.00000  Uiso   1.00
C1349  C     0.28234   0.99332   0.54189   0.00000  Uiso   1.00
C1350  C     0.09827   0.65173   0.25000   0.00000  Uiso   1.00
C1351  C     0.34825   0.59825   0.75000   0.00000  Uiso   1.00
C1352  C     0.15200   0.90200   0.25000   0.00000  Uiso   1.00
C1353  C     0.25000   0.50000   0.10236   0.00000  Uiso   1.00
C1354  C     0.25000   0.50000   0.89719   0.00000  Uiso   1.00
C1355  C     0.00000   0.75000   0.10281   0.00000  Uiso   1.00
C1356  C     0.00000   0.75000   0.89764   0.00000  Uiso   1.00
C1357  C     0.00000   0.75000   0.60236   0.00000  Uiso   1.00
C1358  C    -0.00000   0.75000   0.39719   0.00000  Uiso   1.00
C1359  C     0.25000   0.50000   0.60281   0.00000  Uiso   1.00
C1360  C     0.27592   0.52027   0.45884   0.00000  Uiso   1.00
C1361  C     0.25000   0.50000   0.39764   0.00000  Uiso   1.00
C1362  C     0.09126   0.96357   0.25039   0.00000  Uiso   1.00
C1363  C     0.08193   0.50159   0.23539   0.00000  Uiso   1.00
C1364  C     0.06334   0.52456   0.26660   0.00000  Uiso   1.00
C1365  C     0.37720   0.56439   0.82905   0.00000  Uiso   1.00
C1366  C     0.40803   0.57904   0.85468   0.00000  Uiso   1.00
C1367  C     0.39846   0.57602   0.89773   0.00000  Uiso   1.00
C1368  C     0.05209   0.61169   0.18380   0.00000  Uiso   1.00
C1369  C     0.05902   0.57671   0.16071   0.00000  Uiso   1.00
C1370  C     0.02407   0.55477   0.15574   0.00000  Uiso   1.00
C1371  C     0.02027   0.77592   0.54116   0.00000  Uiso   1.00
C1372  C     0.39413   0.82857   0.83710   0.00000  Uiso   1.00
C1373  C     0.35938   0.84023   0.85864   0.00000  Uiso   1.00
C1374  C     0.34471   0.80964   0.88417   0.00000  Uiso   1.00
C1375  C     0.40881   0.53645   0.25034   0.00000  Uiso   1.00
C1376  C     0.41798   0.99838   0.23538   0.00000  Uiso   1.00
C1377  C     0.43667   0.97544   0.26655   0.00000  Uiso   1.00
C1378  C     0.12280   0.93560   0.82905   0.00000  Uiso   1.00
C1379  C     0.09198   0.92095   0.85469   0.00000  Uiso   1.00
C1380  C     0.10155   0.92397   0.89774   0.00000  Uiso   1.00
C1381  C     0.44788   0.88829   0.18377   0.00000  Uiso   1.00
C1382  C     0.49333   0.78234   0.45811   0.00000  Uiso   1.00
C1383  C     0.44093   0.92327   0.16068   0.00000  Uiso   1.00
C1384  C     0.47587   0.94522   0.15569   0.00000  Uiso   1.00
C1385  C     0.10585   0.67142   0.83711   0.00000  Uiso   1.00
C1386  C     0.14061   0.65977   0.85863   0.00000  Uiso   1.00
C1387  C     0.15528   0.69036   0.88416   0.00000  Uiso   1.00
C1388  C     0.11169   0.55211   0.81621   0.00000  Uiso   1.00
C1389  C     0.07672   0.55905   0.83931   0.00000  Uiso   1.00
C1390  C     0.05477   0.52411   0.84429   0.00000  Uiso   1.00
C1391  C     0.32856   0.89413   0.16290   0.00000  Uiso   1.00
C1392  C     0.34021   0.85937   0.14138   0.00000  Uiso   1.00
C1393  C     0.21766   0.50668   0.54189   0.00000  Uiso   1.00
C1394  C     0.30961   0.84470   0.11586   0.00000  Uiso   1.00
C1395  C     0.03645   0.90879   0.74965   0.00000  Uiso   1.00
C1396  C     0.49838   0.91800   0.76462   0.00000  Uiso   1.00
C1397  C     0.47544   0.93667   0.73344   0.00000  Uiso   1.00
C1398  C     0.43559   0.62281   0.17094   0.00000  Uiso   1.00
C1399  C     0.42092   0.59200   0.14531   0.00000  Uiso   1.00
C1400  C     0.42393   0.60157   0.10225   0.00000  Uiso   1.00
C1401  C     0.38830   0.94788   0.81623   0.00000  Uiso   1.00
C1402  C     0.42327   0.94093   0.83932   0.00000  Uiso   1.00
C1403  C     0.44523   0.97587   0.84431   0.00000  Uiso   1.00
C1404  C     0.22408   0.97973   0.45884   0.00000  Uiso   1.00
C1405  C     0.17140   0.60580   0.16288   0.00000  Uiso   1.00
C1406  C     0.15977   0.64059   0.14139   0.00000  Uiso   1.00
C1407  C     0.19036   0.65524   0.11586   0.00000  Uiso   1.00
C1408  C     0.46355   0.59121   0.74964   0.00000  Uiso   1.00
C1409  C     0.00162   0.58201   0.76460   0.00000  Uiso   1.00
C1410  C     0.02457   0.56334   0.73342   0.00000  Uiso   1.00
C1411  C     0.06439   0.87721   0.17096   0.00000  Uiso   1.00
C1412  C     0.07903   0.90803   0.14532   0.00000  Uiso   1.00
C1413  C     0.07601   0.89846   0.10227   0.00000  Uiso   1.00
C1414  C     0.34118   0.71354   0.75034   0.00000  Uiso   1.00
C1415  C     0.22936   0.97355   0.08178   0.00000  Uiso   1.00
C1416  C     0.33205   0.75163   0.73540   0.00000  Uiso   1.00
C1417  C     0.31333   0.77457   0.76656   0.00000  Uiso   1.00
C1418  C     0.12719   0.81441   0.32906   0.00000  Uiso   1.00
C1419  C     0.15800   0.82908   0.35469   0.00000  Uiso   1.00
C1420  C     0.14843   0.82606   0.39775   0.00000  Uiso   1.00
C1421  C     0.30211   0.86170   0.68378   0.00000  Uiso   1.00
C1422  C     0.30906   0.82673   0.66068   0.00000  Uiso   1.00
C1423  C     0.27413   0.80477   0.65570   0.00000  Uiso   1.00
C1424  C     0.14419   0.57861   0.33712   0.00000  Uiso   1.00
C1425  C     0.10941   0.59024   0.35862   0.00000  Uiso   1.00
C1426  C     0.25677   0.96720   0.91752   0.00000  Uiso   1.00
C1427  C     0.09475   0.55964   0.38414   0.00000  Uiso   1.00
C1428  C     0.15878   0.78644   0.75036   0.00000  Uiso   1.00
C1429  C     0.16800   0.74838   0.73540   0.00000  Uiso   1.00
C1430  C     0.18666   0.72543   0.76658   0.00000  Uiso   1.00
C1431  C     0.37279   0.68561   0.32904   0.00000  Uiso   1.00
C1432  C     0.34197   0.67097   0.35467   0.00000  Uiso   1.00
C1433  C     0.35153   0.67399   0.39773   0.00000  Uiso   1.00
C1434  C     0.19789   0.63830   0.68379   0.00000  Uiso   1.00
C1435  C     0.19095   0.67328   0.66069   0.00000  Uiso   1.00
C1436  C     0.22589   0.69523   0.65571   0.00000  Uiso   1.00
C1437  C     0.03280   0.74322   0.08248   0.00000  Uiso   1.00
C1438  C     0.35587   0.92144   0.33710   0.00000  Uiso   1.00
C1439  C     0.39063   0.90978   0.35862   0.00000  Uiso   1.00
C1440  C     0.40530   0.94038   0.38415   0.00000  Uiso   1.00
C1441  C     0.36171   0.80212   0.31623   0.00000  Uiso   1.00
C1442  C     0.32673   0.80907   0.33932   0.00000  Uiso   1.00
C1443  C     0.30478   0.77413   0.34431   0.00000  Uiso   1.00
C1444  C     0.07858   0.64415   0.66289   0.00000  Uiso   1.00
C1445  C     0.09023   0.60939   0.64137   0.00000  Uiso   1.00
C1446  C     0.05964   0.59473   0.61584   0.00000  Uiso   1.00
C1447  C     0.28642   0.65872   0.24960   0.00000  Uiso   1.00
C1448  C     0.25667   0.96766   0.95811   0.00000  Uiso   1.00
C1449  C     0.02645   0.77063   0.91823   0.00000  Uiso   1.00
C1450  C     0.24841   0.66808   0.26461   0.00000  Uiso   1.00
C1451  C     0.22544   0.68666   0.23339   0.00000  Uiso   1.00
C1452  C     0.18560   0.87280   0.67095   0.00000  Uiso   1.00
C1453  C     0.17095   0.84198   0.64532   0.00000  Uiso   1.00
C1454  C     0.17397   0.85155   0.60226   0.00000  Uiso   1.00
C1455  C     0.13831   0.69791   0.31620   0.00000  Uiso   1.00
C1456  C     0.17329   0.69098   0.33928   0.00000  Uiso   1.00
C1457  C     0.19523   0.72593   0.34426   0.00000  Uiso   1.00
C1458  C     0.42143   0.85586   0.66290   0.00000  Uiso   1.00
C1459  C     0.40978   0.89062   0.64138   0.00000  Uiso   1.00
C1460  C     0.27064   0.52645   0.08177   0.00000  Uiso   1.00
C1461  C     0.44038   0.90529   0.61585   0.00000  Uiso   1.00
C1462  C     0.21355   0.84120   0.24966   0.00000  Uiso   1.00
C1463  C     0.25162   0.83200   0.26462   0.00000  Uiso   1.00
C1464  C     0.27456   0.81332   0.23345   0.00000  Uiso   1.00
C1465  C     0.31440   0.62719   0.67095   0.00000  Uiso   1.00
C1466  C     0.32906   0.65801   0.64531   0.00000  Uiso   1.00
C1467  C     0.32604   0.64844   0.60226   0.00000  Uiso   1.00
C1468  C     0.20712   0.94408   0.10176   0.00000  Uiso   1.00
C1469  C     0.23130   0.91541   0.12104   0.00000  Uiso   1.00
C1470  C     0.26375   0.93140   0.89681   0.00000  Uiso   1.00
C1471  C     0.24323   0.53280   0.91752   0.00000  Uiso   1.00
C1472  C     0.22820   0.91403   0.88325   0.00000  Uiso   1.00
C1473  C     0.06859   0.73623   0.10319   0.00000  Uiso   1.00
C1474  C     0.08597   0.77177   0.11676   0.00000  Uiso   1.00
C1475  C     0.05592   0.79288   0.89824   0.00000  Uiso   1.00
C1476  C     0.08459   0.76870   0.87896   0.00000  Uiso   1.00
C1477  C     0.29288   0.55592   0.10176   0.00000  Uiso   1.00
C1478  C     0.26869   0.58459   0.12104   0.00000  Uiso   1.00
C1479  C     0.23626   0.56860   0.89681   0.00000  Uiso   1.00
C1480  C     0.27180   0.58597   0.88325   0.00000  Uiso   1.00
C1481  C     0.43141   0.76377   0.10319   0.00000  Uiso   1.00
C1482  C     0.46720   0.75678   0.08248   0.00000  Uiso   1.00
C1483  C     0.41403   0.72823   0.11676   0.00000  Uiso   1.00
C1484  C     0.44408   0.70712   0.89824   0.00000  Uiso   1.00
C1485  C     0.41541   0.73130   0.87895   0.00000  Uiso   1.00
C1486  C     0.45712   0.69408   0.60176   0.00000  Uiso   1.00
C1487  C     0.48130   0.66541   0.62104   0.00000  Uiso   1.00
C1488  C     0.01376   0.68140   0.39681   0.00000  Uiso   1.00
C1489  C     0.47821   0.66403   0.38325   0.00000  Uiso   1.00
C1490  C     0.31859   0.98623   0.60319   0.00000  Uiso   1.00
C1491  C     0.33597   0.52176   0.61676   0.00000  Uiso   1.00
C1492  C     0.30592   0.54288   0.39824   0.00000  Uiso   1.00
C1493  C     0.47355   0.72937   0.91823   0.00000  Uiso   1.00
C1494  C     0.33459   0.51869   0.37895   0.00000  Uiso   1.00
C1495  C     0.04288   0.80592   0.60176   0.00000  Uiso   1.00
C1496  C     0.01870   0.83459   0.62104   0.00000  Uiso   1.00
C1497  C     0.48624   0.81860   0.39681   0.00000  Uiso   1.00
C1498  C     0.02179   0.83597   0.38325   0.00000  Uiso   1.00
C1499  C     0.18141   0.51377   0.60319   0.00000  Uiso   1.00
C1500  C     0.16403   0.97824   0.61676   0.00000  Uiso   1.00
C1501  C     0.19408   0.95713   0.39824   0.00000  Uiso   1.00
C1502  C     0.16540   0.98131   0.37896   0.00000  Uiso   1.00
C1503  C     0.47936   0.72355   0.58178   0.00000  Uiso   1.00
C1504  C     0.00677   0.71720   0.41752   0.00000  Uiso   1.00
C1505  C     0.28280   0.99322   0.58248   0.00000  Uiso   1.00
C1506  C     0.27645   0.52063   0.41823   0.00000  Uiso   1.00
C1507  C     0.02064   0.77645   0.58177   0.00000  Uiso   1.00
C1508  C     0.03234   0.74332   0.04189   0.00000  Uiso   1.00
C1509  C     0.49323   0.78280   0.41752   0.00000  Uiso   1.00
C1510  C     0.21720   0.50678   0.58248   0.00000  Uiso   1.00
C1511  C     0.22355   0.97937   0.41823   0.00000  Uiso   1.00
C1512  C     0.25000   0.50000   0.02095   0.00000  Uiso   1.00
C1513  C     0.25000   0.50000   0.97837   0.00000  Uiso   1.00
C1514  C    -0.00000   0.75000   0.02163   0.00000  Uiso   1.00
C1515  C    -0.00000   0.75000   0.97905   0.00000  Uiso   1.00
C1516  C    -0.00000   0.75000   0.52095   0.00000  Uiso   1.00
C1517  C    -0.00000   0.75000   0.47837   0.00000  Uiso   1.00
C1518  C     0.25000   0.50000   0.52163   0.00000  Uiso   1.00
C1519  C     0.02592   0.77027   0.95884   0.00000  Uiso   1.00
C1520  C     0.25000   0.50000   0.47905   0.00000  Uiso   1.00
C1521  C     0.25000   0.50000   0.35515   0.00000  Uiso   1.00
C1522  C     0.25000   0.50000   0.64503   0.00000  Uiso   1.00
C1523  C     0.00000   0.75000   0.35497   0.00000  Uiso   1.00
C1524  C     0.00000   0.75000   0.64485   0.00000  Uiso   1.00
C1525  C     0.00000   0.75000   0.85515   0.00000  Uiso   1.00
C1526  C     0.00000   0.75000   0.14503   0.00000  Uiso   1.00
C1527  C     0.25000   0.50000   0.85497   0.00000  Uiso   1.00
C1528  C     0.25000   0.50000   0.14485   0.00000  Uiso   1.00
C1529  C     0.18001   0.56999   0.25000   0.00000  Uiso   1.00
C1530  C     0.27027   0.52592   0.04116   0.00000  Uiso   1.00
C1531  C     0.32011   0.92989   0.75000   0.00000  Uiso   1.00
C1532  C     0.42989   0.67989   0.25000   0.00000  Uiso   1.00
C1533  C     0.07002   0.82002   0.75000   0.00000  Uiso   1.00
C1534  C     0.31999   0.93001   0.25000   0.00000  Uiso   1.00
C1535  C     0.17989   0.57011   0.75000   0.00000  Uiso   1.00
C1536  C     0.07011   0.82011   0.25000   0.00000  Uiso   1.00
C1537  C     0.42998   0.67998   0.75000   0.00000  Uiso   1.00
C1538  C     0.17989   0.92989   0.75000   0.00000  Uiso   1.00
C1539  C     0.32002   0.57002   0.25000   0.00000  Uiso   1.00
C1540  C     0.43001   0.81999   0.75000   0.00000  Uiso   1.00
C1541  C     0.24333   0.53234   0.95811   0.00000  Uiso   1.00
C1542  C     0.07011   0.67989   0.25000   0.00000  Uiso   1.00
C1543  C     0.32011   0.57011   0.75000   0.00000  Uiso   1.00
C1544  C     0.17998   0.92998   0.25000   0.00000  Uiso   1.00
C1545  C     0.06999   0.68001   0.75000   0.00000  Uiso   1.00
C1546  C     0.42989   0.82011   0.25000   0.00000  Uiso   1.00
C1547  C     0.11742   0.90959   0.23434   0.00000  Uiso   1.00
C1548  C     0.38162   0.59221   0.76958   0.00000  Uiso   1.00
C1549  C     0.10347   0.62971   0.21671   0.00000  Uiso   1.00
C1550  C     0.39421   0.86706   0.78448   0.00000  Uiso   1.00
C1551  C     0.38258   0.59041   0.23433   0.00000  Uiso   1.00
C1552  C     0.46766   0.75668   0.04189   0.00000  Uiso   1.00
C1553  C     0.11838   0.90779   0.76958   0.00000  Uiso   1.00
C1554  C     0.39651   0.87028   0.21670   0.00000  Uiso   1.00
C1555  C     0.10579   0.63293   0.78448   0.00000  Uiso   1.00
C1556  C     0.12972   0.60348   0.78330   0.00000  Uiso   1.00
C1557  C     0.36706   0.89421   0.21552   0.00000  Uiso   1.00
C1558  C     0.09041   0.88258   0.76566   0.00000  Uiso   1.00
C1559  C     0.40779   0.61838   0.23041   0.00000  Uiso   1.00
C1560  C     0.37028   0.89651   0.78330   0.00000  Uiso   1.00
C1561  C     0.13292   0.60578   0.21552   0.00000  Uiso   1.00
C1562  C     0.40959   0.61742   0.76566   0.00000  Uiso   1.00
C1563  C     0.47408   0.72973   0.95884   0.00000  Uiso   1.00
C1564  C     0.09221   0.88162   0.23042   0.00000  Uiso   1.00
C1565  C     0.36742   0.65959   0.73433   0.00000  Uiso   1.00
C1566  C     0.13162   0.84221   0.26959   0.00000  Uiso   1.00
C1567  C     0.35349   0.87972   0.71670   0.00000  Uiso   1.00
C1568  C     0.14422   0.61708   0.28448   0.00000  Uiso   1.00
C1569  C     0.13258   0.84041   0.73434   0.00000  Uiso   1.00
C1570  C     0.36838   0.65779   0.26958   0.00000  Uiso   1.00
C1571  C     0.14652   0.62028   0.71670   0.00000  Uiso   1.00
C1572  C     0.35579   0.88294   0.28448   0.00000  Uiso   1.00
C1573  C     0.37972   0.85349   0.28330   0.00000  Uiso   1.00
C1574  C     0.47973   0.72408   0.54116   0.00000  Uiso   1.00
C1575  C     0.11707   0.64421   0.71552   0.00000  Uiso   1.00
C1576  C     0.34041   0.63258   0.26566   0.00000  Uiso   1.00
C1577  C     0.15779   0.86838   0.73042   0.00000  Uiso   1.00
C1578  C     0.12029   0.64653   0.28329   0.00000  Uiso   1.00
C1579  C     0.38294   0.85579   0.71552   0.00000  Uiso   1.00
C1580  C     0.15959   0.86742   0.26567   0.00000  Uiso   1.00
C1581  C     0.34221   0.63162   0.73042   0.00000  Uiso   1.00
C1582  C     0.09825   0.84825   0.25000   0.00000  Uiso   1.00
C1583  C     0.40200   0.65200   0.75000   0.00000  Uiso   1.00
C1584  C     0.15204   0.59796   0.25000   0.00000  Uiso   1.00
H1585  H     0.21401   0.95423   0.02500   0.00000  Uiso   1.00
H1586  H     0.01195   0.69276   0.47409   0.00000  Uiso   1.00
H1587  H     0.45290   0.60550   0.09399   0.00000  Uiso   1.00
H1588  H     0.37320   0.97046   0.83049   0.00000  Uiso   1.00
H1589  H     0.39506   0.95759   0.78631   0.00000  Uiso   1.00
H1590  H     0.41635   0.92982   0.86845   0.00000  Uiso   1.00
H1591  H     0.44040   0.92077   0.82377   0.00000  Uiso   1.00
H1592  H     0.45182   0.98790   0.81551   0.00000  Uiso   1.00
H1593  H     0.47109   0.96972   0.85972   0.00000  Uiso   1.00
H1594  H     0.42955   0.99592   0.86176   0.00000  Uiso   1.00
H1595  H     0.18279   0.58632   0.14135   0.00000  Uiso   1.00
H1596  H     0.19377   0.61182   0.18379   0.00000  Uiso   1.00
H1597  H     0.30724   0.98803   0.52591   0.00000  Uiso   1.00
H1598  H     0.13569   0.63474   0.12284   0.00000  Uiso   1.00
H1599  H     0.15219   0.66191   0.16284   0.00000  Uiso   1.00
H1600  H     0.21531   0.65993   0.13340   0.00000  Uiso   1.00
H1601  H     0.18178   0.68147   0.10264   0.00000  Uiso   1.00
H1602  H     0.19651   0.63570   0.09211   0.00000  Uiso   1.00
H1603  H     0.46620   0.60941   0.72383   0.00000  Uiso   1.00
H1604  H     0.44984   0.56544   0.74082   0.00000  Uiso   1.00
H1605  H     0.01547   0.60743   0.77387   0.00000  Uiso   1.00
H1606  H     0.49930   0.56370   0.79021   0.00000  Uiso   1.00
H1607  H     0.01208   0.53698   0.72497   0.00000  Uiso   1.00
H1608  H     0.29577   0.53599   0.47500   0.00000  Uiso   1.00
H1609  H     0.05232   0.55805   0.74487   0.00000  Uiso   1.00
H1610  H     0.02690   0.58101   0.70736   0.00000  Uiso   1.00
H1611  H     0.03696   0.86945   0.16025   0.00000  Uiso   1.00
H1612  H     0.08185   0.85244   0.16769   0.00000  Uiso   1.00
H1613  H     0.06350   0.93347   0.15108   0.00000  Uiso   1.00
H1614  H     0.10816   0.91290   0.15220   0.00000  Uiso   1.00
H1615  H     0.09153   0.87316   0.09589   0.00000  Uiso   1.00
H1616  H     0.08741   0.92097   0.08452   0.00000  Uiso   1.00
H1617  H     0.04704   0.89452   0.09402   0.00000  Uiso   1.00
H1618  H     0.35934   0.71615   0.77619   0.00000  Uiso   1.00
H1619  H     0.03599   0.79577   0.52500   0.00000  Uiso   1.00
H1620  H     0.31539   0.69985   0.75909   0.00000  Uiso   1.00
H1621  H     0.35751   0.76547   0.72621   0.00000  Uiso   1.00
H1622  H     0.31380   0.74936   0.70974   0.00000  Uiso   1.00
H1623  H     0.28692   0.76213   0.77487   0.00000  Uiso   1.00
H1624  H     0.30815   0.80235   0.75514   0.00000  Uiso   1.00
H1625  H     0.33091   0.77681   0.79268   0.00000  Uiso   1.00
H1626  H     0.11944   0.78698   0.33978   0.00000  Uiso   1.00
H1627  H     0.10242   0.83186   0.33231   0.00000  Uiso   1.00
H1628  H     0.18345   0.81355   0.34895   0.00000  Uiso   1.00
H1629  H     0.16286   0.85820   0.34781   0.00000  Uiso   1.00
H1630  H     0.48804   0.80724   0.47409   0.00000  Uiso   1.00
H1631  H     0.12311   0.84157   0.40411   0.00000  Uiso   1.00
H1632  H     0.17093   0.83748   0.41550   0.00000  Uiso   1.00
H1633  H     0.14450   0.79710   0.40601   0.00000  Uiso   1.00
H1634  H     0.27954   0.87680   0.66953   0.00000  Uiso   1.00
H1635  H     0.29242   0.85493   0.71369   0.00000  Uiso   1.00
H1636  H     0.32016   0.83366   0.63154   0.00000  Uiso   1.00
H1637  H     0.32923   0.80960   0.67621   0.00000  Uiso   1.00
H1638  H     0.26211   0.79817   0.68450   0.00000  Uiso   1.00
H1639  H     0.28027   0.77892   0.64028   0.00000  Uiso   1.00
H1640  H     0.25407   0.82045   0.63826   0.00000  Uiso   1.00
H1641  H     0.19276   0.51197   0.52591   0.00000  Uiso   1.00
H1642  H     0.16367   0.56721   0.35865   0.00000  Uiso   1.00
H1643  H     0.13817   0.55623   0.31621   0.00000  Uiso   1.00
H1644  H     0.11527   0.61431   0.37717   0.00000  Uiso   1.00
H1645  H     0.08809   0.59782   0.33716   0.00000  Uiso   1.00
H1646  H     0.09006   0.53470   0.36660   0.00000  Uiso   1.00
H1647  H     0.06853   0.56823   0.39737   0.00000  Uiso   1.00
H1648  H     0.11430   0.55350   0.40789   0.00000  Uiso   1.00
H1649  H     0.14057   0.78379   0.77616   0.00000  Uiso   1.00
H1650  H     0.18454   0.80016   0.75920   0.00000  Uiso   1.00
H1651  H     0.14258   0.73453   0.72611   0.00000  Uiso   1.00
H1652  H     0.20423   0.96401   0.47500   0.00000  Uiso   1.00
H1653  H     0.18632   0.75071   0.70980   0.00000  Uiso   1.00
H1654  H     0.21300   0.73793   0.77506   0.00000  Uiso   1.00
H1655  H     0.19196   0.69769   0.75512   0.00000  Uiso   1.00
H1656  H     0.16897   0.72308   0.79262   0.00000  Uiso   1.00
H1657  H     0.38055   0.71305   0.33975   0.00000  Uiso   1.00
H1658  H     0.39755   0.66816   0.33231   0.00000  Uiso   1.00
H1659  H     0.31653   0.68650   0.34892   0.00000  Uiso   1.00
H1660  H     0.33709   0.64184   0.34780   0.00000  Uiso   1.00
H1661  H     0.37684   0.65847   0.40411   0.00000  Uiso   1.00
H1662  H     0.32903   0.66259   0.41548   0.00000  Uiso   1.00
H1663  H     0.10955   0.96629   0.27612   0.00000  Uiso   1.00
H1664  H     0.35548   0.70296   0.40598   0.00000  Uiso   1.00
H1665  H     0.22047   0.62321   0.66953   0.00000  Uiso   1.00
H1666  H     0.20759   0.64507   0.71370   0.00000  Uiso   1.00
H1667  H     0.17984   0.66636   0.63156   0.00000  Uiso   1.00
H1668  H     0.17079   0.69040   0.67623   0.00000  Uiso   1.00
H1669  H     0.23792   0.70182   0.68451   0.00000  Uiso   1.00
H1670  H     0.21975   0.72109   0.64030   0.00000  Uiso   1.00
H1671  H     0.24594   0.67955   0.63826   0.00000  Uiso   1.00
H1672  H     0.33640   0.93287   0.35862   0.00000  Uiso   1.00
H1673  H     0.36193   0.94379   0.31617   0.00000  Uiso   1.00
H1674  H     0.06555   0.94982   0.25934   0.00000  Uiso   1.00
H1675  H     0.38475   0.88572   0.37718   0.00000  Uiso   1.00
H1676  H     0.41196   0.90218   0.33718   0.00000  Uiso   1.00
H1677  H     0.41002   0.96532   0.36659   0.00000  Uiso   1.00
H1678  H     0.43152   0.93177   0.39739   0.00000  Uiso   1.00
H1679  H     0.38576   0.94655   0.40788   0.00000  Uiso   1.00
H1680  H     0.37680   0.77954   0.33049   0.00000  Uiso   1.00
H1681  H     0.35494   0.79241   0.28632   0.00000  Uiso   1.00
H1682  H     0.33365   0.82018   0.36845   0.00000  Uiso   1.00
H1683  H     0.30961   0.82923   0.32377   0.00000  Uiso   1.00
H1684  H     0.29818   0.76210   0.31552   0.00000  Uiso   1.00
H1685  H     0.10729   0.51547   0.22598   0.00000  Uiso   1.00
H1686  H     0.27892   0.78028   0.35972   0.00000  Uiso   1.00
H1687  H     0.32046   0.75409   0.36177   0.00000  Uiso   1.00
H1688  H     0.06715   0.66363   0.64138   0.00000  Uiso   1.00
H1689  H     0.05623   0.63809   0.68382   0.00000  Uiso   1.00
H1690  H     0.11429   0.61527   0.62281   0.00000  Uiso   1.00
H1691  H     0.09784   0.58806   0.66280   0.00000  Uiso   1.00
H1692  H     0.03470   0.59001   0.63339   0.00000  Uiso   1.00
H1693  H     0.06824   0.56851   0.60259   0.00000  Uiso   1.00
H1694  H     0.05348   0.61428   0.59210   0.00000  Uiso   1.00
H1695  H     0.28368   0.64042   0.22389   0.00000  Uiso   1.00
H1696  H     0.26195   0.94276   0.97409   0.00000  Uiso   1.00
H1697  H     0.06352   0.99919   0.20987   0.00000  Uiso   1.00
H1698  H     0.30018   0.68442   0.24062   0.00000  Uiso   1.00
H1699  H     0.23452   0.64273   0.27405   0.00000  Uiso   1.00
H1700  H     0.25083   0.68651   0.29011   0.00000  Uiso   1.00
H1701  H     0.23802   0.71289   0.22468   0.00000  Uiso   1.00
H1702  H     0.19776   0.69216   0.24492   0.00000  Uiso   1.00
H1703  H     0.22292   0.66883   0.20748   0.00000  Uiso   1.00
H1704  H     0.21304   0.88055   0.66024   0.00000  Uiso   1.00
H1705  H     0.16815   0.89756   0.66769   0.00000  Uiso   1.00
H1706  H     0.18648   0.81654   0.65107   0.00000  Uiso   1.00
H1707  H     0.14183   0.83711   0.65220   0.00000  Uiso   1.00
H1708  H     0.03710   0.51198   0.27528   0.00000  Uiso   1.00
H1709  H     0.15846   0.87686   0.59589   0.00000  Uiso   1.00
H1710  H     0.16257   0.82904   0.58451   0.00000  Uiso   1.00
H1711  H     0.20294   0.85549   0.59401   0.00000  Uiso   1.00
H1712  H     0.12321   0.72049   0.33044   0.00000  Uiso   1.00
H1713  H     0.14507   0.70761   0.28628   0.00000  Uiso   1.00
H1714  H     0.16638   0.67987   0.36842   0.00000  Uiso   1.00
H1715  H     0.19043   0.67083   0.32374   0.00000  Uiso   1.00
H1716  H     0.20182   0.73796   0.31546   0.00000  Uiso   1.00
H1717  H     0.22110   0.71979   0.35967   0.00000  Uiso   1.00
H1718  H     0.17955   0.74597   0.36172   0.00000  Uiso   1.00
H1719  H     0.05785   0.55225   0.25507   0.00000  Uiso   1.00
H1720  H     0.43286   0.83638   0.64138   0.00000  Uiso   1.00
H1721  H     0.44378   0.86192   0.68382   0.00000  Uiso   1.00
H1722  H     0.38572   0.88474   0.62282   0.00000  Uiso   1.00
H1723  H     0.40218   0.91195   0.66281   0.00000  Uiso   1.00
H1724  H     0.46531   0.91001   0.63340   0.00000  Uiso   1.00
H1725  H     0.43177   0.93151   0.60261   0.00000  Uiso   1.00
H1726  H     0.44654   0.88574   0.59211   0.00000  Uiso   1.00
H1727  H     0.21620   0.85940   0.22384   0.00000  Uiso   1.00
H1728  H     0.19983   0.81544   0.24084   0.00000  Uiso   1.00
H1729  H     0.26547   0.85742   0.27389   0.00000  Uiso   1.00
H1730  H     0.08115   0.52707   0.29252   0.00000  Uiso   1.00
H1731  H     0.24929   0.81369   0.29023   0.00000  Uiso   1.00
H1732  H     0.26207   0.78696   0.22500   0.00000  Uiso   1.00
H1733  H     0.30231   0.80802   0.24491   0.00000  Uiso   1.00
H1734  H     0.27691   0.83099   0.20739   0.00000  Uiso   1.00
H1735  H     0.28697   0.61944   0.66024   0.00000  Uiso   1.00
H1736  H     0.33186   0.60243   0.66769   0.00000  Uiso   1.00
H1737  H     0.31353   0.68345   0.65106   0.00000  Uiso   1.00
H1738  H     0.35818   0.66288   0.65219   0.00000  Uiso   1.00
H1739  H     0.34155   0.62313   0.59589   0.00000  Uiso   1.00
H1740  H     0.33745   0.67094   0.58450   0.00000  Uiso   1.00
H1741  H     0.36945   0.53696   0.83975   0.00000  Uiso   1.00
H1742  H     0.29707   0.64450   0.59400   0.00000  Uiso   1.00
H1743  H     0.25023   0.90356   0.09929   0.00000  Uiso   1.00
H1744  H     0.24724   0.92719   0.14533   0.00000  Uiso   1.00
H1745  H     0.21408   0.89325   0.13298   0.00000  Uiso   1.00
H1746  H     0.18806   0.95605   0.12326   0.00000  Uiso   1.00
H1747  H     0.18956   0.92975   0.08035   0.00000  Uiso   1.00
H1748  H     0.20985   0.90937   0.90843   0.00000  Uiso   1.00
H1749  H     0.21412   0.93164   0.86176   0.00000  Uiso   1.00
H1750  H     0.23412   0.88742   0.86926   0.00000  Uiso   1.00
H1751  H     0.28226   0.93542   0.87165   0.00000  Uiso   1.00
H1752  H     0.35244   0.58185   0.83231   0.00000  Uiso   1.00
H1753  H     0.27776   0.91191   0.91655   0.00000  Uiso   1.00
H1754  H     0.09064   0.79013   0.09158   0.00000  Uiso   1.00
H1755  H     0.06837   0.78585   0.13825   0.00000  Uiso   1.00
H1756  H     0.11258   0.76584   0.13074   0.00000  Uiso   1.00
H1757  H     0.06457   0.71772   0.12835   0.00000  Uiso   1.00
H1758  H     0.08808   0.72221   0.08345   0.00000  Uiso   1.00
H1759  H     0.09644   0.74977   0.90072   0.00000  Uiso   1.00
H1760  H     0.07281   0.75275   0.85468   0.00000  Uiso   1.00
H1761  H     0.10675   0.78592   0.86702   0.00000  Uiso   1.00
H1762  H     0.04395   0.81193   0.87673   0.00000  Uiso   1.00
H1763  H     0.43347   0.56350   0.84892   0.00000  Uiso   1.00
H1764  H     0.07025   0.81044   0.91965   0.00000  Uiso   1.00
H1765  H     0.24978   0.59645   0.09927   0.00000  Uiso   1.00
H1766  H     0.25274   0.57281   0.14531   0.00000  Uiso   1.00
H1767  H     0.28592   0.60675   0.13299   0.00000  Uiso   1.00
H1768  H     0.31193   0.54395   0.12327   0.00000  Uiso   1.00
H1769  H     0.31044   0.57025   0.08035   0.00000  Uiso   1.00
H1770  H     0.29016   0.59063   0.90844   0.00000  Uiso   1.00
H1771  H     0.28588   0.56836   0.86177   0.00000  Uiso   1.00
H1772  H     0.26588   0.61258   0.86926   0.00000  Uiso   1.00
H1773  H     0.21775   0.56458   0.87165   0.00000  Uiso   1.00
H1774  H     0.41290   0.60816   0.84780   0.00000  Uiso   1.00
H1775  H     0.22224   0.58809   0.91655   0.00000  Uiso   1.00
H1776  H     0.40936   0.70987   0.09158   0.00000  Uiso   1.00
H1777  H     0.43163   0.71415   0.13825   0.00000  Uiso   1.00
H1778  H     0.38742   0.73416   0.13075   0.00000  Uiso   1.00
H1779  H     0.43543   0.78228   0.12835   0.00000  Uiso   1.00
H1780  H     0.41192   0.77779   0.08345   0.00000  Uiso   1.00
H1781  H     0.40356   0.75023   0.90071   0.00000  Uiso   1.00
H1782  H     0.42719   0.74724   0.85467   0.00000  Uiso   1.00
H1783  H     0.39325   0.71407   0.86702   0.00000  Uiso   1.00
H1784  H     0.45605   0.68806   0.87674   0.00000  Uiso   1.00
H1785  H     0.37315   0.59154   0.90411   0.00000  Uiso   1.00
H1786  H     0.42975   0.68956   0.91965   0.00000  Uiso   1.00
H1787  H     0.00023   0.65356   0.59928   0.00000  Uiso   1.00
H1788  H     0.49725   0.67719   0.64533   0.00000  Uiso   1.00
H1789  H     0.46408   0.64325   0.63299   0.00000  Uiso   1.00
H1790  H     0.43807   0.70605   0.62327   0.00000  Uiso   1.00
H1791  H     0.43956   0.67975   0.58035   0.00000  Uiso   1.00
H1792  H     0.45986   0.65936   0.40843   0.00000  Uiso   1.00
H1793  H     0.46414   0.68163   0.36176   0.00000  Uiso   1.00
H1794  H     0.48414   0.63742   0.36926   0.00000  Uiso   1.00
H1795  H     0.03227   0.68542   0.37165   0.00000  Uiso   1.00
H1796  H     0.42097   0.58741   0.91549   0.00000  Uiso   1.00
H1797  H     0.02777   0.66191   0.41655   0.00000  Uiso   1.00
H1798  H     0.34064   0.54012   0.59158   0.00000  Uiso   1.00
H1799  H     0.31837   0.53584   0.63825   0.00000  Uiso   1.00
H1800  H     0.36258   0.51583   0.63075   0.00000  Uiso   1.00
H1801  H     0.31457   0.96771   0.62835   0.00000  Uiso   1.00
H1802  H     0.33808   0.97221   0.58345   0.00000  Uiso   1.00
H1803  H     0.34644   0.99977   0.40071   0.00000  Uiso   1.00
H1804  H     0.32281   0.50276   0.35467   0.00000  Uiso   1.00
H1805  H     0.35675   0.53592   0.36702   0.00000  Uiso   1.00
H1806  H     0.29395   0.56193   0.37674   0.00000  Uiso   1.00
H1807  H     0.05724   0.73804   0.02591   0.00000  Uiso   1.00
H1808  H     0.39451   0.54705   0.90598   0.00000  Uiso   1.00
H1809  H     0.32026   0.56044   0.41965   0.00000  Uiso   1.00
H1810  H     0.49978   0.84644   0.59929   0.00000  Uiso   1.00
H1811  H     0.00276   0.82281   0.64533   0.00000  Uiso   1.00
H1812  H     0.03593   0.85675   0.63299   0.00000  Uiso   1.00
H1813  H     0.06194   0.79395   0.62326   0.00000  Uiso   1.00
H1814  H     0.06044   0.82025   0.58035   0.00000  Uiso   1.00
H1815  H     0.04013   0.84065   0.40844   0.00000  Uiso   1.00
H1816  H     0.03587   0.81837   0.36177   0.00000  Uiso   1.00
H1817  H     0.01586   0.86258   0.36925   0.00000  Uiso   1.00
H1818  H     0.46773   0.81458   0.37165   0.00000  Uiso   1.00
H1819  H     0.02951   0.62679   0.16956   0.00000  Uiso   1.00
H1820  H     0.47222   0.83808   0.41655   0.00000  Uiso   1.00
H1821  H     0.15936   0.95988   0.59158   0.00000  Uiso   1.00
H1822  H     0.18163   0.96416   0.63825   0.00000  Uiso   1.00
H1823  H     0.13742   0.98417   0.63075   0.00000  Uiso   1.00
H1824  H     0.18543   0.53229   0.62835   0.00000  Uiso   1.00
H1825  H     0.16192   0.52779   0.58345   0.00000  Uiso   1.00
H1826  H     0.15355   0.50023   0.40073   0.00000  Uiso   1.00
H1827  H     0.17719   0.99726   0.35468   0.00000  Uiso   1.00
H1828  H     0.14325   0.96409   0.36701   0.00000  Uiso   1.00
H1829  H     0.20604   0.93807   0.37673   0.00000  Uiso   1.00
H1830  H     0.04240   0.60493   0.21372   0.00000  Uiso   1.00
H1831  H     0.17974   0.93956   0.41965   0.00000  Uiso   1.00
H1832  H     0.07012   0.58363   0.13157   0.00000  Uiso   1.00
H1833  H     0.07918   0.55958   0.17625   0.00000  Uiso   1.00
H1834  H     0.01205   0.54818   0.18453   0.00000  Uiso   1.00
H1835  H     0.03021   0.52891   0.14032   0.00000  Uiso   1.00
H1836  H     0.00403   0.57045   0.13828   0.00000  Uiso   1.00
H1837  H     0.41361   0.81712   0.85861   0.00000  Uiso   1.00
H1838  H     0.38805   0.80622   0.81617   0.00000  Uiso   1.00
H1839  H     0.04577   0.78599   0.97500   0.00000  Uiso   1.00
H1840  H     0.36527   0.86429   0.87719   0.00000  Uiso   1.00
H1841  H     0.33804   0.84784   0.83721   0.00000  Uiso   1.00
H1842  H     0.33998   0.78470   0.86662   0.00000  Uiso   1.00
H1843  H     0.31850   0.81825   0.89742   0.00000  Uiso   1.00
H1844  H     0.36426   0.80346   0.90790   0.00000  Uiso   1.00
H1845  H     0.39062   0.53382   0.27617   0.00000  Uiso   1.00
H1846  H     0.43458   0.55016   0.25913   0.00000  Uiso   1.00
H1847  H     0.39255   0.98453   0.22614   0.00000  Uiso   1.00
H1848  H     0.43627   0.50069   0.20976   0.00000  Uiso   1.00
H1849  H     0.46305   0.98791   0.27495   0.00000  Uiso   1.00
H1850  H     0.28599   0.54577   0.02500   0.00000  Uiso   1.00
H1851  H     0.44192   0.94767   0.25511   0.00000  Uiso   1.00
H1852  H     0.41904   0.97313   0.29263   0.00000  Uiso   1.00
H1853  H     0.13056   0.96303   0.83976   0.00000  Uiso   1.00
H1854  H     0.14757   0.91815   0.83231   0.00000  Uiso   1.00
H1855  H     0.06654   0.93648   0.84893   0.00000  Uiso   1.00
H1856  H     0.08712   0.89182   0.84781   0.00000  Uiso   1.00
H1857  H     0.12687   0.90845   0.90411   0.00000  Uiso   1.00
H1858  H     0.07905   0.91256   0.91550   0.00000  Uiso   1.00
H1859  H     0.10550   0.95294   0.90599   0.00000  Uiso   1.00
H1860  H     0.47046   0.87320   0.16951   0.00000  Uiso   1.00
H1861  H     0.23806   0.55724   0.97409   0.00000  Uiso   1.00
H1862  H     0.45759   0.89506   0.21368   0.00000  Uiso   1.00
H1863  H     0.42982   0.91635   0.13155   0.00000  Uiso   1.00
H1864  H     0.42077   0.94039   0.17622   0.00000  Uiso   1.00
H1865  H     0.48790   0.95182   0.18448   0.00000  Uiso   1.00
H1866  H     0.46972   0.97108   0.14028   0.00000  Uiso   1.00
H1867  H     0.49592   0.92954   0.13823   0.00000  Uiso   1.00
H1868  H     0.08637   0.68285   0.85863   0.00000  Uiso   1.00
H1869  H     0.11190   0.69378   0.81618   0.00000  Uiso   1.00
H1870  H     0.13473   0.63571   0.87718   0.00000  Uiso   1.00
H1871  H     0.16194   0.65217   0.83719   0.00000  Uiso   1.00
H1872  H     0.44276   0.76196   0.02591   0.00000  Uiso   1.00
H1873  H     0.15999   0.71530   0.86661   0.00000  Uiso   1.00
H1874  H     0.18149   0.68176   0.89740   0.00000  Uiso   1.00
H1875  H     0.13573   0.69653   0.90789   0.00000  Uiso   1.00
H1876  H     0.12679   0.52953   0.83047   0.00000  Uiso   1.00
H1877  H     0.10493   0.54241   0.78630   0.00000  Uiso   1.00
H1878  H     0.08364   0.57016   0.86844   0.00000  Uiso   1.00
H1879  H     0.05959   0.57921   0.82377   0.00000  Uiso   1.00
H1880  H     0.04818   0.51208   0.81549   0.00000  Uiso   1.00
H1881  H     0.02891   0.53026   0.85970   0.00000  Uiso   1.00
H1882  H     0.07045   0.50406   0.86174   0.00000  Uiso   1.00
H1883  H     0.45423   0.71401   0.97500   0.00000  Uiso   1.00
H1884  H     0.31713   0.91361   0.14138   0.00000  Uiso   1.00
H1885  H     0.30621   0.88808   0.18383   0.00000  Uiso   1.00
H1886  H     0.36427   0.86525   0.12282   0.00000  Uiso   1.00
H1887  H     0.34782   0.83804   0.16282   0.00000  Uiso   1.00
H1888  H     0.28468   0.83999   0.13341   0.00000  Uiso   1.00
H1889  H     0.31822   0.81848   0.10262   0.00000  Uiso   1.00
H1890  H     0.30345   0.86424   0.09212   0.00000  Uiso   1.00
H1891  H     0.03380   0.89059   0.72384   0.00000  Uiso   1.00
H1892  H     0.05016   0.93456   0.74082   0.00000  Uiso   1.00
H1893  H     0.48453   0.89257   0.77389   0.00000  Uiso   1.00
H1894  H     0.46401   0.70423   0.52501   0.00000  Uiso   1.00
H1895  H     0.00071   0.93631   0.79022   0.00000  Uiso   1.00
H1896  H     0.48793   0.96303   0.72499   0.00000  Uiso   1.00
H1897  H     0.44769   0.94197   0.74490   0.00000  Uiso   1.00
H1898  H     0.47309   0.91900   0.70739   0.00000  Uiso   1.00
H1899  H     0.46302   0.63056   0.16022   0.00000  Uiso   1.00
H1900  H     0.41814   0.64758   0.16769   0.00000  Uiso   1.00
H1901  H     0.43644   0.56655   0.15105   0.00000  Uiso   1.00
H1902  H     0.39179   0.58714   0.15219   0.00000  Uiso   1.00
H1903  H     0.40843   0.62689   0.09589   0.00000  Uiso   1.00
H1904  H     0.41252   0.57907   0.08450   0.00000  Uiso   1.00
O1905  O     0.25000   0.50000   0.25000   0.00000  Uiso   1.00
O1906  O     0.25000   0.96964   0.66317   0.00000  Uiso   1.00
O1907  O     0.46964   0.75000   0.33683   0.00000  Uiso   1.00
O1908  O     0.03036   0.75000   0.66317   0.00000  Uiso   1.00
O1909  O     0.00000   0.71964   0.83683   0.00000  Uiso   1.00
O1910  O     0.00000   0.78036   0.16317   0.00000  Uiso   1.00
O1911  O     0.28036   0.50000   0.83683   0.00000  Uiso   1.00
O1912  O     0.21964   0.50000   0.16317   0.00000  Uiso   1.00
O1913  O     0.00000   0.78036   0.83683   0.00000  Uiso   1.00
O1914  O     0.00000   0.71964   0.16317   0.00000  Uiso   1.00
O1915  O     0.21964   0.50000   0.83683   0.00000  Uiso   1.00
O1916  O     0.25000   0.50000   0.75000   0.00000  Uiso   1.00
O1917  O     0.28036   0.50000   0.16317   0.00000  Uiso   1.00
O1918  O     0.20726   0.57307   0.27282   0.00000  Uiso   1.00
O1919  O     0.29275   0.92693   0.72718   0.00000  Uiso   1.00
O1920  O     0.42693   0.70725   0.27282   0.00000  Uiso   1.00
O1921  O     0.07307   0.79274   0.72718   0.00000  Uiso   1.00
O1922  O     0.29275   0.92693   0.27282   0.00000  Uiso   1.00
O1923  O     0.20726   0.57307   0.72718   0.00000  Uiso   1.00
O1924  O     0.07307   0.79274   0.27282   0.00000  Uiso   1.00
O1925  O     0.42693   0.70725   0.72718   0.00000  Uiso   1.00
O1926  O     0.20726   0.92693   0.72718   0.00000  Uiso   1.00
O1927  O     0.00000   0.75000   0.25000   0.00000  Uiso   1.00
O1928  O     0.29275   0.57307   0.27282   0.00000  Uiso   1.00
O1929  O     0.42693   0.79274   0.72718   0.00000  Uiso   1.00
O1930  O     0.07307   0.70725   0.27282   0.00000  Uiso   1.00
O1931  O     0.29275   0.57307   0.72718   0.00000  Uiso   1.00
O1932  O     0.20726   0.92693   0.27282   0.00000  Uiso   1.00
O1933  O     0.07307   0.70725   0.72718   0.00000  Uiso   1.00
O1934  O     0.42693   0.79274   0.27282   0.00000  Uiso   1.00
O1935  O     0.45726   0.82307   0.77282   0.00000  Uiso   1.00
O1936  O     0.04275   0.67693   0.22718   0.00000  Uiso   1.00
O1937  O     0.17693   0.95725   0.77282   0.00000  Uiso   1.00
O1938  O     0.00000   0.75000   0.75000   0.00000  Uiso   1.00
O1939  O     0.32307   0.54275   0.22718   0.00000  Uiso   1.00
O1940  O     0.04275   0.67693   0.77282   0.00000  Uiso   1.00
O1941  O     0.45726   0.82307   0.22718   0.00000  Uiso   1.00
O1942  O     0.32307   0.54275   0.77282   0.00000  Uiso   1.00
O1943  O     0.17693   0.95725   0.22718   0.00000  Uiso   1.00
O1944  O     0.45726   0.67693   0.22718   0.00000  Uiso   1.00
O1945  O     0.04275   0.82307   0.77282   0.00000  Uiso   1.00
O1946  O     0.17693   0.54275   0.22718   0.00000  Uiso   1.00
O1947  O     0.32307   0.95725   0.77282   0.00000  Uiso   1.00
O1948  O     0.04275   0.82307   0.22718   0.00000  Uiso   1.00
O1949  O     0.25000   0.96964   0.33683   0.00000  Uiso   1.00
O1950  O     0.45726   0.67693   0.77282   0.00000  Uiso   1.00
O1951  O     0.32307   0.95725   0.22718   0.00000  Uiso   1.00
O1952  O     0.17693   0.54275   0.77282   0.00000  Uiso   1.00
O1953  O     0.10872   0.94387   0.22044   0.00000  Uiso   1.00
O1954  O     0.38864   0.56036   0.78986   0.00000  Uiso   1.00
O1955  O     0.08304   0.63474   0.18323   0.00000  Uiso   1.00
O1956  O     0.41139   0.85870   0.81925   0.00000  Uiso   1.00
O1957  O     0.39128   0.55614   0.22042   0.00000  Uiso   1.00
O1958  O     0.11137   0.93964   0.78987   0.00000  Uiso   1.00
O1959  O     0.41694   0.86523   0.18322   0.00000  Uiso   1.00
O1960  O     0.25000   0.53036   0.66317   0.00000  Uiso   1.00
O1961  O     0.08860   0.64129   0.81925   0.00000  Uiso   1.00
O1962  O     0.13475   0.58305   0.81678   0.00000  Uiso   1.00
O1963  O     0.35870   0.91139   0.18075   0.00000  Uiso   1.00
O1964  O     0.05613   0.89128   0.77957   0.00000  Uiso   1.00
O1965  O     0.43963   0.61137   0.21012   0.00000  Uiso   1.00
O1966  O     0.36524   0.91694   0.81678   0.00000  Uiso   1.00
O1967  O     0.14126   0.58857   0.18076   0.00000  Uiso   1.00
O1968  O     0.44387   0.60872   0.77957   0.00000  Uiso   1.00
O1969  O     0.06036   0.88864   0.21014   0.00000  Uiso   1.00
O1970  O     0.35873   0.69387   0.72043   0.00000  Uiso   1.00
O1971  O     0.03036   0.75000   0.33683   0.00000  Uiso   1.00
O1972  O     0.13863   0.81037   0.28988   0.00000  Uiso   1.00
O1973  O     0.33306   0.88476   0.68322   0.00000  Uiso   1.00
O1974  O     0.16143   0.60874   0.31924   0.00000  Uiso   1.00
O1975  O     0.14128   0.80613   0.72043   0.00000  Uiso   1.00
O1976  O     0.36136   0.68964   0.28986   0.00000  Uiso   1.00
O1977  O     0.16695   0.61525   0.68322   0.00000  Uiso   1.00
O1978  O     0.33861   0.89130   0.31925   0.00000  Uiso   1.00
O1979  O     0.38477   0.83306   0.31678   0.00000  Uiso   1.00
O1980  O     0.10871   0.66140   0.68076   0.00000  Uiso   1.00
O1981  O     0.30613   0.64129   0.27956   0.00000  Uiso   1.00
O1982  O     0.46964   0.75000   0.66317   0.00000  Uiso   1.00
O1983  O     0.18964   0.86136   0.71013   0.00000  Uiso   1.00
O1984  O     0.11526   0.66696   0.31677   0.00000  Uiso   1.00
O1985  O     0.39130   0.83861   0.68075   0.00000  Uiso   1.00
O1986  O     0.19386   0.85872   0.27958   0.00000  Uiso   1.00
O1987  O     0.31036   0.63863   0.71013   0.00000  Uiso   1.00
O1988  O     0.25000   0.53036   0.33683   0.00000  Uiso   1.00
Zn1989 Zn    0.20660   0.50000   0.21760   0.00000  Uiso   1.00
Zn1990 Zn    0.04340   0.75000   0.28240   0.00000  Uiso   1.00
Zn1991 Zn    0.25000   0.95660   0.71760   0.00000  Uiso   1.00
Zn1992 Zn    0.25000   0.54340   0.28240   0.00000  Uiso   1.00
Zn1993 Zn    0.04340   0.75000   0.71760   0.00000  Uiso   1.00
Zn1994 Zn    0.45660   0.75000   0.28240   0.00000  Uiso   1.00
Zn1995 Zn    0.25000   0.54340   0.71760   0.00000  Uiso   1.00
Zn1996 Zn    0.25000   0.95660   0.28240   0.00000  Uiso   1.00
Zn1997 Zn    0.29340   0.50000   0.78240   0.00000  Uiso   1.00
Zn1998 Zn    0.00000   0.70660   0.21760   0.00000  Uiso   1.00
Zn1999 Zn    0.00000   0.79340   0.78240   0.00000  Uiso   1.00
Zn2000 Zn    0.29340   0.50000   0.21760   0.00000  Uiso   1.00
Zn2001 Zn    0.20660   0.50000   0.78240   0.00000  Uiso   1.00
Zn2002 Zn    0.00000   0.79340   0.21760   0.00000  Uiso   1.00
Zn2003 Zn    0.00000   0.70660   0.78240   0.00000  Uiso   1.00
Zn2004 Zn    0.45660   0.75000   0.71760   0.00000  Uiso   1.00
C2005  C     0.72973   0.97408   0.04116   0.00000  Uiso   1.00
C2006  C     0.50667   0.71766   0.45811   0.00000  Uiso   1.00
C2007  C     0.84827   0.90173   0.75000   0.00000  Uiso   1.00
C2008  C     0.90175   0.65175   0.25000   0.00000  Uiso   1.00
C2009  C     0.59800   0.84800   0.75000   0.00000  Uiso   1.00
C2010  C     0.84796   0.90204   0.25000   0.00000  Uiso   1.00
C2011  C     0.65173   0.59827   0.75000   0.00000  Uiso   1.00
C2012  C     0.59796   0.65204   0.75000   0.00000  Uiso   1.00
C2013  C     0.90173   0.84827   0.25000   0.00000  Uiso   1.00
C2014  C     0.65175   0.90175   0.75000   0.00000  Uiso   1.00
C2015  C     0.84800   0.59800   0.25000   0.00000  Uiso   1.00
C2016  C     0.90204   0.84796   0.75000   0.00000  Uiso   1.00
C2017  C     0.78234   0.99332   0.54189   0.00000  Uiso   1.00
C2018  C     0.59827   0.65173   0.25000   0.00000  Uiso   1.00
C2019  C     0.84825   0.59825   0.75000   0.00000  Uiso   1.00
C2020  C     0.65200   0.90200   0.25000   0.00000  Uiso   1.00
C2021  C     0.75000   0.50000   0.10236   0.00000  Uiso   1.00
C2022  C     0.75000   0.50000   0.89719   0.00000  Uiso   1.00
C2023  C     0.50000   0.75000   0.10281   0.00000  Uiso   1.00
C2024  C     0.50000   0.75000   0.89764   0.00000  Uiso   1.00
C2025  C     0.50000   0.75000   0.60236   0.00000  Uiso   1.00
C2026  C     0.50000   0.75000   0.39719   0.00000  Uiso   1.00
C2027  C     0.75000   0.50000   0.60281   0.00000  Uiso   1.00
C2028  C     0.77592   0.52027   0.45884   0.00000  Uiso   1.00
C2029  C     0.75000   0.50000   0.39764   0.00000  Uiso   1.00
C2030  C     0.59126   0.96357   0.25039   0.00000  Uiso   1.00
C2031  C     0.58193   0.50159   0.23539   0.00000  Uiso   1.00
C2032  C     0.56334   0.52456   0.26660   0.00000  Uiso   1.00
C2033  C     0.87720   0.56439   0.82905   0.00000  Uiso   1.00
C2034  C     0.90803   0.57904   0.85468   0.00000  Uiso   1.00
C2035  C     0.89846   0.57602   0.89773   0.00000  Uiso   1.00
C2036  C     0.55209   0.61169   0.18380   0.00000  Uiso   1.00
C2037  C     0.55902   0.57671   0.16071   0.00000  Uiso   1.00
C2038  C     0.52407   0.55477   0.15574   0.00000  Uiso   1.00
C2039  C     0.52027   0.77592   0.54116   0.00000  Uiso   1.00
C2040  C     0.89413   0.82857   0.83710   0.00000  Uiso   1.00
C2041  C     0.85938   0.84023   0.85864   0.00000  Uiso   1.00
C2042  C     0.84471   0.80964   0.88417   0.00000  Uiso   1.00
C2043  C     0.90881   0.53645   0.25034   0.00000  Uiso   1.00
C2044  C     0.91798   0.99838   0.23538   0.00000  Uiso   1.00
C2045  C     0.93667   0.97544   0.26655   0.00000  Uiso   1.00
C2046  C     0.62280   0.93560   0.82905   0.00000  Uiso   1.00
C2047  C     0.59198   0.92095   0.85469   0.00000  Uiso   1.00
C2048  C     0.60155   0.92397   0.89774   0.00000  Uiso   1.00
C2049  C     0.94788   0.88829   0.18377   0.00000  Uiso   1.00
C2050  C     0.99333   0.78234   0.45811   0.00000  Uiso   1.00
C2051  C     0.94093   0.92327   0.16068   0.00000  Uiso   1.00
C2052  C     0.97587   0.94522   0.15569   0.00000  Uiso   1.00
C2053  C     0.60585   0.67142   0.83711   0.00000  Uiso   1.00
C2054  C     0.64061   0.65977   0.85863   0.00000  Uiso   1.00
C2055  C     0.65528   0.69036   0.88416   0.00000  Uiso   1.00
C2056  C     0.61169   0.55211   0.81621   0.00000  Uiso   1.00
C2057  C     0.57672   0.55905   0.83931   0.00000  Uiso   1.00
C2058  C     0.55477   0.52411   0.84429   0.00000  Uiso   1.00
C2059  C     0.82856   0.89413   0.16290   0.00000  Uiso   1.00
C2060  C     0.84021   0.85937   0.14138   0.00000  Uiso   1.00
C2061  C     0.71766   0.50668   0.54189   0.00000  Uiso   1.00
C2062  C     0.80961   0.84470   0.11586   0.00000  Uiso   1.00
C2063  C     0.53645   0.90879   0.74965   0.00000  Uiso   1.00
C2064  C     0.99838   0.91800   0.76462   0.00000  Uiso   1.00
C2065  C     0.97544   0.93667   0.73344   0.00000  Uiso   1.00
C2066  C     0.93559   0.62281   0.17094   0.00000  Uiso   1.00
C2067  C     0.92092   0.59200   0.14531   0.00000  Uiso   1.00
C2068  C     0.92393   0.60157   0.10225   0.00000  Uiso   1.00
C2069  C     0.88830   0.94788   0.81623   0.00000  Uiso   1.00
C2070  C     0.92327   0.94093   0.83932   0.00000  Uiso   1.00
C2071  C     0.94523   0.97587   0.84431   0.00000  Uiso   1.00
C2072  C     0.72408   0.97973   0.45884   0.00000  Uiso   1.00
C2073  C     0.67140   0.60580   0.16288   0.00000  Uiso   1.00
C2074  C     0.65977   0.64059   0.14139   0.00000  Uiso   1.00
C2075  C     0.69036   0.65524   0.11586   0.00000  Uiso   1.00
C2076  C     0.96355   0.59121   0.74964   0.00000  Uiso   1.00
C2077  C     0.50162   0.58201   0.76460   0.00000  Uiso   1.00
C2078  C     0.52457   0.56334   0.73342   0.00000  Uiso   1.00
C2079  C     0.56439   0.87721   0.17096   0.00000  Uiso   1.00
C2080  C     0.57903   0.90803   0.14532   0.00000  Uiso   1.00
C2081  C     0.57601   0.89846   0.10227   0.00000  Uiso   1.00
C2082  C     0.84118   0.71354   0.75034   0.00000  Uiso   1.00
C2083  C     0.72936   0.97355   0.08178   0.00000  Uiso   1.00
C2084  C     0.83205   0.75163   0.73540   0.00000  Uiso   1.00
C2085  C     0.81333   0.77457   0.76656   0.00000  Uiso   1.00
C2086  C     0.62719   0.81441   0.32906   0.00000  Uiso   1.00
C2087  C     0.65800   0.82908   0.35469   0.00000  Uiso   1.00
C2088  C     0.64843   0.82606   0.39775   0.00000  Uiso   1.00
C2089  C     0.80211   0.86170   0.68378   0.00000  Uiso   1.00
C2090  C     0.80906   0.82673   0.66068   0.00000  Uiso   1.00
C2091  C     0.77413   0.80477   0.65570   0.00000  Uiso   1.00
C2092  C     0.64419   0.57861   0.33712   0.00000  Uiso   1.00
C2093  C     0.60941   0.59024   0.35862   0.00000  Uiso   1.00
C2094  C     0.75677   0.96720   0.91752   0.00000  Uiso   1.00
C2095  C     0.59475   0.55964   0.38414   0.00000  Uiso   1.00
C2096  C     0.65878   0.78644   0.75036   0.00000  Uiso   1.00
C2097  C     0.66800   0.74838   0.73540   0.00000  Uiso   1.00
C2098  C     0.68666   0.72543   0.76658   0.00000  Uiso   1.00
C2099  C     0.87279   0.68561   0.32904   0.00000  Uiso   1.00
C2100  C     0.84197   0.67097   0.35467   0.00000  Uiso   1.00
C2101  C     0.85153   0.67399   0.39773   0.00000  Uiso   1.00
C2102  C     0.69789   0.63830   0.68379   0.00000  Uiso   1.00
C2103  C     0.69095   0.67328   0.66069   0.00000  Uiso   1.00
C2104  C     0.72589   0.69523   0.65571   0.00000  Uiso   1.00
C2105  C     0.53280   0.74322   0.08248   0.00000  Uiso   1.00
C2106  C     0.85587   0.92144   0.33710   0.00000  Uiso   1.00
C2107  C     0.89063   0.90978   0.35862   0.00000  Uiso   1.00
C2108  C     0.90530   0.94038   0.38415   0.00000  Uiso   1.00
C2109  C     0.86171   0.80212   0.31623   0.00000  Uiso   1.00
C2110  C     0.82673   0.80907   0.33932   0.00000  Uiso   1.00
C2111  C     0.80478   0.77413   0.34431   0.00000  Uiso   1.00
C2112  C     0.57858   0.64415   0.66289   0.00000  Uiso   1.00
C2113  C     0.59023   0.60939   0.64137   0.00000  Uiso   1.00
C2114  C     0.55964   0.59473   0.61584   0.00000  Uiso   1.00
C2115  C     0.78642   0.65872   0.24960   0.00000  Uiso   1.00
C2116  C     0.75667   0.96766   0.95811   0.00000  Uiso   1.00
C2117  C     0.52645   0.77063   0.91823   0.00000  Uiso   1.00
C2118  C     0.74841   0.66808   0.26461   0.00000  Uiso   1.00
C2119  C     0.72544   0.68666   0.23339   0.00000  Uiso   1.00
C2120  C     0.68560   0.87280   0.67095   0.00000  Uiso   1.00
C2121  C     0.67095   0.84198   0.64532   0.00000  Uiso   1.00
C2122  C     0.67397   0.85155   0.60226   0.00000  Uiso   1.00
C2123  C     0.63831   0.69791   0.31620   0.00000  Uiso   1.00
C2124  C     0.67329   0.69098   0.33928   0.00000  Uiso   1.00
C2125  C     0.69523   0.72593   0.34426   0.00000  Uiso   1.00
C2126  C     0.92143   0.85586   0.66290   0.00000  Uiso   1.00
C2127  C     0.90978   0.89062   0.64138   0.00000  Uiso   1.00
C2128  C     0.77064   0.52645   0.08177   0.00000  Uiso   1.00
C2129  C     0.94038   0.90529   0.61585   0.00000  Uiso   1.00
C2130  C     0.71355   0.84120   0.24966   0.00000  Uiso   1.00
C2131  C     0.75162   0.83200   0.26462   0.00000  Uiso   1.00
C2132  C     0.77456   0.81332   0.23345   0.00000  Uiso   1.00
C2133  C     0.81440   0.62719   0.67095   0.00000  Uiso   1.00
C2134  C     0.82906   0.65801   0.64531   0.00000  Uiso   1.00
C2135  C     0.82604   0.64844   0.60226   0.00000  Uiso   1.00
C2136  C     0.70712   0.94408   0.10176   0.00000  Uiso   1.00
C2137  C     0.73130   0.91541   0.12104   0.00000  Uiso   1.00
C2138  C     0.76375   0.93140   0.89681   0.00000  Uiso   1.00
C2139  C     0.74323   0.53280   0.91752   0.00000  Uiso   1.00
C2140  C     0.72820   0.91403   0.88325   0.00000  Uiso   1.00
C2141  C     0.56859   0.73623   0.10319   0.00000  Uiso   1.00
C2142  C     0.58597   0.77177   0.11676   0.00000  Uiso   1.00
C2143  C     0.55592   0.79288   0.89824   0.00000  Uiso   1.00
C2144  C     0.58459   0.76870   0.87896   0.00000  Uiso   1.00
C2145  C     0.79288   0.55592   0.10176   0.00000  Uiso   1.00
C2146  C     0.76869   0.58459   0.12104   0.00000  Uiso   1.00
C2147  C     0.73626   0.56860   0.89681   0.00000  Uiso   1.00
C2148  C     0.77180   0.58597   0.88325   0.00000  Uiso   1.00
C2149  C     0.93141   0.76377   0.10319   0.00000  Uiso   1.00
C2150  C     0.96720   0.75678   0.08248   0.00000  Uiso   1.00
C2151  C     0.91403   0.72823   0.11676   0.00000  Uiso   1.00
C2152  C     0.94408   0.70712   0.89824   0.00000  Uiso   1.00
C2153  C     0.91541   0.73130   0.87895   0.00000  Uiso   1.00
C2154  C     0.95712   0.69408   0.60176   0.00000  Uiso   1.00
C2155  C     0.98130   0.66541   0.62104   0.00000  Uiso   1.00
C2156  C     0.51376   0.68140   0.39681   0.00000  Uiso   1.00
C2157  C     0.97821   0.66403   0.38325   0.00000  Uiso   1.00
C2158  C     0.81859   0.98623   0.60319   0.00000  Uiso   1.00
C2159  C     0.83597   0.52176   0.61676   0.00000  Uiso   1.00
C2160  C     0.80592   0.54288   0.39824   0.00000  Uiso   1.00
C2161  C     0.97355   0.72937   0.91823   0.00000  Uiso   1.00
C2162  C     0.83459   0.51869   0.37895   0.00000  Uiso   1.00
C2163  C     0.54288   0.80592   0.60176   0.00000  Uiso   1.00
C2164  C     0.51870   0.83459   0.62104   0.00000  Uiso   1.00
C2165  C     0.98624   0.81860   0.39681   0.00000  Uiso   1.00
C2166  C     0.52179   0.83597   0.38325   0.00000  Uiso   1.00
C2167  C     0.68141   0.51377   0.60319   0.00000  Uiso   1.00
C2168  C     0.66403   0.97824   0.61676   0.00000  Uiso   1.00
C2169  C     0.69408   0.95713   0.39824   0.00000  Uiso   1.00
C2170  C     0.66540   0.98131   0.37896   0.00000  Uiso   1.00
C2171  C     0.97936   0.72355   0.58178   0.00000  Uiso   1.00
C2172  C     0.50677   0.71720   0.41752   0.00000  Uiso   1.00
C2173  C     0.78280   0.99322   0.58248   0.00000  Uiso   1.00
C2174  C     0.77645   0.52063   0.41823   0.00000  Uiso   1.00
C2175  C     0.52064   0.77645   0.58177   0.00000  Uiso   1.00
C2176  C     0.53234   0.74332   0.04189   0.00000  Uiso   1.00
C2177  C     0.99323   0.78280   0.41752   0.00000  Uiso   1.00
C2178  C     0.71720   0.50678   0.58248   0.00000  Uiso   1.00
C2179  C     0.72355   0.97937   0.41823   0.00000  Uiso   1.00
C2180  C     0.75000   0.50000   0.02095   0.00000  Uiso   1.00
C2181  C     0.75000   0.50000   0.97837   0.00000  Uiso   1.00
C2182  C     0.50000   0.75000   0.02163   0.00000  Uiso   1.00
C2183  C     0.50000   0.75000   0.97905   0.00000  Uiso   1.00
C2184  C     0.50000   0.75000   0.52095   0.00000  Uiso   1.00
C2185  C     0.50000   0.75000   0.47837   0.00000  Uiso   1.00
C2186  C     0.75000   0.50000   0.52163   0.00000  Uiso   1.00
C2187  C     0.52592   0.77027   0.95884   0.00000  Uiso   1.00
C2188  C     0.75000   0.50000   0.47905   0.00000  Uiso   1.00
C2189  C     0.75000   0.50000   0.35515   0.00000  Uiso   1.00
C2190  C     0.75000   0.50000   0.64503   0.00000  Uiso   1.00
C2191  C     0.50000   0.75000   0.35497   0.00000  Uiso   1.00
C2192  C     0.50000   0.75000   0.64485   0.00000  Uiso   1.00
C2193  C     0.50000   0.75000   0.85515   0.00000  Uiso   1.00
C2194  C     0.50000   0.75000   0.14503   0.00000  Uiso   1.00
C2195  C     0.75000   0.50000   0.85497   0.00000  Uiso   1.00
C2196  C     0.75000   0.50000   0.14485   0.00000  Uiso   1.00
C2197  C     0.68001   0.56999   0.25000   0.00000  Uiso   1.00
C2198  C     0.77027   0.52592   0.04116   0.00000  Uiso   1.00
C2199  C     0.82011   0.92989   0.75000   0.00000  Uiso   1.00
C2200  C     0.92989   0.67989   0.25000   0.00000  Uiso   1.00
C2201  C     0.57002   0.82002   0.75000   0.00000  Uiso   1.00
C2202  C     0.81999   0.93001   0.25000   0.00000  Uiso   1.00
C2203  C     0.67989   0.57011   0.75000   0.00000  Uiso   1.00
C2204  C     0.57011   0.82011   0.25000   0.00000  Uiso   1.00
C2205  C     0.92998   0.67998   0.75000   0.00000  Uiso   1.00
C2206  C     0.67989   0.92989   0.75000   0.00000  Uiso   1.00
C2207  C     0.82002   0.57002   0.25000   0.00000  Uiso   1.00
C2208  C     0.93001   0.81999   0.75000   0.00000  Uiso   1.00
C2209  C     0.74333   0.53234   0.95811   0.00000  Uiso   1.00
C2210  C     0.57011   0.67989   0.25000   0.00000  Uiso   1.00
C2211  C     0.82011   0.57011   0.75000   0.00000  Uiso   1.00
C2212  C     0.67998   0.92998   0.25000   0.00000  Uiso   1.00
C2213  C     0.56999   0.68001   0.75000   0.00000  Uiso   1.00
C2214  C     0.92989   0.82011   0.25000   0.00000  Uiso   1.00
C2215  C     0.61742   0.90959   0.23434   0.00000  Uiso   1.00
C2216  C     0.88162   0.59221   0.76958   0.00000  Uiso   1.00
C2217  C     0.60347   0.62971   0.21671   0.00000  Uiso   1.00
C2218  C     0.89421   0.86706   0.78448   0.00000  Uiso   1.00
C2219  C     0.88258   0.59041   0.23433   0.00000  Uiso   1.00
C2220  C     0.96766   0.75668   0.04189   0.00000  Uiso   1.00
C2221  C     0.61838   0.90779   0.76958   0.00000  Uiso   1.00
C2222  C     0.89651   0.87028   0.21670   0.00000  Uiso   1.00
C2223  C     0.60579   0.63293   0.78448   0.00000  Uiso   1.00
C2224  C     0.62972   0.60348   0.78330   0.00000  Uiso   1.00
C2225  C     0.86706   0.89421   0.21552   0.00000  Uiso   1.00
C2226  C     0.59041   0.88258   0.76566   0.00000  Uiso   1.00
C2227  C     0.90779   0.61838   0.23041   0.00000  Uiso   1.00
C2228  C     0.87028   0.89651   0.78330   0.00000  Uiso   1.00
C2229  C     0.63292   0.60578   0.21552   0.00000  Uiso   1.00
C2230  C     0.90959   0.61742   0.76566   0.00000  Uiso   1.00
C2231  C     0.97408   0.72973   0.95884   0.00000  Uiso   1.00
C2232  C     0.59221   0.88162   0.23042   0.00000  Uiso   1.00
C2233  C     0.86742   0.65959   0.73433   0.00000  Uiso   1.00
C2234  C     0.63162   0.84221   0.26959   0.00000  Uiso   1.00
C2235  C     0.85349   0.87972   0.71670   0.00000  Uiso   1.00
C2236  C     0.64422   0.61708   0.28448   0.00000  Uiso   1.00
C2237  C     0.63258   0.84041   0.73434   0.00000  Uiso   1.00
C2238  C     0.86838   0.65779   0.26958   0.00000  Uiso   1.00
C2239  C     0.64652   0.62028   0.71670   0.00000  Uiso   1.00
C2240  C     0.85579   0.88294   0.28448   0.00000  Uiso   1.00
C2241  C     0.87972   0.85349   0.28330   0.00000  Uiso   1.00
C2242  C     0.97973   0.72408   0.54116   0.00000  Uiso   1.00
C2243  C     0.61707   0.64421   0.71552   0.00000  Uiso   1.00
C2244  C     0.84041   0.63258   0.26566   0.00000  Uiso   1.00
C2245  C     0.65779   0.86838   0.73042   0.00000  Uiso   1.00
C2246  C     0.62029   0.64653   0.28329   0.00000  Uiso   1.00
C2247  C     0.88294   0.85579   0.71552   0.00000  Uiso   1.00
C2248  C     0.65959   0.86742   0.26567   0.00000  Uiso   1.00
C2249  C     0.84221   0.63162   0.73042   0.00000  Uiso   1.00
C2250  C     0.59825   0.84825   0.25000   0.00000  Uiso   1.00
C2251  C     0.90200   0.65200   0.75000   0.00000  Uiso   1.00
C2252  C     0.65204   0.59796   0.25000   0.00000  Uiso   1.00
H2253  H     0.71401   0.95423   0.02500   0.00000  Uiso   1.00
H2254  H     0.51195   0.69276   0.47409   0.00000  Uiso   1.00
H2255  H     0.95290   0.60550   0.09399   0.00000  Uiso   1.00
H2256  H     0.87320   0.97046   0.83049   0.00000  Uiso   1.00
H2257  H     0.89506   0.95759   0.78631   0.00000  Uiso   1.00
H2258  H     0.91635   0.92982   0.86845   0.00000  Uiso   1.00
H2259  H     0.94040   0.92077   0.82377   0.00000  Uiso   1.00
H2260  H     0.95182   0.98790   0.81551   0.00000  Uiso   1.00
H2261  H     0.97109   0.96972   0.85972   0.00000  Uiso   1.00
H2262  H     0.92955   0.99592   0.86176   0.00000  Uiso   1.00
H2263  H     0.68279   0.58632   0.14135   0.00000  Uiso   1.00
H2264  H     0.69377   0.61182   0.18379   0.00000  Uiso   1.00
H2265  H     0.80724   0.98803   0.52591   0.00000  Uiso   1.00
H2266  H     0.63569   0.63474   0.12284   0.00000  Uiso   1.00
H2267  H     0.65219   0.66191   0.16284   0.00000  Uiso   1.00
H2268  H     0.71531   0.65993   0.13340   0.00000  Uiso   1.00
H2269  H     0.68178   0.68147   0.10264   0.00000  Uiso   1.00
H2270  H     0.69651   0.63570   0.09211   0.00000  Uiso   1.00
H2271  H     0.96620   0.60941   0.72383   0.00000  Uiso   1.00
H2272  H     0.94984   0.56544   0.74082   0.00000  Uiso   1.00
H2273  H     0.51547   0.60743   0.77387   0.00000  Uiso   1.00
H2274  H     0.99930   0.56370   0.79021   0.00000  Uiso   1.00
H2275  H     0.51208   0.53698   0.72497   0.00000  Uiso   1.00
H2276  H     0.79577   0.53599   0.47500   0.00000  Uiso   1.00
H2277  H     0.55232   0.55805   0.74487   0.00000  Uiso   1.00
H2278  H     0.52690   0.58101   0.70736   0.00000  Uiso   1.00
H2279  H     0.53696   0.86945   0.16025   0.00000  Uiso   1.00
H2280  H     0.58185   0.85244   0.16769   0.00000  Uiso   1.00
H2281  H     0.56350   0.93347   0.15108   0.00000  Uiso   1.00
H2282  H     0.60816   0.91290   0.15220   0.00000  Uiso   1.00
H2283  H     0.59153   0.87316   0.09589   0.00000  Uiso   1.00
H2284  H     0.58741   0.92097   0.08452   0.00000  Uiso   1.00
H2285  H     0.54704   0.89452   0.09402   0.00000  Uiso   1.00
H2286  H     0.85934   0.71615   0.77619   0.00000  Uiso   1.00
H2287  H     0.53599   0.79577   0.52500   0.00000  Uiso   1.00
H2288  H     0.81539   0.69985   0.75909   0.00000  Uiso   1.00
H2289  H     0.85751   0.76547   0.72621   0.00000  Uiso   1.00
H2290  H     0.81380   0.74936   0.70974   0.00000  Uiso   1.00
H2291  H     0.78692   0.76213   0.77487   0.00000  Uiso   1.00
H2292  H     0.80815   0.80235   0.75514   0.00000  Uiso   1.00
H2293  H     0.83091   0.77681   0.79268   0.00000  Uiso   1.00
H2294  H     0.61944   0.78698   0.33978   0.00000  Uiso   1.00
H2295  H     0.60242   0.83186   0.33231   0.00000  Uiso   1.00
H2296  H     0.68345   0.81355   0.34895   0.00000  Uiso   1.00
H2297  H     0.66286   0.85820   0.34781   0.00000  Uiso   1.00
H2298  H     0.98804   0.80724   0.47409   0.00000  Uiso   1.00
H2299  H     0.62311   0.84157   0.40411   0.00000  Uiso   1.00
H2300  H     0.67093   0.83748   0.41550   0.00000  Uiso   1.00
H2301  H     0.64450   0.79710   0.40601   0.00000  Uiso   1.00
H2302  H     0.77954   0.87680   0.66953   0.00000  Uiso   1.00
H2303  H     0.79242   0.85493   0.71369   0.00000  Uiso   1.00
H2304  H     0.82016   0.83366   0.63154   0.00000  Uiso   1.00
H2305  H     0.82923   0.80960   0.67621   0.00000  Uiso   1.00
H2306  H     0.76211   0.79817   0.68450   0.00000  Uiso   1.00
H2307  H     0.78027   0.77892   0.64028   0.00000  Uiso   1.00
H2308  H     0.75407   0.82045   0.63826   0.00000  Uiso   1.00
H2309  H     0.69276   0.51197   0.52591   0.00000  Uiso   1.00
H2310  H     0.66367   0.56721   0.35865   0.00000  Uiso   1.00
H2311  H     0.63817   0.55623   0.31621   0.00000  Uiso   1.00
H2312  H     0.61527   0.61431   0.37717   0.00000  Uiso   1.00
H2313  H     0.58809   0.59782   0.33716   0.00000  Uiso   1.00
H2314  H     0.59006   0.53470   0.36660   0.00000  Uiso   1.00
H2315  H     0.56853   0.56823   0.39737   0.00000  Uiso   1.00
H2316  H     0.61430   0.55350   0.40789   0.00000  Uiso   1.00
H2317  H     0.64057   0.78379   0.77616   0.00000  Uiso   1.00
H2318  H     0.68454   0.80016   0.75920   0.00000  Uiso   1.00
H2319  H     0.64258   0.73453   0.72611   0.00000  Uiso   1.00
H2320  H     0.70423   0.96401   0.47500   0.00000  Uiso   1.00
H2321  H     0.68632   0.75071   0.70980   0.00000  Uiso   1.00
H2322  H     0.71300   0.73793   0.77506   0.00000  Uiso   1.00
H2323  H     0.69196   0.69769   0.75512   0.00000  Uiso   1.00
H2324  H     0.66897   0.72308   0.79262   0.00000  Uiso   1.00
H2325  H     0.88055   0.71305   0.33975   0.00000  Uiso   1.00
H2326  H     0.89755   0.66816   0.33231   0.00000  Uiso   1.00
H2327  H     0.81653   0.68650   0.34892   0.00000  Uiso   1.00
H2328  H     0.83709   0.64184   0.34780   0.00000  Uiso   1.00
H2329  H     0.87684   0.65847   0.40411   0.00000  Uiso   1.00
H2330  H     0.82903   0.66259   0.41548   0.00000  Uiso   1.00
H2331  H     0.60955   0.96629   0.27612   0.00000  Uiso   1.00
H2332  H     0.85548   0.70296   0.40598   0.00000  Uiso   1.00
H2333  H     0.72047   0.62321   0.66953   0.00000  Uiso   1.00
H2334  H     0.70759   0.64507   0.71370   0.00000  Uiso   1.00
H2335  H     0.67984   0.66636   0.63156   0.00000  Uiso   1.00
H2336  H     0.67079   0.69040   0.67623   0.00000  Uiso   1.00
H2337  H     0.73792   0.70182   0.68451   0.00000  Uiso   1.00
H2338  H     0.71975   0.72109   0.64030   0.00000  Uiso   1.00
H2339  H     0.74594   0.67955   0.63826   0.00000  Uiso   1.00
H2340  H     0.83640   0.93287   0.35862   0.00000  Uiso   1.00
H2341  H     0.86193   0.94379   0.31617   0.00000  Uiso   1.00
H2342  H     0.56555   0.94982   0.25934   0.00000  Uiso   1.00
H2343  H     0.88475   0.88572   0.37718   0.00000  Uiso   1.00
H2344  H     0.91196   0.90218   0.33718   0.00000  Uiso   1.00
H2345  H     0.91002   0.96532   0.36659   0.00000  Uiso   1.00
H2346  H     0.93152   0.93177   0.39739   0.00000  Uiso   1.00
H2347  H     0.88576   0.94655   0.40788   0.00000  Uiso   1.00
H2348  H     0.87680   0.77954   0.33049   0.00000  Uiso   1.00
H2349  H     0.85494   0.79241   0.28632   0.00000  Uiso   1.00
H2350  H     0.83365   0.82018   0.36845   0.00000  Uiso   1.00
H2351  H     0.80961   0.82923   0.32377   0.00000  Uiso   1.00
H2352  H     0.79818   0.76210   0.31552   0.00000  Uiso   1.00
H2353  H     0.60729   0.51547   0.22598   0.00000  Uiso   1.00
H2354  H     0.77892   0.78028   0.35972   0.00000  Uiso   1.00
H2355  H     0.82046   0.75409   0.36177   0.00000  Uiso   1.00
H2356  H     0.56715   0.66363   0.64138   0.00000  Uiso   1.00
H2357  H     0.55623   0.63809   0.68382   0.00000  Uiso   1.00
H2358  H     0.61429   0.61527   0.62281   0.00000  Uiso   1.00
H2359  H     0.59784   0.58806   0.66280   0.00000  Uiso   1.00
H2360  H     0.53470   0.59001   0.63339   0.00000  Uiso   1.00
H2361  H     0.56824   0.56851   0.60259   0.00000  Uiso   1.00
H2362  H     0.55348   0.61428   0.59210   0.00000  Uiso   1.00
H2363  H     0.78368   0.64042   0.22389   0.00000  Uiso   1.00
H2364  H     0.76195   0.94276   0.97409   0.00000  Uiso   1.00
H2365  H     0.56352   0.99919   0.20987   0.00000  Uiso   1.00
H2366  H     0.80018   0.68442   0.24062   0.00000  Uiso   1.00
H2367  H     0.73452   0.64273   0.27405   0.00000  Uiso   1.00
H2368  H     0.75083   0.68651   0.29011   0.00000  Uiso   1.00
H2369  H     0.73802   0.71289   0.22468   0.00000  Uiso   1.00
H2370  H     0.69776   0.69216   0.24492   0.00000  Uiso   1.00
H2371  H     0.72292   0.66883   0.20748   0.00000  Uiso   1.00
H2372  H     0.71304   0.88055   0.66024   0.00000  Uiso   1.00
H2373  H     0.66815   0.89756   0.66769   0.00000  Uiso   1.00
H2374  H     0.68648   0.81654   0.65107   0.00000  Uiso   1.00
H2375  H     0.64183   0.83711   0.65220   0.00000  Uiso   1.00
H2376  H     0.53710   0.51198   0.27528   0.00000  Uiso   1.00
H2377  H     0.65846   0.87686   0.59589   0.00000  Uiso   1.00
H2378  H     0.66257   0.82904   0.58451   0.00000  Uiso   1.00
H2379  H     0.70294   0.85549   0.59401   0.00000  Uiso   1.00
H2380  H     0.62321   0.72049   0.33044   0.00000  Uiso   1.00
H2381  H     0.64507   0.70761   0.28628   0.00000  Uiso   1.00
H2382  H     0.66638   0.67987   0.36842   0.00000  Uiso   1.00
H2383  H     0.69043   0.67083   0.32374   0.00000  Uiso   1.00
H2384  H     0.70182   0.73796   0.31546   0.00000  Uiso   1.00
H2385  H     0.72110   0.71979   0.35967   0.00000  Uiso   1.00
H2386  H     0.67955   0.74597   0.36172   0.00000  Uiso   1.00
H2387  H     0.55785   0.55225   0.25507   0.00000  Uiso   1.00
H2388  H     0.93286   0.83638   0.64138   0.00000  Uiso   1.00
H2389  H     0.94378   0.86192   0.68382   0.00000  Uiso   1.00
H2390  H     0.88572   0.88474   0.62282   0.00000  Uiso   1.00
H2391  H     0.90218   0.91195   0.66281   0.00000  Uiso   1.00
H2392  H     0.96531   0.91001   0.63340   0.00000  Uiso   1.00
H2393  H     0.93177   0.93151   0.60261   0.00000  Uiso   1.00
H2394  H     0.94654   0.88574   0.59211   0.00000  Uiso   1.00
H2395  H     0.71620   0.85940   0.22384   0.00000  Uiso   1.00
H2396  H     0.69983   0.81544   0.24084   0.00000  Uiso   1.00
H2397  H     0.76547   0.85742   0.27389   0.00000  Uiso   1.00
H2398  H     0.58115   0.52707   0.29252   0.00000  Uiso   1.00
H2399  H     0.74929   0.81369   0.29023   0.00000  Uiso   1.00
H2400  H     0.76207   0.78696   0.22500   0.00000  Uiso   1.00
H2401  H     0.80231   0.80802   0.24491   0.00000  Uiso   1.00
H2402  H     0.77691   0.83099   0.20739   0.00000  Uiso   1.00
H2403  H     0.78697   0.61944   0.66024   0.00000  Uiso   1.00
H2404  H     0.83186   0.60243   0.66769   0.00000  Uiso   1.00
H2405  H     0.81353   0.68345   0.65106   0.00000  Uiso   1.00
H2406  H     0.85818   0.66288   0.65219   0.00000  Uiso   1.00
H2407  H     0.84155   0.62313   0.59589   0.00000  Uiso   1.00
H2408  H     0.83745   0.67094   0.58450   0.00000  Uiso   1.00
H2409  H     0.86945   0.53696   0.83975   0.00000  Uiso   1.00
H2410  H     0.79707   0.64450   0.59400   0.00000  Uiso   1.00
H2411  H     0.75023   0.90356   0.09929   0.00000  Uiso   1.00
H2412  H     0.74724   0.92719   0.14533   0.00000  Uiso   1.00
H2413  H     0.71408   0.89325   0.13298   0.00000  Uiso   1.00
H2414  H     0.68806   0.95605   0.12326   0.00000  Uiso   1.00
H2415  H     0.68956   0.92975   0.08035   0.00000  Uiso   1.00
H2416  H     0.70985   0.90937   0.90843   0.00000  Uiso   1.00
H2417  H     0.71412   0.93164   0.86176   0.00000  Uiso   1.00
H2418  H     0.73412   0.88742   0.86926   0.00000  Uiso   1.00
H2419  H     0.78226   0.93542   0.87165   0.00000  Uiso   1.00
H2420  H     0.85244   0.58185   0.83231   0.00000  Uiso   1.00
H2421  H     0.77776   0.91191   0.91655   0.00000  Uiso   1.00
H2422  H     0.59064   0.79013   0.09158   0.00000  Uiso   1.00
H2423  H     0.56837   0.78585   0.13825   0.00000  Uiso   1.00
H2424  H     0.61258   0.76584   0.13074   0.00000  Uiso   1.00
H2425  H     0.56457   0.71772   0.12835   0.00000  Uiso   1.00
H2426  H     0.58808   0.72221   0.08345   0.00000  Uiso   1.00
H2427  H     0.59644   0.74977   0.90072   0.00000  Uiso   1.00
H2428  H     0.57281   0.75275   0.85468   0.00000  Uiso   1.00
H2429  H     0.60675   0.78592   0.86702   0.00000  Uiso   1.00
H2430  H     0.54395   0.81193   0.87673   0.00000  Uiso   1.00
H2431  H     0.93347   0.56350   0.84892   0.00000  Uiso   1.00
H2432  H     0.57025   0.81044   0.91965   0.00000  Uiso   1.00
H2433  H     0.74978   0.59645   0.09927   0.00000  Uiso   1.00
H2434  H     0.75274   0.57281   0.14531   0.00000  Uiso   1.00
H2435  H     0.78592   0.60675   0.13299   0.00000  Uiso   1.00
H2436  H     0.81193   0.54395   0.12327   0.00000  Uiso   1.00
H2437  H     0.81044   0.57025   0.08035   0.00000  Uiso   1.00
H2438  H     0.79016   0.59063   0.90844   0.00000  Uiso   1.00
H2439  H     0.78588   0.56836   0.86177   0.00000  Uiso   1.00
H2440  H     0.76588   0.61258   0.86926   0.00000  Uiso   1.00
H2441  H     0.71775   0.56458   0.87165   0.00000  Uiso   1.00
H2442  H     0.91290   0.60816   0.84780   0.00000  Uiso   1.00
H2443  H     0.72224   0.58809   0.91655   0.00000  Uiso   1.00
H2444  H     0.90936   0.70987   0.09158   0.00000  Uiso   1.00
H2445  H     0.93163   0.71415   0.13825   0.00000  Uiso   1.00
H2446  H     0.88742   0.73416   0.13075   0.00000  Uiso   1.00
H2447  H     0.93543   0.78228   0.12835   0.00000  Uiso   1.00
H2448  H     0.91192   0.77779   0.08345   0.00000  Uiso   1.00
H2449  H     0.90356   0.75023   0.90071   0.00000  Uiso   1.00
H2450  H     0.92719   0.74724   0.85467   0.00000  Uiso   1.00
H2451  H     0.89325   0.71407   0.86702   0.00000  Uiso   1.00
H2452  H     0.95605   0.68806   0.87674   0.00000  Uiso   1.00
H2453  H     0.87315   0.59154   0.90411   0.00000  Uiso   1.00
H2454  H     0.92975   0.68956   0.91965   0.00000  Uiso   1.00
H2455  H     0.50023   0.65356   0.59928   0.00000  Uiso   1.00
H2456  H     0.99725   0.67719   0.64533   0.00000  Uiso   1.00
H2457  H     0.96408   0.64325   0.63299   0.00000  Uiso   1.00
H2458  H     0.93807   0.70605   0.62327   0.00000  Uiso   1.00
H2459  H     0.93956   0.67975   0.58035   0.00000  Uiso   1.00
H2460  H     0.95986   0.65936   0.40843   0.00000  Uiso   1.00
H2461  H     0.96414   0.68163   0.36176   0.00000  Uiso   1.00
H2462  H     0.98414   0.63742   0.36926   0.00000  Uiso   1.00
H2463  H     0.53227   0.68542   0.37165   0.00000  Uiso   1.00
H2464  H     0.92097   0.58741   0.91549   0.00000  Uiso   1.00
H2465  H     0.52777   0.66191   0.41655   0.00000  Uiso   1.00
H2466  H     0.84064   0.54012   0.59158   0.00000  Uiso   1.00
H2467  H     0.81837   0.53584   0.63825   0.00000  Uiso   1.00
H2468  H     0.86258   0.51583   0.63075   0.00000  Uiso   1.00
H2469  H     0.81457   0.96771   0.62835   0.00000  Uiso   1.00
H2470  H     0.83808   0.97221   0.58345   0.00000  Uiso   1.00
H2471  H     0.84644   0.99977   0.40071   0.00000  Uiso   1.00
H2472  H     0.82281   0.50276   0.35467   0.00000  Uiso   1.00
H2473  H     0.85675   0.53592   0.36702   0.00000  Uiso   1.00
H2474  H     0.79395   0.56193   0.37674   0.00000  Uiso   1.00
H2475  H     0.55724   0.73804   0.02591   0.00000  Uiso   1.00
H2476  H     0.89451   0.54705   0.90598   0.00000  Uiso   1.00
H2477  H     0.82026   0.56044   0.41965   0.00000  Uiso   1.00
H2478  H     0.99978   0.84644   0.59929   0.00000  Uiso   1.00
H2479  H     0.50276   0.82281   0.64533   0.00000  Uiso   1.00
H2480  H     0.53593   0.85675   0.63299   0.00000  Uiso   1.00
H2481  H     0.56194   0.79395   0.62326   0.00000  Uiso   1.00
H2482  H     0.56044   0.82025   0.58035   0.00000  Uiso   1.00
H2483  H     0.54013   0.84065   0.40844   0.00000  Uiso   1.00
H2484  H     0.53587   0.81837   0.36177   0.00000  Uiso   1.00
H2485  H     0.51586   0.86258   0.36925   0.00000  Uiso   1.00
H2486  H     0.96773   0.81458   0.37165   0.00000  Uiso   1.00
H2487  H     0.52951   0.62679   0.16956   0.00000  Uiso   1.00
H2488  H     0.97222   0.83808   0.41655   0.00000  Uiso   1.00
H2489  H     0.65936   0.95988   0.59158   0.00000  Uiso   1.00
H2490  H     0.68163   0.96416   0.63825   0.00000  Uiso   1.00
H2491  H     0.63742   0.98417   0.63075   0.00000  Uiso   1.00
H2492  H     0.68543   0.53229   0.62835   0.00000  Uiso   1.00
H2493  H     0.66192   0.52779   0.58345   0.00000  Uiso   1.00
H2494  H     0.65355   0.50023   0.40073   0.00000  Uiso   1.00
H2495  H     0.67719   0.99726   0.35468   0.00000  Uiso   1.00
H2496  H     0.64325   0.96409   0.36701   0.00000  Uiso   1.00
H2497  H     0.70604   0.93807   0.37673   0.00000  Uiso   1.00
H2498  H     0.54240   0.60493   0.21372   0.00000  Uiso   1.00
H2499  H     0.67974   0.93956   0.41965   0.00000  Uiso   1.00
H2500  H     0.57012   0.58363   0.13157   0.00000  Uiso   1.00
H2501  H     0.57918   0.55958   0.17625   0.00000  Uiso   1.00
H2502  H     0.51205   0.54818   0.18453   0.00000  Uiso   1.00
H2503  H     0.53021   0.52891   0.14032   0.00000  Uiso   1.00
H2504  H     0.50403   0.57045   0.13828   0.00000  Uiso   1.00
H2505  H     0.91361   0.81712   0.85861   0.00000  Uiso   1.00
H2506  H     0.88805   0.80622   0.81617   0.00000  Uiso   1.00
H2507  H     0.54577   0.78599   0.97500   0.00000  Uiso   1.00
H2508  H     0.86527   0.86429   0.87719   0.00000  Uiso   1.00
H2509  H     0.83804   0.84784   0.83721   0.00000  Uiso   1.00
H2510  H     0.83998   0.78470   0.86662   0.00000  Uiso   1.00
H2511  H     0.81850   0.81825   0.89742   0.00000  Uiso   1.00
H2512  H     0.86426   0.80346   0.90790   0.00000  Uiso   1.00
H2513  H     0.89062   0.53382   0.27617   0.00000  Uiso   1.00
H2514  H     0.93458   0.55016   0.25913   0.00000  Uiso   1.00
H2515  H     0.89255   0.98453   0.22614   0.00000  Uiso   1.00
H2516  H     0.93627   0.50069   0.20976   0.00000  Uiso   1.00
H2517  H     0.96305   0.98791   0.27495   0.00000  Uiso   1.00
H2518  H     0.78599   0.54577   0.02500   0.00000  Uiso   1.00
H2519  H     0.94192   0.94767   0.25511   0.00000  Uiso   1.00
H2520  H     0.91904   0.97313   0.29263   0.00000  Uiso   1.00
H2521  H     0.63056   0.96303   0.83976   0.00000  Uiso   1.00
H2522  H     0.64757   0.91815   0.83231   0.00000  Uiso   1.00
H2523  H     0.56654   0.93648   0.84893   0.00000  Uiso   1.00
H2524  H     0.58712   0.89182   0.84781   0.00000  Uiso   1.00
H2525  H     0.62687   0.90845   0.90411   0.00000  Uiso   1.00
H2526  H     0.57905   0.91256   0.91550   0.00000  Uiso   1.00
H2527  H     0.60550   0.95294   0.90599   0.00000  Uiso   1.00
H2528  H     0.97046   0.87320   0.16951   0.00000  Uiso   1.00
H2529  H     0.73806   0.55724   0.97409   0.00000  Uiso   1.00
H2530  H     0.95759   0.89506   0.21368   0.00000  Uiso   1.00
H2531  H     0.92982   0.91635   0.13155   0.00000  Uiso   1.00
H2532  H     0.92077   0.94039   0.17622   0.00000  Uiso   1.00
H2533  H     0.98790   0.95182   0.18448   0.00000  Uiso   1.00
H2534  H     0.96972   0.97108   0.14028   0.00000  Uiso   1.00
H2535  H     0.99592   0.92954   0.13823   0.00000  Uiso   1.00
H2536  H     0.58637   0.68285   0.85863   0.00000  Uiso   1.00
H2537  H     0.61190   0.69378   0.81618   0.00000  Uiso   1.00
H2538  H     0.63473   0.63571   0.87718   0.00000  Uiso   1.00
H2539  H     0.66194   0.65217   0.83719   0.00000  Uiso   1.00
H2540  H     0.94276   0.76196   0.02591   0.00000  Uiso   1.00
H2541  H     0.65999   0.71530   0.86661   0.00000  Uiso   1.00
H2542  H     0.68149   0.68176   0.89740   0.00000  Uiso   1.00
H2543  H     0.63573   0.69653   0.90789   0.00000  Uiso   1.00
H2544  H     0.62679   0.52953   0.83047   0.00000  Uiso   1.00
H2545  H     0.60493   0.54241   0.78630   0.00000  Uiso   1.00
H2546  H     0.58364   0.57016   0.86844   0.00000  Uiso   1.00
H2547  H     0.55959   0.57921   0.82377   0.00000  Uiso   1.00
H2548  H     0.54818   0.51208   0.81549   0.00000  Uiso   1.00
H2549  H     0.52891   0.53026   0.85970   0.00000  Uiso   1.00
H2550  H     0.57045   0.50406   0.86174   0.00000  Uiso   1.00
H2551  H     0.95423   0.71401   0.97500   0.00000  Uiso   1.00
H2552  H     0.81713   0.91361   0.14138   0.00000  Uiso   1.00
H2553  H     0.80621   0.88808   0.18383   0.00000  Uiso   1.00
H2554  H     0.86427   0.86525   0.12282   0.00000  Uiso   1.00
H2555  H     0.84782   0.83804   0.16282   0.00000  Uiso   1.00
H2556  H     0.78468   0.83999   0.13341   0.00000  Uiso   1.00
H2557  H     0.81822   0.81848   0.10262   0.00000  Uiso   1.00
H2558  H     0.80345   0.86424   0.09212   0.00000  Uiso   1.00
H2559  H     0.53380   0.89059   0.72384   0.00000  Uiso   1.00
H2560  H     0.55016   0.93456   0.74082   0.00000  Uiso   1.00
H2561  H     0.98453   0.89257   0.77389   0.00000  Uiso   1.00
H2562  H     0.96401   0.70423   0.52501   0.00000  Uiso   1.00
H2563  H     0.50071   0.93631   0.79022   0.00000  Uiso   1.00
H2564  H     0.98793   0.96303   0.72499   0.00000  Uiso   1.00
H2565  H     0.94769   0.94197   0.74490   0.00000  Uiso   1.00
H2566  H     0.97309   0.91900   0.70739   0.00000  Uiso   1.00
H2567  H     0.96302   0.63056   0.16022   0.00000  Uiso   1.00
H2568  H     0.91814   0.64758   0.16769   0.00000  Uiso   1.00
H2569  H     0.93644   0.56655   0.15105   0.00000  Uiso   1.00
H2570  H     0.89179   0.58714   0.15219   0.00000  Uiso   1.00
H2571  H     0.90843   0.62689   0.09589   0.00000  Uiso   1.00
H2572  H     0.91252   0.57907   0.08450   0.00000  Uiso   1.00
O2573  O     0.75000   0.50000   0.25000   0.00000  Uiso   1.00
O2574  O     0.75000   0.96964   0.66317   0.00000  Uiso   1.00
O2575  O     0.96964   0.75000   0.33683   0.00000  Uiso   1.00
O2576  O     0.53036   0.75000   0.66317   0.00000  Uiso   1.00
O2577  O     0.50000   0.71964   0.83683   0.00000  Uiso   1.00
O2578  O     0.50000   0.78036   0.16317   0.00000  Uiso   1.00
O2579  O     0.78036   0.50000   0.83683   0.00000  Uiso   1.00
O2580  O     0.71964   0.50000   0.16317   0.00000  Uiso   1.00
O2581  O     0.50000   0.78036   0.83683   0.00000  Uiso   1.00
O2582  O     0.50000   0.71964   0.16317   0.00000  Uiso   1.00
O2583  O     0.71964   0.50000   0.83683   0.00000  Uiso   1.00
O2584  O     0.75000   0.50000   0.75000   0.00000  Uiso   1.00
O2585  O     0.78036   0.50000   0.16317   0.00000  Uiso   1.00
O2586  O     0.70726   0.57307   0.27282   0.00000  Uiso   1.00
O2587  O     0.79275   0.92693   0.72718   0.00000  Uiso   1.00
O2588  O     0.92693   0.70725   0.27282   0.00000  Uiso   1.00
O2589  O     0.57307   0.79274   0.72718   0.00000  Uiso   1.00
O2590  O     0.79275   0.92693   0.27282   0.00000  Uiso   1.00
O2591  O     0.70726   0.57307   0.72718   0.00000  Uiso   1.00
O2592  O     0.57307   0.79274   0.27282   0.00000  Uiso   1.00
O2593  O     0.92693   0.70725   0.72718   0.00000  Uiso   1.00
O2594  O     0.70726   0.92693   0.72718   0.00000  Uiso   1.00
O2595  O     0.50000   0.75000   0.25000   0.00000  Uiso   1.00
O2596  O     0.79275   0.57307   0.27282   0.00000  Uiso   1.00
O2597  O     0.92693   0.79274   0.72718   0.00000  Uiso   1.00
O2598  O     0.57307   0.70725   0.27282   0.00000  Uiso   1.00
O2599  O     0.79275   0.57307   0.72718   0.00000  Uiso   1.00
O2600  O     0.70726   0.92693   0.27282   0.00000  Uiso   1.00
O2601  O     0.57307   0.70725   0.72718   0.00000  Uiso   1.00
O2602  O     0.92693   0.79274   0.27282   0.00000  Uiso   1.00
O2603  O     0.95726   0.82307   0.77282   0.00000  Uiso   1.00
O2604  O     0.54275   0.67693   0.22718   0.00000  Uiso   1.00
O2605  O     0.67693   0.95725   0.77282   0.00000  Uiso   1.00
O2606  O     0.50000   0.75000   0.75000   0.00000  Uiso   1.00
O2607  O     0.82307   0.54275   0.22718   0.00000  Uiso   1.00
O2608  O     0.54275   0.67693   0.77282   0.00000  Uiso   1.00
O2609  O     0.95726   0.82307   0.22718   0.00000  Uiso   1.00
O2610  O     0.82307   0.54275   0.77282   0.00000  Uiso   1.00
O2611  O     0.67693   0.95725   0.22718   0.00000  Uiso   1.00
O2612  O     0.95726   0.67693   0.22718   0.00000  Uiso   1.00
O2613  O     0.54275   0.82307   0.77282   0.00000  Uiso   1.00
O2614  O     0.67693   0.54275   0.22718   0.00000  Uiso   1.00
O2615  O     0.82307   0.95725   0.77282   0.00000  Uiso   1.00
O2616  O     0.54275   0.82307   0.22718   0.00000  Uiso   1.00
O2617  O     0.75000   0.96964   0.33683   0.00000  Uiso   1.00
O2618  O     0.95726   0.67693   0.77282   0.00000  Uiso   1.00
O2619  O     0.82307   0.95725   0.22718   0.00000  Uiso   1.00
O2620  O     0.67693   0.54275   0.77282   0.00000  Uiso   1.00
O2621  O     0.60872   0.94387   0.22044   0.00000  Uiso   1.00
O2622  O     0.88864   0.56036   0.78986   0.00000  Uiso   1.00
O2623  O     0.58304   0.63474   0.18323   0.00000  Uiso   1.00
O2624  O     0.91139   0.85870   0.81925   0.00000  Uiso   1.00
O2625  O     0.89128   0.55614   0.22042   0.00000  Uiso   1.00
O2626  O     0.61137   0.93964   0.78987   0.00000  Uiso   1.00
O2627  O     0.91694   0.86523   0.18322   0.00000  Uiso   1.00
O2628  O     0.75000   0.53036   0.66317   0.00000  Uiso   1.00
O2629  O     0.58860   0.64129   0.81925   0.00000  Uiso   1.00
O2630  O     0.63475   0.58305   0.81678   0.00000  Uiso   1.00
O2631  O     0.85870   0.91139   0.18075   0.00000  Uiso   1.00
O2632  O     0.55613   0.89128   0.77957   0.00000  Uiso   1.00
O2633  O     0.93963   0.61137   0.21012   0.00000  Uiso   1.00
O2634  O     0.86524   0.91694   0.81678   0.00000  Uiso   1.00
O2635  O     0.64126   0.58857   0.18076   0.00000  Uiso   1.00
O2636  O     0.94387   0.60872   0.77957   0.00000  Uiso   1.00
O2637  O     0.56036   0.88864   0.21014   0.00000  Uiso   1.00
O2638  O     0.85873   0.69387   0.72043   0.00000  Uiso   1.00
O2639  O     0.53036   0.75000   0.33683   0.00000  Uiso   1.00
O2640  O     0.63863   0.81037   0.28988   0.00000  Uiso   1.00
O2641  O     0.83306   0.88476   0.68322   0.00000  Uiso   1.00
O2642  O     0.66143   0.60874   0.31924   0.00000  Uiso   1.00
O2643  O     0.64128   0.80613   0.72043   0.00000  Uiso   1.00
O2644  O     0.86136   0.68964   0.28986   0.00000  Uiso   1.00
O2645  O     0.66695   0.61525   0.68322   0.00000  Uiso   1.00
O2646  O     0.83861   0.89130   0.31925   0.00000  Uiso   1.00
O2647  O     0.88477   0.83306   0.31678   0.00000  Uiso   1.00
O2648  O     0.60871   0.66140   0.68076   0.00000  Uiso   1.00
O2649  O     0.80613   0.64129   0.27956   0.00000  Uiso   1.00
O2650  O     0.96964   0.75000   0.66317   0.00000  Uiso   1.00
O2651  O     0.68964   0.86136   0.71013   0.00000  Uiso   1.00
O2652  O     0.61526   0.66696   0.31677   0.00000  Uiso   1.00
O2653  O     0.89130   0.83861   0.68075   0.00000  Uiso   1.00
O2654  O     0.69386   0.85872   0.27958   0.00000  Uiso   1.00
O2655  O     0.81036   0.63863   0.71013   0.00000  Uiso   1.00
O2656  O     0.75000   0.53036   0.33683   0.00000  Uiso   1.00
Zn2657 Zn    0.70660   0.50000   0.21760   0.00000  Uiso   1.00
Zn2658 Zn    0.54340   0.75000   0.28240   0.00000  Uiso   1.00
Zn2659 Zn    0.75000   0.95660   0.71760   0.00000  Uiso   1.00
Zn2660 Zn    0.75000   0.54340   0.28240   0.00000  Uiso   1.00
Zn2661 Zn    0.54340   0.75000   0.71760   0.00000  Uiso   1.00
Zn2662 Zn    0.95660   0.75000   0.28240   0.00000  Uiso   1.00
Zn2663 Zn    0.75000   0.54340   0.71760   0.00000  Uiso   1.00
Zn2664 Zn    0.75000   0.95660   0.28240   0.00000  Uiso   1.00
Zn2665 Zn    0.79340   0.50000   0.78240   0.00000  Uiso   1.00
Zn2666 Zn    0.50000   0.70660   0.21760   0.00000  Uiso   1.00
Zn2667 Zn    0.50000   0.79340   0.78240   0.00000  Uiso   1.00
Zn2668 Zn    0.79340   0.50000   0.21760   0.00000  Uiso   1.00
Zn2669 Zn    0.70660   0.50000   0.78240   0.00000  Uiso   1.00
Zn2670 Zn    0.50000   0.79340   0.21760   0.00000  Uiso   1.00
Zn2671 Zn    0.50000   0.70660   0.78240   0.00000  Uiso   1.00
Zn2672 Zn    0.95660   0.75000   0.71760   0.00000  Uiso   1.00
loop_
_geom_bond_atom_site_label_1
_geom_bond_atom_site_label_2
_geom_bond_distance
_geom_bond_site_symmetry_2
_ccdc_geom_bond_type
C1     C79     1.397   .     A
C1     H249    1.084   .     S
C1     C1512   1.395   .     A
C2     C168    1.396   .     A
C2     H250    1.084   .     S
C2     C181    1.398   .     S
C3     C224    1.415   .     A
C3     C195    1.461   .     S
C3     C231    1.415   .     A
C4     C196    1.463   .     S
C4     C223    1.416   .     A
C4     C234    1.416   .     A
C5     C197    1.455   .     S
C5     C222    1.407   .     A
C5     C233    1.407   .     A
C6     C236    1.407   .     A
C6     C221    1.407   .     A
C6     C198    1.451   .     S
C7     C220    1.415   .     A
C7     C235    1.415   .     A
C7     C199    1.461   .     S
C8     C219    1.407   .     A
C8     C209    1.451   .     S
C8     C239    1.407   .     A
C9     C218    1.415   .     A
C9     C210    1.461   .     S
C9     C237    1.415   .     A
C10    C202    1.463   .     S
C10    C241    1.416   .     A
C10    C217    1.415   .     A
C11    C240    1.407   .     A
C11    C215    1.407   .     A
C11    C203    1.455   .     S
C12    C214    1.407   .     A
C12    C204    1.451   .     S
C12    C243    1.407   .     A
C13    C169    1.396   .     A
C13    C1518   1.398   .     A
C13    H261    1.084   .     S
C14    C213    1.415   .     A
C14    C206    1.461   .     S
C14    C242    1.415   .     A
C15    C212    1.416   .     A
C15    C207    1.463   .     S
C15    C245    1.416   .     A
C16    C211    1.407   .     A
C16    C244    1.407   .     A
C16    C208    1.455   .     S
C17    C124    1.422   .     A
C17    C192    1.461   .     S
C17    C1415   1.422   1_545 S
C18    C191    1.452   .     S
C18    C1426   1.415   1_545 A
C18    C135    1.415   .     S
C19    C814    1.415   1_455 A
C19    C190    1.452   .     S
C19    C101    1.415   .     S
C20    C825    1.422   1_455 A
C20    C113    1.422   .     S
C20    C189    1.461   .     S
C21    C171    1.422   .     A
C21    C835    1.422   1_455 S
C21    C188    1.461   .     S
C22    C841    1.415   1_455 A
C22    C187    1.452   .     S
C22    C168    1.415   .     S
C23    C1505   1.415   1_545 A
C23    C174    1.415   .     S
C23    C186    1.452   .     S
C24    H272    1.084   .     S
C24    C170    1.397   .     A
C24    C184    1.395   .     S
C25    C185    1.461   .     S
C25    C170    1.422   .     A
C25    C1511   1.422   1_545 S
C26    O617    1.412   .     S
C26    H327    1.116   .     S
C26    H338    1.115   .     S
C26    C1363   1.527   .     S
C27    H349    1.111   .     S
C27    C28     1.526   .     S
C27    C1362   1.527   1_545 S
C27    H1697   1.111   1_545 S
C28    H372    1.111   .     S
C28    H383    1.109   .     S
C28    H394    1.110   .     S
C29    O618    1.419   .     S
C29    C30     1.533   .     S
C29    H405    1.110   .     S
C29    H416    1.117   .     S
C30    C31     1.526   .     S
C30    H427    1.111   .     S
C30    H438    1.110   .     S
C31    H460    1.110   .     S
C31    H472    1.111   .     S
C31    H449    1.111   .     S
C32    O619    1.419   .     S
C32    H494    1.117   .     S
C32    C33     1.531   .     S
C32    H483    1.111   .     S
C33    C34     1.527   .     S
C33    H497    1.108   .     S
C33    H496    1.112   .     S
C34    H498    1.111   .     S
C34    H499    1.110   .     S
C34    H500    1.110   .     S
C35    H283    1.084   .     S
C35    C171    1.397   .     A
C35    C180    1.395   .     S
C36    O620    1.417   .     S
C36    C37     1.536   .     S
C36    H501    1.111   .     S
C36    H502    1.115   .     S
C37    C38     1.525   .     S
C37    H505    1.111   .     S
C37    H504    1.112   .     S
C38    H506    1.111   .     S
C38    H507    1.110   .     S
C38    H508    1.110   .     S
C39    H510    1.115   .     S
C39    H509    1.116   .     S
C39    O621    1.412   .     S
C39    C1376   1.527   1_545 S
C40    H511    1.111   .     S
C40    C41     1.526   .     S
C40    C1375   1.527   .     S
C40    H1848   1.111   .     S
C41    H516    1.110   .     S
C41    H513    1.111   .     S
C41    H515    1.109   .     S
C42    H517    1.110   .     S
C42    H518    1.117   .     S
C42    O622    1.419   .     S
C42    C43     1.533   .     S
C43    C44     1.526   .     S
C43    H520    1.110   .     S
C43    H519    1.111   .     S
C44    H521    1.111   .     S
C44    H523    1.111   .     S
C44    H522    1.110   .     S
C45    H524    1.111   .     S
C45    C47     1.531   .     S
C45    H526    1.117   .     S
C45    O623    1.419   .     S
C46    C849    1.398   .     A
C46    H294    1.084   .     S
C46    C173    1.396   .     A
C47    H527    1.112   .     S
C47    H528    1.108   .     S
C47    C48     1.527   .     S
C48    H531    1.110   .     S
C48    H530    1.110   .     S
C48    H529    1.111   .     S
C49    H533    1.115   .     S
C49    C50     1.536   .     S
C49    O625    1.417   .     S
C49    H532    1.111   .     S
C50    H535    1.111   .     S
C50    C51     1.525   .     S
C50    H534    1.112   .     S
C51    H538    1.110   .     S
C51    H539    1.110   .     S
C51    H537    1.111   .     S
C52    O626    1.419   .     S
C52    H541    1.117   .     S
C52    C53     1.531   .     S
C52    H540    1.111   .     S
C53    H543    1.108   .     S
C53    H542    1.112   .     S
C53    C54     1.527   .     S
C54    H544    1.111   .     S
C54    H546    1.110   .     S
C54    H545    1.110   .     S
C55    O627    1.417   .     S
C55    C56     1.536   .     S
C55    H549    1.115   .     S
C55    H548    1.111   .     S
C56    H551    1.111   .     S
C56    H550    1.112   .     S
C56    C58     1.525   .     S
C57    C174    1.396   .     A
C57    H305    1.084   .     S
C57    C182    1.398   .     S
C58    H554    1.110   .     S
C58    H552    1.111   .     S
C58    H553    1.110   .     S
C59    H555    1.116   .     S
C59    O628    1.412   .     S
C59    H556    1.115   .     S
C59    C728    1.527   1_455 S
C60    C61     1.526   .     S
C60    H557    1.111   .     S
C60    C727    1.527   .     S
C60    H1227   1.112   .     S
C61    H562    1.110   .     S
C61    H560    1.111   .     S
C61    H561    1.109   .     S
C62    O629    1.419   .     S
C62    H563    1.110   .     S
C62    H564    1.117   .     S
C62    C63     1.533   .     S
C63    H565    1.111   .     S
C63    H566    1.110   .     S
C63    C64     1.526   .     S
C64    H568    1.110   .     S
C64    H567    1.111   .     S
C64    H251    1.111   .     S
C65    H253    1.117   .     S
C65    O630    1.419   .     S
C65    H252    1.111   .     S
C65    C66     1.531   .     S
C66    H254    1.112   .     S
C66    C67     1.527   .     S
C66    H255    1.108   .     S
C67    H258    1.110   .     S
C67    H256    1.111   .     S
C67    H257    1.110   .     S
C68    H316    1.084   .     S
C68    C1520   1.395   .     A
C68    C175    1.397   .     A
C69    H260    1.115   .     S
C69    C70     1.536   .     S
C69    O631    1.417   .     S
C69    H259    1.111   .     S
C70    H262    1.112   .     S
C70    C71     1.525   .     S
C70    H263    1.111   .     S
C71    H264    1.111   .     S
C71    H266    1.110   .     S
C71    H265    1.110   .     S
C72    H268    1.115   .     S
C72    O632    1.412   .     S
C72    H267    1.116   .     S
C72    C741    1.527   .     S
C73    C74     1.526   .     S
C73    H269    1.111   .     S
C73    C740    1.527   1_455 S
C73    H938    1.111   1_455 S
C74    H274    1.110   .     S
C74    H273    1.109   .     S
C74    H271    1.111   .     S
C75    H275    1.110   .     S
C75    O633    1.419   .     S
C75    H276    1.117   .     S
C75    C76     1.533   .     S
C76    H277    1.111   .     S
C76    C77     1.526   .     S
C76    H278    1.110   .     S
C77    H281    1.111   .     S
C77    H280    1.110   .     S
C77    H279    1.111   .     S
C78    O634    1.412   .     S
C78    H284    1.115   .     S
C78    C80     1.527   .     S
C78    H282    1.116   .     S
C79    C132    1.522   .     S
C79    C1353   1.422   .     S
C80    H286    1.111   .     S
C80    H285    1.111   .     S
C80    C81     1.526   .     S
C81    H288    1.109   .     S
C81    H289    1.110   .     S
C81    H287    1.111   .     S
C82    H291    1.117   .     S
C82    C83     1.533   .     S
C82    H290    1.110   .     S
C82    O636    1.419   .     S
C83    C84     1.526   .     S
C83    H292    1.111   .     S
C83    H293    1.110   .     S
C84    H295    1.111   .     S
C84    H297    1.111   .     S
C84    H296    1.110   .     S
C85    O637    1.419   .     S
C85    H299    1.117   .     S
C85    C86     1.531   .     S
C85    H298    1.111   .     S
C86    H301    1.108   .     S
C86    H300    1.111   .     S
C86    C87     1.527   .     S
C87    H303    1.110   .     S
C87    H304    1.110   .     S
C87    H302    1.111   .     S
C88    O638    1.417   .     S
C88    C89     1.536   .     S
C88    H306    1.111   .     S
C88    H307    1.115   .     S
C89    C91     1.525   .     S
C89    H308    1.112   .     S
C89    H309    1.111   .     S
C90    C134    1.516   .     S
C90    C1354   1.415   .     A
C90    C112    1.396   .     A
C91    H312    1.110   .     S
C91    H310    1.111   .     S
C91    H311    1.110   .     S
C92    H313    1.116   .     S
C92    O639    1.412   .     S
C92    C93     1.527   .     S
C92    H314    1.115   .     S
C93    H317    1.112   .     S
C93    H315    1.111   .     S
C93    C94     1.526   .     S
C94    H320    1.110   .     S
C94    H318    1.111   .     S
C94    H319    1.109   .     S
C95    H321    1.110   .     S
C95    C96     1.533   .     S
C95    O640    1.419   .     S
C95    H322    1.117   .     S
C96    H323    1.111   .     S
C96    H324    1.110   .     S
C96    C97     1.526   .     S
C97    H325    1.111   .     S
C97    H326    1.110   .     S
C97    H328    1.111   .     S
C98    C99     1.531   .     S
C98    H330    1.117   .     S
C98    O641    1.419   .     S
C98    H329    1.111   .     S
C99    C100    1.527   .     S
C99    H332    1.108   .     S
C99    H331    1.112   .     S
C100   H335    1.110   .     S
C100   H334    1.110   .     S
C100   H333    1.111   .     S
C101   C137    1.516   .     S
C101   C172    1.396   .     A
C102   H336    1.111   .     S
C102   C103    1.536   .     S
C102   H337    1.115   .     S
C102   O642    1.417   .     S
C103   H340    1.111   .     S
C103   H339    1.112   .     S
C103   C104    1.525   .     S
C104   H341    1.111   .     S
C104   H342    1.110   .     S
C104   H343    1.110   .     S
C105   H344    1.111   .     S
C105   C106    1.531   .     S
C105   O643    1.419   .     S
C105   H345    1.117   .     S
C106   C107    1.527   .     S
C106   H346    1.112   .     S
C106   H347    1.108   .     S
C107   H350    1.110   .     S
C107   H348    1.111   .     S
C107   H351    1.110   .     S
C108   C109    1.536   .     S
C108   H352    1.111   .     S
C108   O644    1.417   .     S
C108   H353    1.115   .     S
C109   H354    1.112   .     S
C109   H355    1.111   .     S
C109   C110    1.525   .     S
C110   H357    1.110   .     S
C110   H356    1.111   .     S
C110   H358    1.110   .     S
C111   H359    1.116   .     S
C111   H362    1.115   .     S
C111   O645    1.412   .     S
C111   C114    1.527   .     S
C112   H360    1.084   .     S
C112   C1513   1.398   .     S
C113   C183    1.397   .     A
C113   C139    1.522   .     S
C114   C115    1.526   .     S
C114   H363    1.111   .     S
C114   H364    1.112   .     S
C115   H366    1.109   .     S
C115   H367    1.110   .     S
C115   H365    1.111   .     S
C116   O647    1.419   .     S
C116   H369    1.117   .     S
C116   H368    1.110   .     S
C116   C117    1.533   .     S
C117   H370    1.111   .     S
C117   C118    1.526   .     S
C117   H371    1.110   .     S
C118   H375    1.111   .     S
C118   H373    1.111   .     S
C118   H374    1.110   .     S
C119   H376    1.111   .     S
C119   O648    1.419   .     S
C119   H377    1.117   .     S
C119   C120    1.531   .     S
C120   H378    1.112   .     S
C120   C121    1.527   .     S
C120   H379    1.108   .     S
C121   H381    1.110   .     S
C121   H380    1.111   .     S
C121   H382    1.110   .     S
C122   H385    1.115   .     S
C122   H384    1.111   .     S
C122   O649    1.417   .     S
C122   C123    1.536   .     S
C123   H386    1.112   .     S
C123   H387    1.111   .     S
C123   C125    1.525   .     S
C124   C194    1.397   .     A
C124   C141    1.522   .     S
C125   H390    1.110   .     S
C125   H389    1.110   .     S
C125   H388    1.111   .     S
C126   C127    1.527   .     S
C126   H391    1.116   .     S
C126   O650    1.412   .     S
C126   H392    1.115   .     S
C127   H395    1.111   .     S
C127   H393    1.111   .     S
C127   C128    1.526   .     S
C128   H398    1.110   .     S
C128   H396    1.111   .     S
C128   H397    1.109   .     S
C129   O651    1.419   .     S
C129   H399    1.110   .     S
C129   C130    1.533   .     S
C129   H400    1.117   .     S
C130   C131    1.526   .     S
C130   H402    1.110   .     S
C130   H401    1.111   .     S
C131   H406    1.111   .     S
C131   H404    1.110   .     S
C131   H403    1.111   .     S
C132   H411    1.112   .     S
C132   H410    1.108   .     S
C132   C133    1.528   .     S
C133   H409    1.111   .     S
C133   H407    1.110   .     S
C133   H408    1.108   .     S
C134   H417    1.112   .     S
C134   H415    1.111   .     S
C134   C136    1.527   .     S
C135   C205    1.396   .     A
C135   C143    1.516   .     S
C136   H412    1.111   .     S
C136   H413    1.109   .     S
C136   H414    1.110   .     S
C137   H421    1.111   .     S
C137   H422    1.112   .     S
C137   C138    1.527   .     S
C138   H420    1.110   .     S
C138   H418    1.111   .     S
C138   H419    1.109   .     S
C139   H428    1.112   .     S
C139   H426    1.108   .     S
C139   C140    1.528   .     S
C140   H424    1.108   .     S
C140   H425    1.111   .     S
C140   H423    1.110   .     S
C141   H433    1.112   .     S
C141   H432    1.108   .     S
C141   C142    1.528   .     S
C142   H430    1.108   .     S
C142   H431    1.111   .     S
C142   H429    1.110   .     S
C143   C144    1.527   .     S
C143   H439    1.112   .     S
C143   H437    1.111   .     S
C144   H435    1.109   .     S
C144   H436    1.110   .     S
C144   H434    1.111   .     S
C145   C146    1.516   .     S
C145   H443    1.111   .     S
C145   C147    1.527   .     S
C145   H444    1.112   .     S
C146   C687    1.415   .     A
C146   C216    1.396   .     A
C147   H441    1.109   .     S
C147   H442    1.110   .     S
C147   H440    1.111   .     S
C148   H450    1.112   .     S
C148   C149    1.528   .     S
C148   H448    1.108   .     S
C148   C157    1.522   .     S
C149   H447    1.111   .     S
C149   H445    1.110   .     S
C149   H446    1.108   .     S
C150   C151    1.528   .     S
C150   C167    1.522   .     S
C150   H455    1.112   .     S
C150   H454    1.108   .     S
C151   H453    1.111   .     S
C151   H452    1.108   .     S
C151   H1119   1.110   .     S
C152   H461    1.112   .     S
C152   C168    1.516   .     S
C152   H459    1.111   .     S
C152   C821    1.527   1_455 S
C153   H458    1.110   .     S
C153   H457    1.109   .     S
C153   H456    1.111   .     S
C153   C820    1.527   .     S
C154   H465    1.111   .     S
C154   C169    1.517   .     S
C154   H466    1.112   .     S
C154   C1491   1.527   .     S
C155   H462    1.111   .     S
C155   H463    1.109   .     S
C155   H464    1.110   .     S
C155   C1490   1.527   1_545 S
C156   C158    1.528   .     S
C156   C170    1.522   .     S
C156   H470    1.108   .     S
C156   H473    1.112   .     S
C157   C688    1.422   .     A
C157   C227    1.397   .     A
C158   H468    1.108   .     S
C158   H469    1.111   .     S
C158   H1803   1.110   1_545 S
C159   H478    1.112   .     S
C159   C171    1.522   .     S
C159   C160    1.528   .     S
C159   H477    1.108   .     S
C160   H476    1.111   .     S
C160   H475    1.108   .     S
C160   H1142   1.110   1_455 S
C161   H482    1.111   .     S
C161   H484    1.112   .     S
C161   C173    1.516   .     S
C161   C830    1.527   .     S
C162   H480    1.109   .     S
C162   H481    1.110   .     S
C162   H479    1.111   .     S
C162   C829    1.527   1_455 S
C163   H489    1.112   .     S
C163   H488    1.111   .     S
C163   C174    1.516   .     S
C163   C1500   1.527   1_545 S
C164   H486    1.109   .     S
C164   H487    1.110   .     S
C164   H485    1.111   .     S
C164   C1499   1.527   .     S
C165   H493    1.108   .     S
C165   H495    1.112   .     S
C165   C166    1.528   .     S
C165   C175    1.522   .     S
C166   H492    1.111   .     S
C166   H491    1.108   .     S
C166   H1826   1.110   .     S
C167   C238    1.397   .     A
C167   C689    1.422   .     S
C169   C1359   1.415   .     A
C172   H471    1.084   .     S
C172   C178    1.398   .     S
C173   C690    1.415   .     A
C175   C1361   1.422   .     S
C176   C1337   1.395   1_545 A
C176   C177    1.465   1_554 S
C176   C194    1.395   .     S
C177   C205    1.398   .     A
C177   C176    1.465   1_556 S
C177   C1448   1.398   1_545 S
C178   C884    1.398   1_455 A
C178   C179    1.465   1_554 S
C179   C895    1.395   1_455 A
C179   C178    1.465   1_556 S
C179   C183    1.395   .     S
C180   C906    1.395   1_455 A
C180   C181    1.465   .     S
C181   C714    1.398   1_455 A
C182   C184    1.465   .     S
C182   C1349   1.398   1_545 A
C183   H503    1.084   .     S
C184   C1404   1.395   1_545 A
C185   O652    1.281   .     A
C185   O1949   1.281   1_545 S
C186   O624    1.278   .     A
C186   O1906   1.278   1_545 S
C187   O1239   1.278   1_455 A
C187   O635    1.278   .     S
C188   O1314   1.281   1_455 A
C188   O572    1.281   .     S
C189   O573    1.281   .     A
C189   O577    1.281   .     A
C190   O578    1.278   .     A
C190   O574    1.278   .     S
C191   O575    1.278   .     S
C191   O579    1.278   .     S
C192   O581    1.281   .     A
C192   O576    1.281   .     A
C193   O610    1.277   .     A
C193   C248    1.451   .     S
C193   O582    1.277   .     A
C194   H514    1.084   .     S
C195   O611    1.280   .     A
C195   O583    1.280   .     A
C196   O608    1.280   .     A
C196   O584    1.280   .     A
C197   O609    1.277   .     A
C197   O585    1.277   .     A
C198   O586    1.277   .     A
C198   O615    1.277   .     A
C199   O616    1.280   .     A
C199   O587    1.280   .     A
C200   O588    1.280   .     A
C200   O612    1.280   .     A
C200   C246    1.463   .     S
C201   O614    1.277   .     A
C201   C247    1.455   .     S
C201   O589    1.277   .     A
C202   O590    1.280   .     A
C202   O601    1.280   .     A
C203   O603    1.277   .     A
C203   O592    1.277   .     A
C204   O599    1.277   .     A
C204   O593    1.277   .     A
C205   H525    1.084   .     S
C206   O600    1.280   .     A
C206   O594    1.280   .     A
C207   O606    1.280   .     A
C207   O595    1.280   .     A
C208   O607    1.277   .     A
C208   O596    1.277   .     A
C209   O604    1.277   .     A
C209   O597    1.277   .     A
C210   O605    1.280   .     A
C210   O598    1.280   .     A
C211   C228    1.391   .     A
C211   O617    1.383   .     S
C212   O618    1.386   .     S
C212   C226    1.391   .     A
C213   O619    1.386   .     S
C213   C225    1.393   .     A
C214   O620    1.386   .     S
C214   C224    1.393   .     A
C215   O621    1.383   .     S
C215   C223    1.391   .     A
C216   C846    1.398   .     A
C216   H536    1.084   .     S
C217   O622    1.386   .     S
C217   C222    1.391   .     A
C218   C221    1.393   .     A
C218   O623    1.386   .     S
C219   O625    1.386   .     S
C219   C220    1.393   .     A
C220   O626    1.386   .     S
C221   O627    1.386   .     S
C222   O628    1.383   .     S
C223   O629    1.386   .     S
C224   O630    1.386   .     S
C225   O631    1.386   .     S
C225   C248    1.407   .     A
C226   C247    1.407   .     A
C226   O632    1.383   .     S
C227   H547    1.084   .     S
C227   C847    1.395   .     A
C228   O633    1.386   .     S
C228   C246    1.415   .     A
C229   C245    1.391   .     A
C229   O634    1.383   .     S
C229   C247    1.407   .     A
C230   C246    1.416   .     A
C230   C244    1.391   .     A
C230   O636    1.386   .     S
C231   O637    1.386   .     S
C231   C243    1.393   .     A
C232   C248    1.407   .     A
C232   C242    1.393   .     A
C232   O638    1.386   .     S
C233   O639    1.383   .     S
C233   C241    1.391   .     A
C234   O640    1.386   .     S
C234   C240    1.391   .     A
C235   C239    1.393   .     A
C235   O641    1.386   .     S
C236   O642    1.386   .     S
C236   C237    1.393   .     A
C237   O643    1.386   .     S
C238   C848    1.395   .     A
C238   H558    1.084   .     S
C239   O644    1.386   .     S
C240   O645    1.383   .     S
C241   O647    1.386   .     S
C242   O648    1.386   .     S
C243   O649    1.386   .     S
C244   O650    1.383   .     S
C245   O651    1.386   .     S
H270   C741    1.111   .     S
H361   C1363   1.111   .     S
H451   C819    1.110   1_455 S
H467   C1494   1.110   .     S
H474   C828    1.110   .     S
H490   C1502   1.110   1_545 S
H512   C1376   1.111   1_545 S
H559   C728    1.112   1_455 S
O569   Zn653   1.945   .     S
O569   Zn664   1.945   .     S
O569   Zn656   1.945   .     S
O569   Zn1996  1.945   1_545 S
O570   Zn655   1.932   .     S
O570   C1522   1.278   .     S
O571   C855    1.278   .     A
O571   Zn658   1.932   .     S
O572   Zn657   1.932   .     S
O573   Zn667   1.932   .     S
O574   Zn666   1.932   .     S
O575   Zn661   1.932   .     S
O576   Zn653   1.932   .     S
O577   Zn663   1.932   .     S
O578   Zn662   1.932   .     S
O579   Zn665   1.932   .     S
O580   Zn659   1.945   .     S
O580   Zn661   1.945   .     S
O580   Zn665   1.945   .     S
O580   Zn1991  1.945   1_545 S
O581   Zn664   1.932   .     S
O582   Zn656   1.937   .     S
O583   Zn655   1.937   .     S
O584   Zn658   1.941   .     S
O585   Zn657   1.941   .     S
O586   Zn660   1.937   .     S
O587   Zn659   1.937   .     S
O588   Zn654   1.941   .     S
O589   Zn668   1.941   .     S
O590   Zn655   1.941   .     S
O591   Zn1326  1.945   1_455 S
O591   Zn662   1.945   .     S
O591   Zn654   1.945   .     S
O591   Zn666   1.945   .     S
O592   Zn656   1.941   .     S
O593   Zn668   1.937   .     S
O594   Zn654   1.937   .     S
O595   Zn659   1.941   .     S
O596   Zn660   1.941   .     S
O597   Zn657   1.937   .     S
O598   Zn658   1.937   .     S
O599   Zn1331  1.937   .     S
O600   Zn662   1.937   .     S
O601   Zn2001  1.941   .     S
O602   Zn657   1.945   .     S
O602   Zn663   1.945   .     S
O602   Zn667   1.945   .     S
O602   Zn1336  1.945   1_455 S
O603   Zn664   1.941   .     S
O604   Zn667   1.937   .     S
O605   Zn1334  1.937   .     S
O606   Zn661   1.941   .     S
O607   Zn1989  1.941   .     S
O608   Zn1330  1.941   .     S
O609   Zn663   1.941   .     S
O610   Zn653   1.937   .     S
O611   Zn1997  1.937   .     S
O612   Zn666   1.941   .     S
O613   Zn660   1.932   .     S
O613   C1521   1.281   .     S
O614   Zn1335  1.941   .     S
O615   Zn2000  1.937   .     S
O616   Zn665   1.937   .     S
O624   Zn659   1.932   .     S
O635   Zn654   1.932   .     S
O646   Zn668   1.932   .     S
O646   C856    1.281   .     A
O652   Zn656   1.932   .     S
Zn653  O1943   1.941   1_545 S
Zn655  O1916   1.945   .     S
Zn658  O1259   1.945   .     S
Zn660  O1905   1.945   .     S
Zn661  O1947   1.937   1_545 S
Zn662  O1276   1.941   1_455 S
Zn663  O1267   1.937   1_455 S
Zn664  O1951   1.937   1_545 S
Zn665  O1937   1.941   1_545 S
Zn666  O1273   1.937   1_455 S
Zn667  O1282   1.941   1_455 S
Zn668  O1270   1.945   .     S
C669   C747    1.397   .     A
C669   H917    1.084   .     S
C669   C2180   1.395   .     A
C670   C836    1.396   .     A
C670   H918    1.084   .     S
C670   C849    1.398   .     S
C671   C892    1.415   .     A
C671   C863    1.461   .     S
C671   C899    1.415   .     A
C672   C864    1.463   .     S
C672   C891    1.416   .     A
C672   C902    1.416   .     A
C673   C865    1.455   .     S
C673   C890    1.407   .     A
C673   C901    1.407   .     A
C674   C904    1.407   .     A
C674   C889    1.407   .     A
C674   C866    1.451   .     S
C675   C888    1.415   .     A
C675   C903    1.415   .     A
C675   C867    1.461   .     S
C676   C887    1.407   .     A
C676   C877    1.451   .     S
C676   C907    1.407   .     A
C677   C886    1.415   .     A
C677   C878    1.461   .     S
C677   C905    1.415   .     A
C678   C870    1.463   .     S
C678   C909    1.416   .     A
C678   C885    1.415   .     A
C679   C908    1.407   .     A
C679   C883    1.407   .     A
C679   C871    1.455   .     S
C680   C882    1.407   .     A
C680   C872    1.451   .     S
C680   C911    1.407   .     A
C681   C837    1.396   .     A
C681   C2186   1.398   .     A
C681   H929    1.084   .     S
C682   C881    1.415   .     A
C682   C874    1.461   .     S
C682   C910    1.415   .     A
C683   C880    1.416   .     A
C683   C875    1.463   .     S
C683   C913    1.416   .     A
C684   C879    1.407   .     A
C684   C912    1.407   .     A
C684   C876    1.455   .     S
C685   C792    1.422   .     A
C685   C860    1.461   .     S
C685   C2083   1.422   1_545 S
C686   C859    1.452   .     S
C686   C2094   1.415   1_545 A
C686   C803    1.415   .     S
C687   C858    1.452   .     S
C687   C769    1.415   .     S
C688   C781    1.422   .     S
C688   C857    1.461   .     S
C689   C839    1.422   .     A
C689   C856    1.461   .     S
C690   C855    1.452   .     S
C690   C836    1.415   .     S
C691   C2173   1.415   1_545 A
C691   C842    1.415   .     S
C691   C854    1.452   .     S
C692   H940    1.084   .     S
C692   C838    1.397   .     A
C692   C852    1.395   .     S
C693   C853    1.461   .     S
C693   C838    1.422   .     A
C693   C2179   1.422   1_545 S
C694   O1285   1.412   .     S
C694   H995    1.116   .     S
C694   H1006   1.115   .     S
C694   C2031   1.527   .     S
C695   H1017   1.111   .     S
C695   C696    1.526   .     S
C695   C2030   1.527   1_545 S
C695   H2365   1.111   1_545 S
C696   H1040   1.111   .     S
C696   H1051   1.109   .     S
C696   H1062   1.110   .     S
C697   O1286   1.419   .     S
C697   C698    1.533   .     S
C697   H1073   1.110   .     S
C697   H1084   1.117   .     S
C698   C699    1.526   .     S
C698   H1095   1.111   .     S
C698   H1106   1.110   .     S
C699   H1128   1.110   .     S
C699   H1140   1.111   .     S
C699   H1117   1.111   .     S
C700   O1287   1.419   .     S
C700   H1162   1.117   .     S
C700   C701    1.531   .     S
C700   H1151   1.111   .     S
C701   C702    1.527   .     S
C701   H1165   1.108   .     S
C701   H1164   1.112   .     S
C702   H1166   1.111   .     S
C702   H1167   1.110   .     S
C702   H1168   1.110   .     S
C703   H951    1.084   .     S
C703   C839    1.397   .     A
C703   C848    1.395   .     S
C704   O1288   1.417   .     S
C704   C705    1.536   .     S
C704   H1169   1.111   .     S
C704   H1170   1.115   .     S
C705   C706    1.525   .     S
C705   H1173   1.111   .     S
C705   H1172   1.112   .     S
C706   H1174   1.111   .     S
C706   H1175   1.110   .     S
C706   H1176   1.110   .     S
C707   H1178   1.115   .     S
C707   H1177   1.116   .     S
C707   O1289   1.412   .     S
C707   C2044   1.527   1_545 S
C708   H1179   1.111   .     S
C708   C709    1.526   .     S
C708   C2043   1.527   .     S
C708   H2516   1.111   .     S
C709   H1184   1.110   .     S
C709   H1181   1.111   .     S
C709   H1183   1.109   .     S
C710   H1185   1.110   .     S
C710   H1186   1.117   .     S
C710   O1290   1.419   .     S
C710   C711    1.533   .     S
C711   C712    1.526   .     S
C711   H1188   1.110   .     S
C711   H1187   1.111   .     S
C712   H1189   1.111   .     S
C712   H1191   1.111   .     S
C712   H1190   1.110   .     S
C713   H1192   1.111   .     S
C713   C715    1.531   .     S
C713   H1194   1.117   .     S
C713   O1291   1.419   .     S
C714   C181    1.398   1_655 A
C714   H962    1.084   .     S
C714   C841    1.396   .     A
C715   H1195   1.112   .     S
C715   H1196   1.108   .     S
C715   C716    1.527   .     S
C716   H1199   1.110   .     S
C716   H1198   1.110   .     S
C716   H1197   1.111   .     S
C717   H1201   1.115   .     S
C717   C718    1.536   .     S
C717   O1293   1.417   .     S
C717   H1200   1.111   .     S
C718   H1203   1.111   .     S
C718   C719    1.525   .     S
C718   H1202   1.112   .     S
C719   H1206   1.110   .     S
C719   H1207   1.110   .     S
C719   H1205   1.111   .     S
C720   O1294   1.419   .     S
C720   H1209   1.117   .     S
C720   C721    1.531   .     S
C720   H1208   1.111   .     S
C721   H1211   1.108   .     S
C721   H1210   1.112   .     S
C721   C722    1.527   .     S
C722   H1212   1.111   .     S
C722   H1214   1.110   .     S
C722   H1213   1.110   .     S
C723   O1295   1.417   .     S
C723   C724    1.536   .     S
C723   H1217   1.115   .     S
C723   H1216   1.111   .     S
C724   H1219   1.111   .     S
C724   H1218   1.112   .     S
C724   C726    1.525   .     S
C725   C842    1.396   .     A
C725   H973    1.084   .     S
C725   C850    1.398   .     S
C726   H1222   1.110   .     S
C726   H1220   1.111   .     S
C726   H1221   1.110   .     S
C727   H1223   1.116   .     S
C727   O1296   1.412   .     S
C727   H1224   1.115   .     S
C728   C729    1.526   .     S
C728   H1225   1.111   .     S
C728   C59     1.527   1_655 S
C728   H559    1.112   1_655 S
C729   H1230   1.110   .     S
C729   H1228   1.111   .     S
C729   H1229   1.109   .     S
C730   O1297   1.419   .     S
C730   H1231   1.110   .     S
C730   H1232   1.117   .     S
C730   C731    1.533   .     S
C731   H1233   1.111   .     S
C731   H1234   1.110   .     S
C731   C732    1.526   .     S
C732   H1236   1.110   .     S
C732   H1235   1.111   .     S
C732   H919    1.111   .     S
C733   H921    1.117   .     S
C733   O1298   1.419   .     S
C733   H920    1.111   .     S
C733   C734    1.531   .     S
C734   H922    1.112   .     S
C734   C735    1.527   .     S
C734   H923    1.108   .     S
C735   H926    1.110   .     S
C735   H924    1.111   .     S
C735   H925    1.110   .     S
C736   H984    1.084   .     S
C736   C2188   1.395   .     A
C736   C843    1.397   .     A
C737   H928    1.115   .     S
C737   C738    1.536   .     S
C737   O1299   1.417   .     S
C737   H927    1.111   .     S
C738   H930    1.112   .     S
C738   C739    1.525   .     S
C738   H931    1.111   .     S
C739   H932    1.111   .     S
C739   H934    1.110   .     S
C739   H933    1.110   .     S
C740   H936    1.115   .     S
C740   O1300   1.412   .     S
C740   H935    1.116   .     S
C740   C73     1.527   1_655 S
C741   C742    1.526   .     S
C741   H937    1.111   .     S
C742   H942    1.110   .     S
C742   H941    1.109   .     S
C742   H939    1.111   .     S
C743   H943    1.110   .     S
C743   O1301   1.419   .     S
C743   H944    1.117   .     S
C743   C744    1.533   .     S
C744   H945    1.111   .     S
C744   C745    1.526   .     S
C744   H946    1.110   .     S
C745   H949    1.111   .     S
C745   H948    1.110   .     S
C745   H947    1.111   .     S
C746   O1302   1.412   .     S
C746   H952    1.115   .     S
C746   C748    1.527   .     S
C746   H950    1.116   .     S
C747   C800    1.522   .     S
C747   C2021   1.422   .     S
C748   H954    1.111   .     S
C748   H953    1.111   .     S
C748   C749    1.526   .     S
C749   H956    1.109   .     S
C749   H957    1.110   .     S
C749   H955    1.111   .     S
C750   H959    1.117   .     S
C750   C751    1.533   .     S
C750   H958    1.110   .     S
C750   O1304   1.419   .     S
C751   C752    1.526   .     S
C751   H960    1.111   .     S
C751   H961    1.110   .     S
C752   H963    1.111   .     S
C752   H965    1.111   .     S
C752   H964    1.110   .     S
C753   O1305   1.419   .     S
C753   H967    1.117   .     S
C753   C754    1.531   .     S
C753   H966    1.111   .     S
C754   H969    1.108   .     S
C754   H968    1.111   .     S
C754   C755    1.527   .     S
C755   H971    1.110   .     S
C755   H972    1.110   .     S
C755   H970    1.111   .     S
C756   O1306   1.417   .     S
C756   C757    1.536   .     S
C756   H974    1.111   .     S
C756   H975    1.115   .     S
C757   C759    1.525   .     S
C757   H976    1.112   .     S
C757   H977    1.111   .     S
C758   C802    1.516   .     S
C758   C2022   1.415   .     A
C758   C780    1.396   .     A
C759   H980    1.110   .     S
C759   H978    1.111   .     S
C759   H979    1.110   .     S
C760   H981    1.116   .     S
C760   O1307   1.412   .     S
C760   C761    1.527   .     S
C760   H982    1.115   .     S
C761   H985    1.112   .     S
C761   H983    1.111   .     S
C761   C762    1.526   .     S
C762   H988    1.110   .     S
C762   H986    1.111   .     S
C762   H987    1.109   .     S
C763   H989    1.110   .     S
C763   C764    1.533   .     S
C763   O1308   1.419   .     S
C763   H990    1.117   .     S
C764   H991    1.111   .     S
C764   H992    1.110   .     S
C764   C765    1.526   .     S
C765   H993    1.111   .     S
C765   H994    1.110   .     S
C765   H996    1.111   .     S
C766   C767    1.531   .     S
C766   H998    1.117   .     S
C766   O1309   1.419   .     S
C766   H997    1.111   .     S
C767   C768    1.527   .     S
C767   H1000   1.108   .     S
C767   H999    1.112   .     S
C768   H1003   1.110   .     S
C768   H1002   1.110   .     S
C768   H1001   1.111   .     S
C769   C805    1.516   .     S
C769   C840    1.396   .     A
C770   H1004   1.111   .     S
C770   C771    1.536   .     S
C770   H1005   1.115   .     S
C770   O1310   1.417   .     S
C771   H1008   1.111   .     S
C771   H1007   1.112   .     S
C771   C772    1.525   .     S
C772   H1009   1.111   .     S
C772   H1010   1.110   .     S
C772   H1011   1.110   .     S
C773   H1012   1.111   .     S
C773   C774    1.531   .     S
C773   O1311   1.419   .     S
C773   H1013   1.117   .     S
C774   C775    1.527   .     S
C774   H1014   1.112   .     S
C774   H1015   1.108   .     S
C775   H1018   1.110   .     S
C775   H1016   1.111   .     S
C775   H1019   1.110   .     S
C776   C777    1.536   .     S
C776   H1020   1.111   .     S
C776   O1312   1.417   .     S
C776   H1021   1.115   .     S
C777   H1022   1.112   .     S
C777   H1023   1.111   .     S
C777   C778    1.525   .     S
C778   H1025   1.110   .     S
C778   H1024   1.111   .     S
C778   H1026   1.110   .     S
C779   H1027   1.116   .     S
C779   H1030   1.115   .     S
C779   O1313   1.412   .     S
C779   C782    1.527   .     S
C780   H1028   1.084   .     S
C780   C2181   1.398   .     S
C781   C851    1.397   .     A
C781   C807    1.522   .     S
C782   C783    1.526   .     S
C782   H1031   1.111   .     S
C782   H1032   1.112   .     S
C783   H1034   1.109   .     S
C783   H1035   1.110   .     S
C783   H1033   1.111   .     S
C784   O1315   1.419   .     S
C784   H1037   1.117   .     S
C784   H1036   1.110   .     S
C784   C785    1.533   .     S
C785   H1038   1.111   .     S
C785   C786    1.526   .     S
C785   H1039   1.110   .     S
C786   H1043   1.111   .     S
C786   H1041   1.111   .     S
C786   H1042   1.110   .     S
C787   H1044   1.111   .     S
C787   O1316   1.419   .     S
C787   H1045   1.117   .     S
C787   C788    1.531   .     S
C788   H1046   1.112   .     S
C788   C789    1.527   .     S
C788   H1047   1.108   .     S
C789   H1049   1.110   .     S
C789   H1048   1.111   .     S
C789   H1050   1.110   .     S
C790   H1053   1.115   .     S
C790   H1052   1.111   .     S
C790   O1317   1.417   .     S
C790   C791    1.536   .     S
C791   H1054   1.112   .     S
C791   H1055   1.111   .     S
C791   C793    1.525   .     S
C792   C862    1.397   .     A
C792   C809    1.522   .     S
C793   H1058   1.110   .     S
C793   H1057   1.110   .     S
C793   H1056   1.111   .     S
C794   C795    1.527   .     S
C794   H1059   1.116   .     S
C794   O1318   1.412   .     S
C794   H1060   1.115   .     S
C795   H1063   1.111   .     S
C795   H1061   1.111   .     S
C795   C796    1.526   .     S
C796   H1066   1.110   .     S
C796   H1064   1.111   .     S
C796   H1065   1.109   .     S
C797   O1319   1.419   .     S
C797   H1067   1.110   .     S
C797   C798    1.533   .     S
C797   H1068   1.117   .     S
C798   C799    1.526   .     S
C798   H1070   1.110   .     S
C798   H1069   1.111   .     S
C799   H1074   1.111   .     S
C799   H1072   1.110   .     S
C799   H1071   1.111   .     S
C800   H1079   1.112   .     S
C800   H1078   1.108   .     S
C800   C801    1.528   .     S
C801   H1077   1.111   .     S
C801   H1075   1.110   .     S
C801   H1076   1.108   .     S
C802   H1085   1.112   .     S
C802   H1083   1.111   .     S
C802   C804    1.527   .     S
C803   C873    1.396   .     A
C803   C811    1.516   .     S
C804   H1080   1.111   .     S
C804   H1081   1.109   .     S
C804   H1082   1.110   .     S
C805   H1089   1.111   .     S
C805   H1090   1.112   .     S
C805   C806    1.527   .     S
C806   H1088   1.110   .     S
C806   H1086   1.111   .     S
C806   H1087   1.109   .     S
C807   H1096   1.112   .     S
C807   H1094   1.108   .     S
C807   C808    1.528   .     S
C808   H1092   1.108   .     S
C808   H1093   1.111   .     S
C808   H1091   1.110   .     S
C809   H1101   1.112   .     S
C809   H1100   1.108   .     S
C809   C810    1.528   .     S
C810   H1098   1.108   .     S
C810   H1099   1.111   .     S
C810   H1097   1.110   .     S
C811   C812    1.527   .     S
C811   H1107   1.112   .     S
C811   H1105   1.111   .     S
C812   H1103   1.109   .     S
C812   H1104   1.110   .     S
C812   H1102   1.111   .     S
C813   C814    1.516   .     S
C813   H1111   1.111   .     S
C813   C815    1.527   .     S
C813   H1112   1.112   .     S
C814   C19     1.415   1_655 A
C814   C884    1.396   .     A
C815   H1109   1.109   .     S
C815   H1110   1.110   .     S
C815   H1108   1.111   .     S
C816   H1118   1.112   .     S
C816   C817    1.528   .     S
C816   H1116   1.108   .     S
C816   C825    1.522   .     S
C817   H1115   1.111   .     S
C817   H1113   1.110   .     S
C817   H1114   1.108   .     S
C818   C819    1.528   .     S
C818   C835    1.522   .     S
C818   H1123   1.112   .     S
C818   H1122   1.108   .     S
C819   H1121   1.111   .     S
C819   H1120   1.108   .     S
C819   H451    1.110   1_655 S
C820   H1129   1.112   .     S
C820   C836    1.516   .     S
C820   H1127   1.111   .     S
C821   H1126   1.110   .     S
C821   H1125   1.109   .     S
C821   H1124   1.111   .     S
C821   C152    1.527   1_655 S
C822   H1133   1.111   .     S
C822   C837    1.517   .     S
C822   H1134   1.112   .     S
C822   C2159   1.527   .     S
C823   H1130   1.111   .     S
C823   H1131   1.109   .     S
C823   H1132   1.110   .     S
C823   C2158   1.527   1_545 S
C824   C826    1.528   .     S
C824   C838    1.522   .     S
C824   H1138   1.108   .     S
C824   H1141   1.112   .     S
C825   C20     1.422   1_655 A
C825   C895    1.397   .     A
C826   H1136   1.108   .     S
C826   H1137   1.111   .     S
C826   H2471   1.110   1_545 S
C827   H1146   1.112   .     S
C827   C839    1.522   .     S
C827   C828    1.528   .     S
C827   H1145   1.108   .     S
C828   H1144   1.111   .     S
C828   H1143   1.108   .     S
C829   H1150   1.111   .     S
C829   H1152   1.112   .     S
C829   C841    1.516   .     S
C829   C162    1.527   1_655 S
C830   H1148   1.109   .     S
C830   H1149   1.110   .     S
C830   H1147   1.111   .     S
C831   H1157   1.112   .     S
C831   H1156   1.111   .     S
C831   C842    1.516   .     S
C831   C2168   1.527   1_545 S
C832   H1154   1.109   .     S
C832   H1155   1.110   .     S
C832   H1153   1.111   .     S
C832   C2167   1.527   .     S
C833   H1161   1.108   .     S
C833   H1163   1.112   .     S
C833   C834    1.528   .     S
C833   C843    1.522   .     S
C834   H1160   1.111   .     S
C834   H1159   1.108   .     S
C834   H2494   1.110   .     S
C835   C906    1.397   .     A
C835   C21     1.422   1_655 S
C837   C2027   1.415   .     A
C840   H1139   1.084   .     S
C840   C846    1.398   .     S
C841   C22     1.415   1_655 A
C843   C2029   1.422   .     S
C844   C2005   1.395   1_545 A
C844   C845    1.465   1_554 S
C844   C862    1.395   .     S
C845   C873    1.398   .     A
C845   C844    1.465   1_556 S
C845   C2116   1.398   1_545 S
C846   C847    1.465   1_554 S
C847   C846    1.465   1_556 S
C847   C851    1.395   .     S
C848   C849    1.465   .     S
C850   C852    1.465   .     S
C850   C2017   1.398   1_545 A
C851   H1171   1.084   .     S
C852   C2072   1.395   1_545 A
C853   O1320   1.281   .     A
C853   O2617   1.281   1_545 S
C854   O1292   1.278   .     A
C854   O2574   1.278   1_545 S
C855   O1303   1.278   .     S
C856   O1240   1.281   .     S
C857   O1241   1.281   .     A
C857   O1245   1.281   .     A
C858   O1246   1.278   .     A
C858   O1242   1.278   .     S
C859   O1243   1.278   .     S
C859   O1247   1.278   .     S
C860   O1249   1.281   .     A
C860   O1244   1.281   .     A
C861   O1278   1.277   .     A
C861   C916    1.451   .     S
C861   O1250   1.277   .     A
C862   H1182   1.084   .     S
C863   O1279   1.280   .     A
C863   O1251   1.280   .     A
C864   O1276   1.280   .     A
C864   O1252   1.280   .     A
C865   O1277   1.277   .     A
C865   O1253   1.277   .     A
C866   O1254   1.277   .     A
C866   O1283   1.277   .     A
C867   O1284   1.280   .     A
C867   O1255   1.280   .     A
C868   O1256   1.280   .     A
C868   O1280   1.280   .     A
C868   C914    1.463   .     S
C869   O1282   1.277   .     A
C869   C915    1.455   .     S
C869   O1257   1.277   .     A
C870   O1258   1.280   .     A
C870   O1269   1.280   .     A
C871   O1271   1.277   .     A
C871   O1260   1.277   .     A
C872   O1267   1.277   .     A
C872   O1261   1.277   .     A
C873   H1193   1.084   .     S
C874   O1268   1.280   .     A
C874   O1262   1.280   .     A
C875   O1274   1.280   .     A
C875   O1263   1.280   .     A
C876   O1275   1.277   .     A
C876   O1264   1.277   .     A
C877   O1272   1.277   .     A
C877   O1265   1.277   .     A
C878   O1273   1.280   .     A
C878   O1266   1.280   .     A
C879   C896    1.391   .     A
C879   O1285   1.383   .     S
C880   O1286   1.386   .     S
C880   C894    1.391   .     A
C881   O1287   1.386   .     S
C881   C893    1.393   .     A
C882   O1288   1.386   .     S
C882   C892    1.393   .     A
C883   O1289   1.383   .     S
C883   C891    1.391   .     A
C884   C178    1.398   1_655 A
C884   H1204   1.084   .     S
C885   O1290   1.386   .     S
C885   C890    1.391   .     A
C886   C889    1.393   .     A
C886   O1291   1.386   .     S
C887   O1293   1.386   .     S
C887   C888    1.393   .     A
C888   O1294   1.386   .     S
C889   O1295   1.386   .     S
C890   O1296   1.383   .     S
C891   O1297   1.386   .     S
C892   O1298   1.386   .     S
C893   O1299   1.386   .     S
C893   C916    1.407   .     A
C894   C915    1.407   .     A
C894   O1300   1.383   .     S
C895   H1215   1.084   .     S
C895   C179    1.395   1_655 A
C896   O1301   1.386   .     S
C896   C914    1.415   .     A
C897   C913    1.391   .     A
C897   O1302   1.383   .     S
C897   C915    1.407   .     A
C898   C914    1.416   .     A
C898   C912    1.391   .     A
C898   O1304   1.386   .     S
C899   O1305   1.386   .     S
C899   C911    1.393   .     A
C900   C916    1.407   .     A
C900   C910    1.393   .     A
C900   O1306   1.386   .     S
C901   O1307   1.383   .     S
C901   C909    1.391   .     A
C902   O1308   1.386   .     S
C902   C908    1.391   .     A
C903   C907    1.393   .     A
C903   O1309   1.386   .     S
C904   O1310   1.386   .     S
C904   C905    1.393   .     A
C905   O1311   1.386   .     S
C906   C180    1.395   1_655 A
C906   H1226   1.084   .     S
C907   O1312   1.386   .     S
C908   O1313   1.383   .     S
C909   O1315   1.386   .     S
C910   O1316   1.386   .     S
C911   O1317   1.386   .     S
C912   O1318   1.383   .     S
C913   O1319   1.386   .     S
H938   C73     1.111   1_655 S
H1029  C2031   1.111   .     S
H1135  C2162   1.110   .     S
H1142  C160    1.110   1_655 S
H1158  C2170   1.110   1_545 S
H1180  C2044   1.111   1_545 S
O1237  Zn1321  1.945   .     S
O1237  Zn1332  1.945   .     S
O1237  Zn1324  1.945   .     S
O1237  Zn2664  1.945   1_545 S
O1238  Zn1323  1.932   .     S
O1238  C2190   1.278   .     S
O1239  C187    1.278   1_655 A
O1239  Zn1326  1.932   .     S
O1240  Zn1325  1.932   .     S
O1241  Zn1335  1.932   .     S
O1242  Zn1334  1.932   .     S
O1243  Zn1329  1.932   .     S
O1244  Zn1321  1.932   .     S
O1245  Zn1331  1.932   .     S
O1246  Zn1330  1.932   .     S
O1247  Zn1333  1.932   .     S
O1248  Zn1327  1.945   .     S
O1248  Zn1329  1.945   .     S
O1248  Zn1333  1.945   .     S
O1248  Zn2659  1.945   1_545 S
O1249  Zn1332  1.932   .     S
O1250  Zn1324  1.937   .     S
O1251  Zn1323  1.937   .     S
O1252  Zn1326  1.941   .     S
O1253  Zn1325  1.941   .     S
O1254  Zn1328  1.937   .     S
O1255  Zn1327  1.937   .     S
O1256  Zn1322  1.941   .     S
O1257  Zn1336  1.941   .     S
O1258  Zn1323  1.941   .     S
O1259  Zn1330  1.945   .     S
O1259  Zn1322  1.945   .     S
O1259  Zn1334  1.945   .     S
O1260  Zn1324  1.941   .     S
O1261  Zn1336  1.937   .     S
O1262  Zn1322  1.937   .     S
O1263  Zn1327  1.941   .     S
O1264  Zn1328  1.941   .     S
O1265  Zn1325  1.937   .     S
O1266  Zn1326  1.937   .     S
O1267  Zn663   1.937   1_655 S
O1268  Zn1330  1.937   .     S
O1269  Zn2669  1.941   .     S
O1270  Zn1325  1.945   .     S
O1270  Zn1331  1.945   .     S
O1270  Zn1335  1.945   .     S
O1271  Zn1332  1.941   .     S
O1272  Zn1335  1.937   .     S
O1273  Zn666   1.937   1_655 S
O1274  Zn1329  1.941   .     S
O1275  Zn2657  1.941   .     S
O1276  Zn662   1.941   1_655 S
O1277  Zn1331  1.941   .     S
O1278  Zn1321  1.937   .     S
O1279  Zn2665  1.937   .     S
O1280  Zn1334  1.941   .     S
O1281  Zn1328  1.932   .     S
O1281  C2189   1.281   .     S
O1282  Zn667   1.941   1_655 S
O1283  Zn2668  1.937   .     S
O1284  Zn1333  1.937   .     S
O1292  Zn1327  1.932   .     S
O1303  Zn1322  1.932   .     S
O1314  Zn1336  1.932   .     S
O1314  C188    1.281   1_655 A
O1320  Zn1324  1.932   .     S
Zn1321 O2611   1.941   1_545 S
Zn1323 O2584   1.945   .     S
Zn1326 O591    1.945   1_655 S
Zn1328 O2573   1.945   .     S
Zn1329 O2615   1.937   1_545 S
Zn1332 O2619   1.937   1_545 S
Zn1333 O2605   1.941   1_545 S
Zn1336 O602    1.945   1_655 S
C1337  C1415   1.397   .     A
C1337  H1585   1.084   .     S
C1337  C176    1.395   1_565 A
C1338  C1504   1.396   .     A
C1338  H1586   1.084   .     S
C1338  C1517   1.398   .     S
C1339  C1560   1.415   .     A
C1339  C1531   1.461   .     S
C1339  C1567   1.415   .     A
C1340  C1532   1.463   .     S
C1340  C1559   1.416   .     A
C1340  C1570   1.416   .     A
C1341  C1533   1.455   .     S
C1341  C1558   1.407   .     A
C1341  C1569   1.407   .     A
C1342  C1572   1.407   .     A
C1342  C1557   1.407   .     A
C1342  C1534   1.451   .     S
C1343  C1556   1.415   .     A
C1343  C1571   1.415   .     A
C1343  C1535   1.461   .     S
C1344  C1555   1.407   .     A
C1344  C1545   1.451   .     S
C1344  C1575   1.407   .     A
C1345  C1554   1.415   .     A
C1345  C1546   1.461   .     S
C1345  C1573   1.415   .     A
C1346  C1538   1.463   .     S
C1346  C1577   1.416   .     A
C1346  C1553   1.415   .     A
C1347  C1576   1.407   .     A
C1347  C1551   1.407   .     A
C1347  C1539   1.455   .     S
C1348  C1550   1.407   .     A
C1348  C1540   1.451   .     S
C1348  C1579   1.407   .     A
C1349  C1505   1.396   .     A
C1349  C182    1.398   1_565 A
C1349  H1597   1.084   .     S
C1350  C1549   1.415   .     A
C1350  C1542   1.461   .     S
C1350  C1578   1.415   .     A
C1351  C1548   1.416   .     A
C1351  C1543   1.463   .     S
C1351  C1581   1.416   .     A
C1352  C1547   1.407   .     A
C1352  C1580   1.407   .     A
C1352  C1544   1.455   .     S
C1353  C1460   1.422   .     A
C1353  C1528   1.461   .     S
C1354  C1527   1.452   .     S
C1354  C1471   1.415   .     S
C1355  C2150   1.415   1_455 A
C1355  C1526   1.452   .     S
C1355  C1437   1.415   .     S
C1356  C2161   1.422   1_455 A
C1356  C1449   1.422   .     S
C1356  C1525   1.461   .     S
C1357  C1507   1.422   .     A
C1357  C2171   1.422   1_455 S
C1357  C1524   1.461   .     S
C1358  C2177   1.415   1_455 A
C1358  C1523   1.452   .     S
C1358  C1504   1.415   .     S
C1359  C1510   1.415   .     S
C1359  C1522   1.452   .     S
C1360  H1608   1.084   .     S
C1360  C1506   1.397   .     A
C1360  C1520   1.395   .     S
C1361  C1521   1.461   .     S
C1361  C1506   1.422   .     A
C1362  O1953   1.412   .     S
C1362  H1663   1.116   .     S
C1362  H1674   1.115   .     S
C1362  C27     1.527   1_565 S
C1363  H1685   1.111   .     S
C1363  C1364   1.526   .     S
C1364  H1708   1.111   .     S
C1364  H1719   1.109   .     S
C1364  H1730   1.110   .     S
C1365  O1954   1.419   .     S
C1365  C1366   1.533   .     S
C1365  H1741   1.110   .     S
C1365  H1752   1.117   .     S
C1366  C1367   1.526   .     S
C1366  H1763   1.111   .     S
C1366  H1774   1.110   .     S
C1367  H1796   1.110   .     S
C1367  H1808   1.111   .     S
C1367  H1785   1.111   .     S
C1368  O1955   1.419   .     S
C1368  H1830   1.117   .     S
C1368  C1369   1.531   .     S
C1368  H1819   1.111   .     S
C1369  C1370   1.527   .     S
C1369  H1833   1.108   .     S
C1369  H1832   1.112   .     S
C1370  H1834   1.111   .     S
C1370  H1835   1.110   .     S
C1370  H1836   1.110   .     S
C1371  H1619   1.084   .     S
C1371  C1507   1.397   .     A
C1371  C1516   1.395   .     S
C1372  O1956   1.417   .     S
C1372  C1373   1.536   .     S
C1372  H1837   1.111   .     S
C1372  H1838   1.115   .     S
C1373  C1374   1.525   .     S
C1373  H1841   1.111   .     S
C1373  H1840   1.112   .     S
C1374  H1842   1.111   .     S
C1374  H1843   1.110   .     S
C1374  H1844   1.110   .     S
C1375  H1846   1.115   .     S
C1375  H1845   1.116   .     S
C1375  O1957   1.412   .     S
C1376  H1847   1.111   .     S
C1376  C1377   1.526   .     S
C1376  C39     1.527   1_565 S
C1376  H512    1.111   1_565 S
C1377  H1852   1.110   .     S
C1377  H1849   1.111   .     S
C1377  H1851   1.109   .     S
C1378  H1853   1.110   .     S
C1378  H1854   1.117   .     S
C1378  O1958   1.419   .     S
C1378  C1379   1.533   .     S
C1379  C1380   1.526   .     S
C1379  H1856   1.110   .     S
C1379  H1855   1.111   .     S
C1380  H1857   1.111   .     S
C1380  H1859   1.111   .     S
C1380  H1858   1.110   .     S
C1381  H1860   1.111   .     S
C1381  C1383   1.531   .     S
C1381  H1862   1.117   .     S
C1381  O1959   1.419   .     S
C1382  C2185   1.398   .     A
C1382  H1630   1.084   .     S
C1382  C1509   1.396   .     A
C1383  H1863   1.112   .     S
C1383  H1864   1.108   .     S
C1383  C1384   1.527   .     S
C1384  H1867   1.110   .     S
C1384  H1866   1.110   .     S
C1384  H1865   1.111   .     S
C1385  H1869   1.115   .     S
C1385  C1386   1.536   .     S
C1385  O1961   1.417   .     S
C1385  H1868   1.111   .     S
C1386  H1871   1.111   .     S
C1386  C1387   1.525   .     S
C1386  H1870   1.112   .     S
C1387  H1874   1.110   .     S
C1387  H1875   1.110   .     S
C1387  H1873   1.111   .     S
C1388  O1962   1.419   .     S
C1388  H1877   1.117   .     S
C1388  C1389   1.531   .     S
C1388  H1876   1.111   .     S
C1389  H1879   1.108   .     S
C1389  H1878   1.112   .     S
C1389  C1390   1.527   .     S
C1390  H1880   1.111   .     S
C1390  H1882   1.110   .     S
C1390  H1881   1.110   .     S
C1391  O1963   1.417   .     S
C1391  C1392   1.536   .     S
C1391  H1885   1.115   .     S
C1391  H1884   1.111   .     S
C1392  H1887   1.111   .     S
C1392  H1886   1.112   .     S
C1392  C1394   1.525   .     S
C1393  C1510   1.396   .     A
C1393  H1641   1.084   .     S
C1393  C1518   1.398   .     S
C1394  H1890   1.110   .     S
C1394  H1888   1.111   .     S
C1394  H1889   1.110   .     S
C1395  H1891   1.116   .     S
C1395  O1964   1.412   .     S
C1395  H1892   1.115   .     S
C1395  C2064   1.527   1_455 S
C1396  C1397   1.526   .     S
C1396  H1893   1.111   .     S
C1396  C2063   1.527   .     S
C1396  H2563   1.112   .     S
C1397  H1898   1.110   .     S
C1397  H1896   1.111   .     S
C1397  H1897   1.109   .     S
C1398  O1965   1.419   .     S
C1398  H1899   1.110   .     S
C1398  H1900   1.117   .     S
C1398  C1399   1.533   .     S
C1399  H1901   1.111   .     S
C1399  H1902   1.110   .     S
C1399  C1400   1.526   .     S
C1400  H1904   1.110   .     S
C1400  H1903   1.111   .     S
C1400  H1587   1.111   .     S
C1401  H1589   1.117   .     S
C1401  O1966   1.419   .     S
C1401  H1588   1.111   .     S
C1401  C1402   1.531   .     S
C1402  H1590   1.112   .     S
C1402  C1403   1.527   .     S
C1402  H1591   1.108   .     S
C1403  H1594   1.110   .     S
C1403  H1592   1.111   .     S
C1403  H1593   1.110   .     S
C1404  H1652   1.084   .     S
C1404  C184    1.395   1_565 A
C1404  C1511   1.397   .     A
C1405  H1596   1.115   .     S
C1405  C1406   1.536   .     S
C1405  O1967   1.417   .     S
C1405  H1595   1.111   .     S
C1406  H1598   1.112   .     S
C1406  C1407   1.525   .     S
C1406  H1599   1.111   .     S
C1407  H1600   1.111   .     S
C1407  H1602   1.110   .     S
C1407  H1601   1.110   .     S
C1408  H1604   1.115   .     S
C1408  O1968   1.412   .     S
C1408  H1603   1.116   .     S
C1408  C2077   1.527   .     S
C1409  C1410   1.526   .     S
C1409  H1605   1.111   .     S
C1409  C2076   1.527   1_455 S
C1409  H2274   1.111   1_455 S
C1410  H1610   1.110   .     S
C1410  H1609   1.109   .     S
C1410  H1607   1.111   .     S
C1411  H1611   1.110   .     S
C1411  O1969   1.419   .     S
C1411  H1612   1.117   .     S
C1411  C1412   1.533   .     S
C1412  H1613   1.111   .     S
C1412  C1413   1.526   .     S
C1412  H1614   1.110   .     S
C1413  H1617   1.111   .     S
C1413  H1616   1.110   .     S
C1413  H1615   1.111   .     S
C1414  O1970   1.412   .     S
C1414  H1620   1.115   .     S
C1414  C1416   1.527   .     S
C1414  H1618   1.116   .     S
C1415  C1468   1.522   .     S
C1415  C17     1.422   1_565 S
C1416  H1622   1.111   .     S
C1416  H1621   1.111   .     S
C1416  C1417   1.526   .     S
C1417  H1624   1.109   .     S
C1417  H1625   1.110   .     S
C1417  H1623   1.111   .     S
C1418  H1627   1.117   .     S
C1418  C1419   1.533   .     S
C1418  H1626   1.110   .     S
C1418  O1972   1.419   .     S
C1419  C1420   1.526   .     S
C1419  H1628   1.111   .     S
C1419  H1629   1.110   .     S
C1420  H1631   1.111   .     S
C1420  H1633   1.111   .     S
C1420  H1632   1.110   .     S
C1421  O1973   1.419   .     S
C1421  H1635   1.117   .     S
C1421  C1422   1.531   .     S
C1421  H1634   1.111   .     S
C1422  H1637   1.108   .     S
C1422  H1636   1.111   .     S
C1422  C1423   1.527   .     S
C1423  H1639   1.110   .     S
C1423  H1640   1.110   .     S
C1423  H1638   1.111   .     S
C1424  O1974   1.417   .     S
C1424  C1425   1.536   .     S
C1424  H1642   1.111   .     S
C1424  H1643   1.115   .     S
C1425  C1427   1.525   .     S
C1425  H1644   1.112   .     S
C1425  H1645   1.111   .     S
C1426  C1470   1.516   .     S
C1426  C18     1.415   1_565 A
C1426  C1448   1.396   .     A
C1427  H1648   1.110   .     S
C1427  H1646   1.111   .     S
C1427  H1647   1.110   .     S
C1428  H1649   1.116   .     S
C1428  O1975   1.412   .     S
C1428  C1429   1.527   .     S
C1428  H1650   1.115   .     S
C1429  H1653   1.112   .     S
C1429  H1651   1.111   .     S
C1429  C1430   1.526   .     S
C1430  H1656   1.110   .     S
C1430  H1654   1.111   .     S
C1430  H1655   1.109   .     S
C1431  H1657   1.110   .     S
C1431  C1432   1.533   .     S
C1431  O1976   1.419   .     S
C1431  H1658   1.117   .     S
C1432  H1659   1.111   .     S
C1432  H1660   1.110   .     S
C1432  C1433   1.526   .     S
C1433  H1661   1.111   .     S
C1433  H1662   1.110   .     S
C1433  H1664   1.111   .     S
C1434  C1435   1.531   .     S
C1434  H1666   1.117   .     S
C1434  O1977   1.419   .     S
C1434  H1665   1.111   .     S
C1435  C1436   1.527   .     S
C1435  H1668   1.108   .     S
C1435  H1667   1.112   .     S
C1436  H1671   1.110   .     S
C1436  H1670   1.110   .     S
C1436  H1669   1.111   .     S
C1437  C1473   1.516   .     S
C1437  C1508   1.396   .     A
C1438  H1672   1.111   .     S
C1438  C1439   1.536   .     S
C1438  H1673   1.115   .     S
C1438  O1978   1.417   .     S
C1439  H1676   1.111   .     S
C1439  H1675   1.112   .     S
C1439  C1440   1.525   .     S
C1440  H1677   1.111   .     S
C1440  H1678   1.110   .     S
C1440  H1679   1.110   .     S
C1441  H1680   1.111   .     S
C1441  C1442   1.531   .     S
C1441  O1979   1.419   .     S
C1441  H1681   1.117   .     S
C1442  C1443   1.527   .     S
C1442  H1682   1.112   .     S
C1442  H1683   1.108   .     S
C1443  H1686   1.110   .     S
C1443  H1684   1.111   .     S
C1443  H1687   1.110   .     S
C1444  C1445   1.536   .     S
C1444  H1688   1.111   .     S
C1444  O1980   1.417   .     S
C1444  H1689   1.115   .     S
C1445  H1690   1.112   .     S
C1445  H1691   1.111   .     S
C1445  C1446   1.525   .     S
C1446  H1693   1.110   .     S
C1446  H1692   1.111   .     S
C1446  H1694   1.110   .     S
C1447  H1695   1.116   .     S
C1447  H1698   1.115   .     S
C1447  O1981   1.412   .     S
C1447  C1450   1.527   .     S
C1448  H1696   1.084   .     S
C1448  C177    1.398   1_565 S
C1449  C1519   1.397   .     A
C1449  C1475   1.522   .     S
C1450  C1451   1.526   .     S
C1450  H1699   1.111   .     S
C1450  H1700   1.112   .     S
C1451  H1702   1.109   .     S
C1451  H1703   1.110   .     S
C1451  H1701   1.111   .     S
C1452  O1983   1.419   .     S
C1452  H1705   1.117   .     S
C1452  H1704   1.110   .     S
C1452  C1453   1.533   .     S
C1453  H1706   1.111   .     S
C1453  C1454   1.526   .     S
C1453  H1707   1.110   .     S
C1454  H1711   1.111   .     S
C1454  H1709   1.111   .     S
C1454  H1710   1.110   .     S
C1455  H1712   1.111   .     S
C1455  O1984   1.419   .     S
C1455  H1713   1.117   .     S
C1455  C1456   1.531   .     S
C1456  H1714   1.112   .     S
C1456  C1457   1.527   .     S
C1456  H1715   1.108   .     S
C1457  H1717   1.110   .     S
C1457  H1716   1.111   .     S
C1457  H1718   1.110   .     S
C1458  H1721   1.115   .     S
C1458  H1720   1.111   .     S
C1458  O1985   1.417   .     S
C1458  C1459   1.536   .     S
C1459  H1722   1.112   .     S
C1459  H1723   1.111   .     S
C1459  C1461   1.525   .     S
C1460  C1530   1.397   .     A
C1460  C1477   1.522   .     S
C1461  H1726   1.110   .     S
C1461  H1725   1.110   .     S
C1461  H1724   1.111   .     S
C1462  C1463   1.527   .     S
C1462  H1727   1.116   .     S
C1462  O1986   1.412   .     S
C1462  H1728   1.115   .     S
C1463  H1731   1.111   .     S
C1463  H1729   1.111   .     S
C1463  C1464   1.526   .     S
C1464  H1734   1.110   .     S
C1464  H1732   1.111   .     S
C1464  H1733   1.109   .     S
C1465  O1987   1.419   .     S
C1465  H1735   1.110   .     S
C1465  C1466   1.533   .     S
C1465  H1736   1.117   .     S
C1466  C1467   1.526   .     S
C1466  H1738   1.110   .     S
C1466  H1737   1.111   .     S
C1467  H1742   1.111   .     S
C1467  H1740   1.110   .     S
C1467  H1739   1.111   .     S
C1468  H1747   1.112   .     S
C1468  H1746   1.108   .     S
C1468  C1469   1.528   .     S
C1469  H1745   1.111   .     S
C1469  H1743   1.110   .     S
C1469  H1744   1.108   .     S
C1470  H1753   1.112   .     S
C1470  H1751   1.111   .     S
C1470  C1472   1.527   .     S
C1471  C1541   1.396   .     A
C1471  C1479   1.516   .     S
C1472  H1748   1.111   .     S
C1472  H1749   1.109   .     S
C1472  H1750   1.110   .     S
C1473  H1757   1.111   .     S
C1473  H1758   1.112   .     S
C1473  C1474   1.527   .     S
C1474  H1756   1.110   .     S
C1474  H1754   1.111   .     S
C1474  H1755   1.109   .     S
C1475  H1764   1.112   .     S
C1475  H1762   1.108   .     S
C1475  C1476   1.528   .     S
C1476  H1760   1.108   .     S
C1476  H1761   1.111   .     S
C1476  H1759   1.110   .     S
C1477  H1769   1.112   .     S
C1477  H1768   1.108   .     S
C1477  C1478   1.528   .     S
C1478  H1766   1.108   .     S
C1478  H1767   1.111   .     S
C1478  H1765   1.110   .     S
C1479  C1480   1.527   .     S
C1479  H1775   1.112   .     S
C1479  H1773   1.111   .     S
C1480  H1771   1.109   .     S
C1480  H1772   1.110   .     S
C1480  H1770   1.111   .     S
C1481  C1482   1.516   .     S
C1481  H1779   1.111   .     S
C1481  C1483   1.527   .     S
C1481  H1780   1.112   .     S
C1482  C2023   1.415   .     A
C1482  C1552   1.396   .     A
C1483  H1777   1.109   .     S
C1483  H1778   1.110   .     S
C1483  H1776   1.111   .     S
C1484  H1786   1.112   .     S
C1484  C1485   1.528   .     S
C1484  H1784   1.108   .     S
C1484  C1493   1.522   .     S
C1485  H1783   1.111   .     S
C1485  H1781   1.110   .     S
C1485  H1782   1.108   .     S
C1486  C1487   1.528   .     S
C1486  C1503   1.522   .     S
C1486  H1791   1.112   .     S
C1486  H1790   1.108   .     S
C1487  H1789   1.111   .     S
C1487  H1788   1.108   .     S
C1487  H2455   1.110   .     S
C1488  H1797   1.112   .     S
C1488  C1504   1.516   .     S
C1488  H1795   1.111   .     S
C1488  C2157   1.527   1_455 S
C1489  H1794   1.110   .     S
C1489  H1793   1.109   .     S
C1489  H1792   1.111   .     S
C1489  C2156   1.527   .     S
C1490  H1801   1.111   .     S
C1490  C1505   1.517   .     S
C1490  H1802   1.112   .     S
C1490  C155    1.527   1_565 S
C1491  H1798   1.111   .     S
C1491  H1799   1.109   .     S
C1491  H1800   1.110   .     S
C1492  C1494   1.528   .     S
C1492  C1506   1.522   .     S
C1492  H1806   1.108   .     S
C1492  H1809   1.112   .     S
C1493  C2024   1.422   .     A
C1493  C1563   1.397   .     A
C1494  H1804   1.108   .     S
C1494  H1805   1.111   .     S
C1495  H1814   1.112   .     S
C1495  C1507   1.522   .     S
C1495  C1496   1.528   .     S
C1495  H1813   1.108   .     S
C1496  H1812   1.111   .     S
C1496  H1811   1.108   .     S
C1496  H2478   1.110   1_455 S
C1497  H1818   1.111   .     S
C1497  H1820   1.112   .     S
C1497  C1509   1.516   .     S
C1497  C2166   1.527   .     S
C1498  H1816   1.109   .     S
C1498  H1817   1.110   .     S
C1498  H1815   1.111   .     S
C1498  C2165   1.527   1_455 S
C1499  H1825   1.112   .     S
C1499  H1824   1.111   .     S
C1499  C1510   1.516   .     S
C1500  H1822   1.109   .     S
C1500  H1823   1.110   .     S
C1500  H1821   1.111   .     S
C1500  C163    1.527   1_565 S
C1501  H1829   1.108   .     S
C1501  H1831   1.112   .     S
C1501  C1502   1.528   .     S
C1501  C1511   1.522   .     S
C1502  H1828   1.111   .     S
C1502  H1827   1.108   .     S
C1502  H490    1.110   1_565 S
C1503  C1574   1.397   .     A
C1503  C2025   1.422   .     S
C1505  C23     1.415   1_565 A
C1508  H1807   1.084   .     S
C1508  C1514   1.398   .     S
C1509  C2026   1.415   .     A
C1511  C25     1.422   1_565 S
C1512  C1513   1.465   1_554 S
C1512  C1530   1.395   .     S
C1513  C1541   1.398   .     A
C1513  C1512   1.465   1_556 S
C1514  C2220   1.398   1_455 A
C1514  C1515   1.465   1_554 S
C1515  C2231   1.395   1_455 A
C1515  C1514   1.465   1_556 S
C1515  C1519   1.395   .     S
C1516  C2242   1.395   1_455 A
C1516  C1517   1.465   .     S
C1517  C2050   1.398   1_455 A
C1518  C1520   1.465   .     S
C1519  H1839   1.084   .     S
C1521  O1988   1.281   .     A
C1522  O1960   1.278   .     A
C1523  O2575   1.278   1_455 A
C1523  O1971   1.278   .     S
C1524  O2650   1.281   1_455 A
C1524  O1908   1.281   .     S
C1525  O1909   1.281   .     A
C1525  O1913   1.281   .     A
C1526  O1914   1.278   .     A
C1526  O1910   1.278   .     S
C1527  O1911   1.278   .     S
C1527  O1915   1.278   .     S
C1528  O1917   1.281   .     A
C1528  O1912   1.281   .     A
C1529  O1946   1.277   .     A
C1529  C1584   1.451   .     S
C1529  O1918   1.277   .     A
C1530  H1850   1.084   .     S
C1531  O1947   1.280   .     A
C1531  O1919   1.280   .     A
C1532  O1944   1.280   .     A
C1532  O1920   1.280   .     A
C1533  O1945   1.277   .     A
C1533  O1921   1.277   .     A
C1534  O1922   1.277   .     A
C1534  O1951   1.277   .     A
C1535  O1952   1.280   .     A
C1535  O1923   1.280   .     A
C1536  O1924   1.280   .     A
C1536  O1948   1.280   .     A
C1536  C1582   1.463   .     S
C1537  O1950   1.277   .     A
C1537  C1583   1.455   .     S
C1537  O1925   1.277   .     A
C1538  O1926   1.280   .     A
C1538  O1937   1.280   .     A
C1539  O1939   1.277   .     A
C1539  O1928   1.277   .     A
C1540  O1935   1.277   .     A
C1540  O1929   1.277   .     A
C1541  H1861   1.084   .     S
C1542  O1936   1.280   .     A
C1542  O1930   1.280   .     A
C1543  O1942   1.280   .     A
C1543  O1931   1.280   .     A
C1544  O1943   1.277   .     A
C1544  O1932   1.277   .     A
C1545  O1940   1.277   .     A
C1545  O1933   1.277   .     A
C1546  O1941   1.280   .     A
C1546  O1934   1.280   .     A
C1547  C1564   1.391   .     A
C1547  O1953   1.383   .     S
C1548  O1954   1.386   .     S
C1548  C1562   1.391   .     A
C1549  O1955   1.386   .     S
C1549  C1561   1.393   .     A
C1550  O1956   1.386   .     S
C1550  C1560   1.393   .     A
C1551  O1957   1.383   .     S
C1551  C1559   1.391   .     A
C1552  C2182   1.398   .     A
C1552  H1872   1.084   .     S
C1553  O1958   1.386   .     S
C1553  C1558   1.391   .     A
C1554  C1557   1.393   .     A
C1554  O1959   1.386   .     S
C1555  O1961   1.386   .     S
C1555  C1556   1.393   .     A
C1556  O1962   1.386   .     S
C1557  O1963   1.386   .     S
C1558  O1964   1.383   .     S
C1559  O1965   1.386   .     S
C1560  O1966   1.386   .     S
C1561  O1967   1.386   .     S
C1561  C1584   1.407   .     A
C1562  C1583   1.407   .     A
C1562  O1968   1.383   .     S
C1563  H1883   1.084   .     S
C1563  C2183   1.395   .     A
C1564  O1969   1.386   .     S
C1564  C1582   1.415   .     A
C1565  C1581   1.391   .     A
C1565  O1970   1.383   .     S
C1565  C1583   1.407   .     A
C1566  C1582   1.416   .     A
C1566  C1580   1.391   .     A
C1566  O1972   1.386   .     S
C1567  O1973   1.386   .     S
C1567  C1579   1.393   .     A
C1568  C1584   1.407   .     A
C1568  C1578   1.393   .     A
C1568  O1974   1.386   .     S
C1569  O1975   1.383   .     S
C1569  C1577   1.391   .     A
C1570  O1976   1.386   .     S
C1570  C1576   1.391   .     A
C1571  C1575   1.393   .     A
C1571  O1977   1.386   .     S
C1572  O1978   1.386   .     S
C1572  C1573   1.393   .     A
C1573  O1979   1.386   .     S
C1574  C2184   1.395   .     A
C1574  H1894   1.084   .     S
C1575  O1980   1.386   .     S
C1576  O1981   1.383   .     S
C1577  O1983   1.386   .     S
C1578  O1984   1.386   .     S
C1579  O1985   1.386   .     S
C1580  O1986   1.383   .     S
C1581  O1987   1.386   .     S
H1606  C2077   1.111   .     S
H1697  C27     1.111   1_565 S
H1787  C2155   1.110   1_455 S
H1803  C158    1.110   1_565 S
H1810  C2164   1.110   .     S
H1895  C2064   1.112   1_455 S
O1905  Zn1989  1.945   .     S
O1905  Zn2000  1.945   .     S
O1905  Zn1992  1.945   .     S
O1906  Zn1991  1.932   .     S
O1906  C186    1.278   1_565 S
O1907  C2191   1.278   .     A
O1907  Zn1994  1.932   .     S
O1908  Zn1993  1.932   .     S
O1909  Zn2003  1.932   .     S
O1910  Zn2002  1.932   .     S
O1911  Zn1997  1.932   .     S
O1912  Zn1989  1.932   .     S
O1913  Zn1999  1.932   .     S
O1914  Zn1998  1.932   .     S
O1915  Zn2001  1.932   .     S
O1916  Zn1995  1.945   .     S
O1916  Zn1997  1.945   .     S
O1916  Zn2001  1.945   .     S
O1917  Zn2000  1.932   .     S
O1918  Zn1992  1.937   .     S
O1919  Zn1991  1.937   .     S
O1920  Zn1994  1.941   .     S
O1921  Zn1993  1.941   .     S
O1922  Zn1996  1.937   .     S
O1923  Zn1995  1.937   .     S
O1924  Zn1990  1.941   .     S
O1925  Zn2004  1.941   .     S
O1926  Zn1991  1.941   .     S
O1927  Zn2662  1.945   1_455 S
O1927  Zn1998  1.945   .     S
O1927  Zn1990  1.945   .     S
O1927  Zn2002  1.945   .     S
O1928  Zn1992  1.941   .     S
O1929  Zn2004  1.937   .     S
O1930  Zn1990  1.937   .     S
O1931  Zn1995  1.941   .     S
O1932  Zn1996  1.941   .     S
O1933  Zn1993  1.937   .     S
O1934  Zn1994  1.937   .     S
O1935  Zn2667  1.937   .     S
O1936  Zn1998  1.937   .     S
O1937  Zn665   1.941   1_565 S
O1938  Zn1993  1.945   .     S
O1938  Zn1999  1.945   .     S
O1938  Zn2003  1.945   .     S
O1938  Zn2672  1.945   1_455 S
O1939  Zn2000  1.941   .     S
O1940  Zn2003  1.937   .     S
O1941  Zn2670  1.937   .     S
O1942  Zn1997  1.941   .     S
O1943  Zn653   1.941   1_565 S
O1944  Zn2666  1.941   .     S
O1945  Zn1999  1.941   .     S
O1946  Zn1989  1.937   .     S
O1947  Zn661   1.937   1_565 S
O1948  Zn2002  1.941   .     S
O1949  Zn1996  1.932   .     S
O1949  C185    1.281   1_565 S
O1950  Zn2671  1.941   .     S
O1951  Zn664   1.937   1_565 S
O1952  Zn2001  1.937   .     S
O1960  Zn1995  1.932   .     S
O1971  Zn1990  1.932   .     S
O1982  Zn2004  1.932   .     S
O1982  C2192   1.281   .     A
O1988  Zn1992  1.932   .     S
Zn1991 O580    1.945   1_565 S
Zn1994 O2595   1.945   .     S
Zn1996 O569    1.945   1_565 S
Zn1998 O2612   1.941   1_455 S
Zn1999 O2603   1.937   1_455 S
Zn2002 O2609   1.937   1_455 S
Zn2003 O2618   1.941   1_455 S
Zn2004 O2606   1.945   .     S
C2005  C2083   1.397   .     A
C2005  H2253   1.084   .     S
C2005  C844    1.395   1_565 A
C2006  C2172   1.396   .     A
C2006  H2254   1.084   .     S
C2006  C2185   1.398   .     S
C2007  C2228   1.415   .     A
C2007  C2199   1.461   .     S
C2007  C2235   1.415   .     A
C2008  C2200   1.463   .     S
C2008  C2227   1.416   .     A
C2008  C2238   1.416   .     A
C2009  C2201   1.455   .     S
C2009  C2226   1.407   .     A
C2009  C2237   1.407   .     A
C2010  C2240   1.407   .     A
C2010  C2225   1.407   .     A
C2010  C2202   1.451   .     S
C2011  C2224   1.415   .     A
C2011  C2239   1.415   .     A
C2011  C2203   1.461   .     S
C2012  C2223   1.407   .     A
C2012  C2213   1.451   .     S
C2012  C2243   1.407   .     A
C2013  C2222   1.415   .     A
C2013  C2214   1.461   .     S
C2013  C2241   1.415   .     A
C2014  C2206   1.463   .     S
C2014  C2245   1.416   .     A
C2014  C2221   1.415   .     A
C2015  C2244   1.407   .     A
C2015  C2219   1.407   .     A
C2015  C2207   1.455   .     S
C2016  C2218   1.407   .     A
C2016  C2208   1.451   .     S
C2016  C2247   1.407   .     A
C2017  C2173   1.396   .     A
C2017  C850    1.398   1_565 A
C2017  H2265   1.084   .     S
C2018  C2217   1.415   .     A
C2018  C2210   1.461   .     S
C2018  C2246   1.415   .     A
C2019  C2216   1.416   .     A
C2019  C2211   1.463   .     S
C2019  C2249   1.416   .     A
C2020  C2215   1.407   .     A
C2020  C2248   1.407   .     A
C2020  C2212   1.455   .     S
C2021  C2128   1.422   .     A
C2021  C2196   1.461   .     S
C2022  C2195   1.452   .     S
C2022  C2139   1.415   .     S
C2023  C2194   1.452   .     S
C2023  C2105   1.415   .     S
C2024  C2117   1.422   .     S
C2024  C2193   1.461   .     S
C2025  C2175   1.422   .     A
C2025  C2192   1.461   .     S
C2026  C2191   1.452   .     S
C2026  C2172   1.415   .     S
C2027  C2178   1.415   .     S
C2027  C2190   1.452   .     S
C2028  H2276   1.084   .     S
C2028  C2174   1.397   .     A
C2028  C2188   1.395   .     S
C2029  C2189   1.461   .     S
C2029  C2174   1.422   .     A
C2030  O2621   1.412   .     S
C2030  H2331   1.116   .     S
C2030  H2342   1.115   .     S
C2030  C695    1.527   1_565 S
C2031  H2353   1.111   .     S
C2031  C2032   1.526   .     S
C2032  H2376   1.111   .     S
C2032  H2387   1.109   .     S
C2032  H2398   1.110   .     S
C2033  O2622   1.419   .     S
C2033  C2034   1.533   .     S
C2033  H2409   1.110   .     S
C2033  H2420   1.117   .     S
C2034  C2035   1.526   .     S
C2034  H2431   1.111   .     S
C2034  H2442   1.110   .     S
C2035  H2464   1.110   .     S
C2035  H2476   1.111   .     S
C2035  H2453   1.111   .     S
C2036  O2623   1.419   .     S
C2036  H2498   1.117   .     S
C2036  C2037   1.531   .     S
C2036  H2487   1.111   .     S
C2037  C2038   1.527   .     S
C2037  H2501   1.108   .     S
C2037  H2500   1.112   .     S
C2038  H2502   1.111   .     S
C2038  H2503   1.110   .     S
C2038  H2504   1.110   .     S
C2039  H2287   1.084   .     S
C2039  C2175   1.397   .     A
C2039  C2184   1.395   .     S
C2040  O2624   1.417   .     S
C2040  C2041   1.536   .     S
C2040  H2505   1.111   .     S
C2040  H2506   1.115   .     S
C2041  C2042   1.525   .     S
C2041  H2509   1.111   .     S
C2041  H2508   1.112   .     S
C2042  H2510   1.111   .     S
C2042  H2511   1.110   .     S
C2042  H2512   1.110   .     S
C2043  H2514   1.115   .     S
C2043  H2513   1.116   .     S
C2043  O2625   1.412   .     S
C2044  H2515   1.111   .     S
C2044  C2045   1.526   .     S
C2044  C707    1.527   1_565 S
C2044  H1180   1.111   1_565 S
C2045  H2520   1.110   .     S
C2045  H2517   1.111   .     S
C2045  H2519   1.109   .     S
C2046  H2521   1.110   .     S
C2046  H2522   1.117   .     S
C2046  O2626   1.419   .     S
C2046  C2047   1.533   .     S
C2047  C2048   1.526   .     S
C2047  H2524   1.110   .     S
C2047  H2523   1.111   .     S
C2048  H2525   1.111   .     S
C2048  H2527   1.111   .     S
C2048  H2526   1.110   .     S
C2049  H2528   1.111   .     S
C2049  C2051   1.531   .     S
C2049  H2530   1.117   .     S
C2049  O2627   1.419   .     S
C2050  C1517   1.398   1_655 A
C2050  H2298   1.084   .     S
C2050  C2177   1.396   .     A
C2051  H2531   1.112   .     S
C2051  H2532   1.108   .     S
C2051  C2052   1.527   .     S
C2052  H2535   1.110   .     S
C2052  H2534   1.110   .     S
C2052  H2533   1.111   .     S
C2053  H2537   1.115   .     S
C2053  C2054   1.536   .     S
C2053  O2629   1.417   .     S
C2053  H2536   1.111   .     S
C2054  H2539   1.111   .     S
C2054  C2055   1.525   .     S
C2054  H2538   1.112   .     S
C2055  H2542   1.110   .     S
C2055  H2543   1.110   .     S
C2055  H2541   1.111   .     S
C2056  O2630   1.419   .     S
C2056  H2545   1.117   .     S
C2056  C2057   1.531   .     S
C2056  H2544   1.111   .     S
C2057  H2547   1.108   .     S
C2057  H2546   1.112   .     S
C2057  C2058   1.527   .     S
C2058  H2548   1.111   .     S
C2058  H2550   1.110   .     S
C2058  H2549   1.110   .     S
C2059  O2631   1.417   .     S
C2059  C2060   1.536   .     S
C2059  H2553   1.115   .     S
C2059  H2552   1.111   .     S
C2060  H2555   1.111   .     S
C2060  H2554   1.112   .     S
C2060  C2062   1.525   .     S
C2061  C2178   1.396   .     A
C2061  H2309   1.084   .     S
C2061  C2186   1.398   .     S
C2062  H2558   1.110   .     S
C2062  H2556   1.111   .     S
C2062  H2557   1.110   .     S
C2063  H2559   1.116   .     S
C2063  O2632   1.412   .     S
C2063  H2560   1.115   .     S
C2064  C2065   1.526   .     S
C2064  H2561   1.111   .     S
C2064  C1395   1.527   1_655 S
C2064  H1895   1.112   1_655 S
C2065  H2566   1.110   .     S
C2065  H2564   1.111   .     S
C2065  H2565   1.109   .     S
C2066  O2633   1.419   .     S
C2066  H2567   1.110   .     S
C2066  H2568   1.117   .     S
C2066  C2067   1.533   .     S
C2067  H2569   1.111   .     S
C2067  H2570   1.110   .     S
C2067  C2068   1.526   .     S
C2068  H2572   1.110   .     S
C2068  H2571   1.111   .     S
C2068  H2255   1.111   .     S
C2069  H2257   1.117   .     S
C2069  O2634   1.419   .     S
C2069  H2256   1.111   .     S
C2069  C2070   1.531   .     S
C2070  H2258   1.112   .     S
C2070  C2071   1.527   .     S
C2070  H2259   1.108   .     S
C2071  H2262   1.110   .     S
C2071  H2260   1.111   .     S
C2071  H2261   1.110   .     S
C2072  H2320   1.084   .     S
C2072  C852    1.395   1_565 A
C2072  C2179   1.397   .     A
C2073  H2264   1.115   .     S
C2073  C2074   1.536   .     S
C2073  O2635   1.417   .     S
C2073  H2263   1.111   .     S
C2074  H2266   1.112   .     S
C2074  C2075   1.525   .     S
C2074  H2267   1.111   .     S
C2075  H2268   1.111   .     S
C2075  H2270   1.110   .     S
C2075  H2269   1.110   .     S
C2076  H2272   1.115   .     S
C2076  O2636   1.412   .     S
C2076  H2271   1.116   .     S
C2076  C1409   1.527   1_655 S
C2077  C2078   1.526   .     S
C2077  H2273   1.111   .     S
C2078  H2278   1.110   .     S
C2078  H2277   1.109   .     S
C2078  H2275   1.111   .     S
C2079  H2279   1.110   .     S
C2079  O2637   1.419   .     S
C2079  H2280   1.117   .     S
C2079  C2080   1.533   .     S
C2080  H2281   1.111   .     S
C2080  C2081   1.526   .     S
C2080  H2282   1.110   .     S
C2081  H2285   1.111   .     S
C2081  H2284   1.110   .     S
C2081  H2283   1.111   .     S
C2082  O2638   1.412   .     S
C2082  H2288   1.115   .     S
C2082  C2084   1.527   .     S
C2082  H2286   1.116   .     S
C2083  C2136   1.522   .     S
C2083  C685    1.422   1_565 S
C2084  H2290   1.111   .     S
C2084  H2289   1.111   .     S
C2084  C2085   1.526   .     S
C2085  H2292   1.109   .     S
C2085  H2293   1.110   .     S
C2085  H2291   1.111   .     S
C2086  H2295   1.117   .     S
C2086  C2087   1.533   .     S
C2086  H2294   1.110   .     S
C2086  O2640   1.419   .     S
C2087  C2088   1.526   .     S
C2087  H2296   1.111   .     S
C2087  H2297   1.110   .     S
C2088  H2299   1.111   .     S
C2088  H2301   1.111   .     S
C2088  H2300   1.110   .     S
C2089  O2641   1.419   .     S
C2089  H2303   1.117   .     S
C2089  C2090   1.531   .     S
C2089  H2302   1.111   .     S
C2090  H2305   1.108   .     S
C2090  H2304   1.111   .     S
C2090  C2091   1.527   .     S
C2091  H2307   1.110   .     S
C2091  H2308   1.110   .     S
C2091  H2306   1.111   .     S
C2092  O2642   1.417   .     S
C2092  C2093   1.536   .     S
C2092  H2310   1.111   .     S
C2092  H2311   1.115   .     S
C2093  C2095   1.525   .     S
C2093  H2312   1.112   .     S
C2093  H2313   1.111   .     S
C2094  C2138   1.516   .     S
C2094  C686    1.415   1_565 A
C2094  C2116   1.396   .     A
C2095  H2316   1.110   .     S
C2095  H2314   1.111   .     S
C2095  H2315   1.110   .     S
C2096  H2317   1.116   .     S
C2096  O2643   1.412   .     S
C2096  C2097   1.527   .     S
C2096  H2318   1.115   .     S
C2097  H2321   1.112   .     S
C2097  H2319   1.111   .     S
C2097  C2098   1.526   .     S
C2098  H2324   1.110   .     S
C2098  H2322   1.111   .     S
C2098  H2323   1.109   .     S
C2099  H2325   1.110   .     S
C2099  C2100   1.533   .     S
C2099  O2644   1.419   .     S
C2099  H2326   1.117   .     S
C2100  H2327   1.111   .     S
C2100  H2328   1.110   .     S
C2100  C2101   1.526   .     S
C2101  H2329   1.111   .     S
C2101  H2330   1.110   .     S
C2101  H2332   1.111   .     S
C2102  C2103   1.531   .     S
C2102  H2334   1.117   .     S
C2102  O2645   1.419   .     S
C2102  H2333   1.111   .     S
C2103  C2104   1.527   .     S
C2103  H2336   1.108   .     S
C2103  H2335   1.112   .     S
C2104  H2339   1.110   .     S
C2104  H2338   1.110   .     S
C2104  H2337   1.111   .     S
C2105  C2141   1.516   .     S
C2105  C2176   1.396   .     A
C2106  H2340   1.111   .     S
C2106  C2107   1.536   .     S
C2106  H2341   1.115   .     S
C2106  O2646   1.417   .     S
C2107  H2344   1.111   .     S
C2107  H2343   1.112   .     S
C2107  C2108   1.525   .     S
C2108  H2345   1.111   .     S
C2108  H2346   1.110   .     S
C2108  H2347   1.110   .     S
C2109  H2348   1.111   .     S
C2109  C2110   1.531   .     S
C2109  O2647   1.419   .     S
C2109  H2349   1.117   .     S
C2110  C2111   1.527   .     S
C2110  H2350   1.112   .     S
C2110  H2351   1.108   .     S
C2111  H2354   1.110   .     S
C2111  H2352   1.111   .     S
C2111  H2355   1.110   .     S
C2112  C2113   1.536   .     S
C2112  H2356   1.111   .     S
C2112  O2648   1.417   .     S
C2112  H2357   1.115   .     S
C2113  H2358   1.112   .     S
C2113  H2359   1.111   .     S
C2113  C2114   1.525   .     S
C2114  H2361   1.110   .     S
C2114  H2360   1.111   .     S
C2114  H2362   1.110   .     S
C2115  H2363   1.116   .     S
C2115  H2366   1.115   .     S
C2115  O2649   1.412   .     S
C2115  C2118   1.527   .     S
C2116  H2364   1.084   .     S
C2116  C845    1.398   1_565 S
C2117  C2187   1.397   .     A
C2117  C2143   1.522   .     S
C2118  C2119   1.526   .     S
C2118  H2367   1.111   .     S
C2118  H2368   1.112   .     S
C2119  H2370   1.109   .     S
C2119  H2371   1.110   .     S
C2119  H2369   1.111   .     S
C2120  O2651   1.419   .     S
C2120  H2373   1.117   .     S
C2120  H2372   1.110   .     S
C2120  C2121   1.533   .     S
C2121  H2374   1.111   .     S
C2121  C2122   1.526   .     S
C2121  H2375   1.110   .     S
C2122  H2379   1.111   .     S
C2122  H2377   1.111   .     S
C2122  H2378   1.110   .     S
C2123  H2380   1.111   .     S
C2123  O2652   1.419   .     S
C2123  H2381   1.117   .     S
C2123  C2124   1.531   .     S
C2124  H2382   1.112   .     S
C2124  C2125   1.527   .     S
C2124  H2383   1.108   .     S
C2125  H2385   1.110   .     S
C2125  H2384   1.111   .     S
C2125  H2386   1.110   .     S
C2126  H2389   1.115   .     S
C2126  H2388   1.111   .     S
C2126  O2653   1.417   .     S
C2126  C2127   1.536   .     S
C2127  H2390   1.112   .     S
C2127  H2391   1.111   .     S
C2127  C2129   1.525   .     S
C2128  C2198   1.397   .     A
C2128  C2145   1.522   .     S
C2129  H2394   1.110   .     S
C2129  H2393   1.110   .     S
C2129  H2392   1.111   .     S
C2130  C2131   1.527   .     S
C2130  H2395   1.116   .     S
C2130  O2654   1.412   .     S
C2130  H2396   1.115   .     S
C2131  H2399   1.111   .     S
C2131  H2397   1.111   .     S
C2131  C2132   1.526   .     S
C2132  H2402   1.110   .     S
C2132  H2400   1.111   .     S
C2132  H2401   1.109   .     S
C2133  O2655   1.419   .     S
C2133  H2403   1.110   .     S
C2133  C2134   1.533   .     S
C2133  H2404   1.117   .     S
C2134  C2135   1.526   .     S
C2134  H2406   1.110   .     S
C2134  H2405   1.111   .     S
C2135  H2410   1.111   .     S
C2135  H2408   1.110   .     S
C2135  H2407   1.111   .     S
C2136  H2415   1.112   .     S
C2136  H2414   1.108   .     S
C2136  C2137   1.528   .     S
C2137  H2413   1.111   .     S
C2137  H2411   1.110   .     S
C2137  H2412   1.108   .     S
C2138  H2421   1.112   .     S
C2138  H2419   1.111   .     S
C2138  C2140   1.527   .     S
C2139  C2209   1.396   .     A
C2139  C2147   1.516   .     S
C2140  H2416   1.111   .     S
C2140  H2417   1.109   .     S
C2140  H2418   1.110   .     S
C2141  H2425   1.111   .     S
C2141  H2426   1.112   .     S
C2141  C2142   1.527   .     S
C2142  H2424   1.110   .     S
C2142  H2422   1.111   .     S
C2142  H2423   1.109   .     S
C2143  H2432   1.112   .     S
C2143  H2430   1.108   .     S
C2143  C2144   1.528   .     S
C2144  H2428   1.108   .     S
C2144  H2429   1.111   .     S
C2144  H2427   1.110   .     S
C2145  H2437   1.112   .     S
C2145  H2436   1.108   .     S
C2145  C2146   1.528   .     S
C2146  H2434   1.108   .     S
C2146  H2435   1.111   .     S
C2146  H2433   1.110   .     S
C2147  C2148   1.527   .     S
C2147  H2443   1.112   .     S
C2147  H2441   1.111   .     S
C2148  H2439   1.109   .     S
C2148  H2440   1.110   .     S
C2148  H2438   1.111   .     S
C2149  C2150   1.516   .     S
C2149  H2447   1.111   .     S
C2149  C2151   1.527   .     S
C2149  H2448   1.112   .     S
C2150  C1355   1.415   1_655 A
C2150  C2220   1.396   .     A
C2151  H2445   1.109   .     S
C2151  H2446   1.110   .     S
C2151  H2444   1.111   .     S
C2152  H2454   1.112   .     S
C2152  C2153   1.528   .     S
C2152  H2452   1.108   .     S
C2152  C2161   1.522   .     S
C2153  H2451   1.111   .     S
C2153  H2449   1.110   .     S
C2153  H2450   1.108   .     S
C2154  C2155   1.528   .     S
C2154  C2171   1.522   .     S
C2154  H2459   1.112   .     S
C2154  H2458   1.108   .     S
C2155  H2457   1.111   .     S
C2155  H2456   1.108   .     S
C2155  H1787   1.110   1_655 S
C2156  H2465   1.112   .     S
C2156  C2172   1.516   .     S
C2156  H2463   1.111   .     S
C2157  H2462   1.110   .     S
C2157  H2461   1.109   .     S
C2157  H2460   1.111   .     S
C2157  C1488   1.527   1_655 S
C2158  H2469   1.111   .     S
C2158  C2173   1.517   .     S
C2158  H2470   1.112   .     S
C2158  C823    1.527   1_565 S
C2159  H2466   1.111   .     S
C2159  H2467   1.109   .     S
C2159  H2468   1.110   .     S
C2160  C2162   1.528   .     S
C2160  C2174   1.522   .     S
C2160  H2474   1.108   .     S
C2160  H2477   1.112   .     S
C2161  C1356   1.422   1_655 A
C2161  C2231   1.397   .     A
C2162  H2472   1.108   .     S
C2162  H2473   1.111   .     S
C2163  H2482   1.112   .     S
C2163  C2175   1.522   .     S
C2163  C2164   1.528   .     S
C2163  H2481   1.108   .     S
C2164  H2480   1.111   .     S
C2164  H2479   1.108   .     S
C2165  H2486   1.111   .     S
C2165  H2488   1.112   .     S
C2165  C2177   1.516   .     S
C2165  C1498   1.527   1_655 S
C2166  H2484   1.109   .     S
C2166  H2485   1.110   .     S
C2166  H2483   1.111   .     S
C2167  H2493   1.112   .     S
C2167  H2492   1.111   .     S
C2167  C2178   1.516   .     S
C2168  H2490   1.109   .     S
C2168  H2491   1.110   .     S
C2168  H2489   1.111   .     S
C2168  C831    1.527   1_565 S
C2169  H2497   1.108   .     S
C2169  H2499   1.112   .     S
C2169  C2170   1.528   .     S
C2169  C2179   1.522   .     S
C2170  H2496   1.111   .     S
C2170  H2495   1.108   .     S
C2170  H1158   1.110   1_565 S
C2171  C2242   1.397   .     A
C2171  C1357   1.422   1_655 S
C2173  C691    1.415   1_565 A
C2176  H2475   1.084   .     S
C2176  C2182   1.398   .     S
C2177  C1358   1.415   1_655 A
C2179  C693    1.422   1_565 S
C2180  C2181   1.465   1_554 S
C2180  C2198   1.395   .     S
C2181  C2209   1.398   .     A
C2181  C2180   1.465   1_556 S
C2182  C2183   1.465   1_554 S
C2183  C2182   1.465   1_556 S
C2183  C2187   1.395   .     S
C2184  C2185   1.465   .     S
C2186  C2188   1.465   .     S
C2187  H2507   1.084   .     S
C2189  O2656   1.281   .     A
C2190  O2628   1.278   .     A
C2191  O2639   1.278   .     S
C2192  O2576   1.281   .     S
C2193  O2577   1.281   .     A
C2193  O2581   1.281   .     A
C2194  O2582   1.278   .     A
C2194  O2578   1.278   .     S
C2195  O2579   1.278   .     S
C2195  O2583   1.278   .     S
C2196  O2585   1.281   .     A
C2196  O2580   1.281   .     A
C2197  O2614   1.277   .     A
C2197  C2252   1.451   .     S
C2197  O2586   1.277   .     A
C2198  H2518   1.084   .     S
C2199  O2615   1.280   .     A
C2199  O2587   1.280   .     A
C2200  O2612   1.280   .     A
C2200  O2588   1.280   .     A
C2201  O2613   1.277   .     A
C2201  O2589   1.277   .     A
C2202  O2590   1.277   .     A
C2202  O2619   1.277   .     A
C2203  O2620   1.280   .     A
C2203  O2591   1.280   .     A
C2204  O2592   1.280   .     A
C2204  O2616   1.280   .     A
C2204  C2250   1.463   .     S
C2205  O2618   1.277   .     A
C2205  C2251   1.455   .     S
C2205  O2593   1.277   .     A
C2206  O2594   1.280   .     A
C2206  O2605   1.280   .     A
C2207  O2607   1.277   .     A
C2207  O2596   1.277   .     A
C2208  O2603   1.277   .     A
C2208  O2597   1.277   .     A
C2209  H2529   1.084   .     S
C2210  O2604   1.280   .     A
C2210  O2598   1.280   .     A
C2211  O2610   1.280   .     A
C2211  O2599   1.280   .     A
C2212  O2611   1.277   .     A
C2212  O2600   1.277   .     A
C2213  O2608   1.277   .     A
C2213  O2601   1.277   .     A
C2214  O2609   1.280   .     A
C2214  O2602   1.280   .     A
C2215  C2232   1.391   .     A
C2215  O2621   1.383   .     S
C2216  O2622   1.386   .     S
C2216  C2230   1.391   .     A
C2217  O2623   1.386   .     S
C2217  C2229   1.393   .     A
C2218  O2624   1.386   .     S
C2218  C2228   1.393   .     A
C2219  O2625   1.383   .     S
C2219  C2227   1.391   .     A
C2220  C1514   1.398   1_655 A
C2220  H2540   1.084   .     S
C2221  O2626   1.386   .     S
C2221  C2226   1.391   .     A
C2222  C2225   1.393   .     A
C2222  O2627   1.386   .     S
C2223  O2629   1.386   .     S
C2223  C2224   1.393   .     A
C2224  O2630   1.386   .     S
C2225  O2631   1.386   .     S
C2226  O2632   1.383   .     S
C2227  O2633   1.386   .     S
C2228  O2634   1.386   .     S
C2229  O2635   1.386   .     S
C2229  C2252   1.407   .     A
C2230  C2251   1.407   .     A
C2230  O2636   1.383   .     S
C2231  H2551   1.084   .     S
C2231  C1515   1.395   1_655 A
C2232  O2637   1.386   .     S
C2232  C2250   1.415   .     A
C2233  C2249   1.391   .     A
C2233  O2638   1.383   .     S
C2233  C2251   1.407   .     A
C2234  C2250   1.416   .     A
C2234  C2248   1.391   .     A
C2234  O2640   1.386   .     S
C2235  O2641   1.386   .     S
C2235  C2247   1.393   .     A
C2236  C2252   1.407   .     A
C2236  C2246   1.393   .     A
C2236  O2642   1.386   .     S
C2237  O2643   1.383   .     S
C2237  C2245   1.391   .     A
C2238  O2644   1.386   .     S
C2238  C2244   1.391   .     A
C2239  C2243   1.393   .     A
C2239  O2645   1.386   .     S
C2240  O2646   1.386   .     S
C2240  C2241   1.393   .     A
C2241  O2647   1.386   .     S
C2242  C1516   1.395   1_655 A
C2242  H2562   1.084   .     S
C2243  O2648   1.386   .     S
C2244  O2649   1.383   .     S
C2245  O2651   1.386   .     S
C2246  O2652   1.386   .     S
C2247  O2653   1.386   .     S
C2248  O2654   1.383   .     S
C2249  O2655   1.386   .     S
H2274  C1409   1.111   1_655 S
H2365  C695    1.111   1_565 S
H2471  C826    1.110   1_565 S
H2478  C1496   1.110   1_655 S
O2573  Zn2657  1.945   .     S
O2573  Zn2668  1.945   .     S
O2573  Zn2660  1.945   .     S
O2574  Zn2659  1.932   .     S
O2574  C854    1.278   1_565 S
O2575  C1523   1.278   1_655 A
O2575  Zn2662  1.932   .     S
O2576  Zn2661  1.932   .     S
O2577  Zn2671  1.932   .     S
O2578  Zn2670  1.932   .     S
O2579  Zn2665  1.932   .     S
O2580  Zn2657  1.932   .     S
O2581  Zn2667  1.932   .     S
O2582  Zn2666  1.932   .     S
O2583  Zn2669  1.932   .     S
O2584  Zn2663  1.945   .     S
O2584  Zn2665  1.945   .     S
O2584  Zn2669  1.945   .     S
O2585  Zn2668  1.932   .     S
O2586  Zn2660  1.937   .     S
O2587  Zn2659  1.937   .     S
O2588  Zn2662  1.941   .     S
O2589  Zn2661  1.941   .     S
O2590  Zn2664  1.937   .     S
O2591  Zn2663  1.937   .     S
O2592  Zn2658  1.941   .     S
O2593  Zn2672  1.941   .     S
O2594  Zn2659  1.941   .     S
O2595  Zn2666  1.945   .     S
O2595  Zn2658  1.945   .     S
O2595  Zn2670  1.945   .     S
O2596  Zn2660  1.941   .     S
O2597  Zn2672  1.937   .     S
O2598  Zn2658  1.937   .     S
O2599  Zn2663  1.941   .     S
O2600  Zn2664  1.941   .     S
O2601  Zn2661  1.937   .     S
O2602  Zn2662  1.937   .     S
O2603  Zn1999  1.937   1_655 S
O2604  Zn2666  1.937   .     S
O2605  Zn1333  1.941   1_565 S
O2606  Zn2661  1.945   .     S
O2606  Zn2667  1.945   .     S
O2606  Zn2671  1.945   .     S
O2607  Zn2668  1.941   .     S
O2608  Zn2671  1.937   .     S
O2609  Zn2002  1.937   1_655 S
O2610  Zn2665  1.941   .     S
O2611  Zn1321  1.941   1_565 S
O2612  Zn1998  1.941   1_655 S
O2613  Zn2667  1.941   .     S
O2614  Zn2657  1.937   .     S
O2615  Zn1329  1.937   1_565 S
O2616  Zn2670  1.941   .     S
O2617  Zn2664  1.932   .     S
O2617  C853    1.281   1_565 S
O2618  Zn2003  1.941   1_655 S
O2619  Zn1332  1.937   1_565 S
O2620  Zn2669  1.937   .     S
O2628  Zn2663  1.932   .     S
O2639  Zn2658  1.932   .     S
O2650  Zn2672  1.932   .     S
O2650  C1524   1.281   1_655 A
O2656  Zn2660  1.932   .     S
Zn2659 O1248   1.945   1_565 S
Zn2662 O1927   1.945   1_655 S
Zn2664 O1237   1.945   1_565 S
Zn2672 O1938   1.945   1_655 S
