data_str_m1_o10_o18_pcu_sym.109
_audit_creation_date              2020-01-03
_audit_creation_method            'Materials Studio'
_symmetry_space_group_name_H-M    'P1'
_symmetry_Int_Tables_number       1
_symmetry_cell_setting            triclinic
loop_
_symmetry_equiv_pos_as_xyz
  x,y,z
_cell_length_a                    32.5111
_cell_length_b                    32.7791
_cell_length_c                    35.3949
_cell_angle_alpha                 98.1659
_cell_angle_beta                  73.0131
_cell_angle_gamma                 98.5472
loop_
_atom_site_label
_atom_site_type_symbol
_atom_site_fract_x
_atom_site_fract_y
_atom_site_fract_z
_atom_site_U_iso_or_equiv
_atom_site_adp_type
_atom_site_occupancy
C1     C     0.05249   0.15987   0.25880   0.00000  Uiso   1.00
C2     C     0.21431   0.13552   0.45267   0.00000  Uiso   1.00
C3     C     0.22401   0.10782   0.47514   0.00000  Uiso   1.00
C4     C     0.28109   0.17360   0.24123   0.00000  Uiso   1.00
C5     C     0.21859   0.11771   0.01681   0.00000  Uiso   1.00
C6     C     0.19872   0.15397   0.03593   0.00000  Uiso   1.00
C7     C     0.23327   0.09361   0.04006   0.00000  Uiso   1.00
C8     C     0.22402   0.10303   0.08172   0.00000  Uiso   1.00
C9     C     0.18451   0.15938   0.07812   0.00000  Uiso   1.00
C10    C     0.32707   0.17644   0.23777   0.00000  Uiso   1.00
C11    C     0.00710   0.15743   0.26222   0.00000  Uiso   1.00
C12    C     0.14066   0.24648   0.41346   0.00000  Uiso   1.00
C13    C     0.18016   0.32225   0.23810   0.00000  Uiso   1.00
C14    C     0.15078   0.01302   0.26312   0.00000  Uiso   1.00
C15    C     0.15593   0.05645   0.25898   0.00000  Uiso   1.00
C16    C     0.17672   0.27774   0.24137   0.00000  Uiso   1.00
C17    C     0.18810   0.14542   0.14385   0.00000  Uiso   1.00
C18    C     0.14662   0.18887   0.35623   0.00000  Uiso   1.00
C19    C     0.14673   0.20487   0.39758   0.00000  Uiso   1.00
C20    C     0.19877   0.13541   0.10054   0.00000  Uiso   1.00
C21    C     0.14913   0.26121   0.44992   0.00000  Uiso   1.00
C22    C     0.17067   0.29381   0.02354   0.00000  Uiso   1.00
C23    C     0.16021   0.17939   0.41919   0.00000  Uiso   1.00
C24    C     0.26128   0.06138   0.02199   0.00000  Uiso   1.00
C25    C     0.21742   0.00767   0.20590   0.00000  Uiso   1.00
C26    C     0.11208   0.33187   0.29615   0.00000  Uiso   1.00
C27    C     0.15022   0.18502   0.09912   0.00000  Uiso   1.00
C28    C     0.24088   0.07761   0.10563   0.00000  Uiso   1.00
C29    C     0.23576   0.06779   0.45466   0.00000  Uiso   1.00
C30    C     0.12664   0.27623   0.39205   0.00000  Uiso   1.00
C31    C     0.23499   0.13107   0.40797   0.00000  Uiso   1.00
C32    C     0.17372   0.19529   0.45323   0.00000  Uiso   1.00
C33    C     0.16574   0.23627   0.46995   0.00000  Uiso   1.00
C34    C     0.19284   0.17063   0.47226   0.00000  Uiso   1.00
C35    C     0.19160   0.18268   0.01245   0.00000  Uiso   1.00
C36    C     0.18700   0.22457   0.02721   0.00000  Uiso   1.00
C37    C     0.17485   0.25138   0.00624   0.00000  Uiso   1.00
H38    H     0.01681   0.19400   0.21523   0.00000  Uiso   1.00
H39    H     0.08958   0.30860   0.28383   0.00000  Uiso   1.00
H40    H     0.12284   0.31903   0.31859   0.00000  Uiso   1.00
H41    H     0.23190   0.08729   0.13799   0.00000  Uiso   1.00
H42    H     0.22790   0.04450   0.10139   0.00000  Uiso   1.00
H43    H     0.27679   0.08037   0.09530   0.00000  Uiso   1.00
H44    H     0.09434   0.26437   0.38776   0.00000  Uiso   1.00
H45    H     0.12398   0.30741   0.40901   0.00000  Uiso   1.00
H46    H     0.15078   0.28028   0.36291   0.00000  Uiso   1.00
H47    H     0.21656   0.10569   0.39327   0.00000  Uiso   1.00
H48    H     0.23808   0.16036   0.39459   0.00000  Uiso   1.00
H49    H     0.31804   0.13965   0.28492   0.00000  Uiso   1.00
H50    H     0.26874   0.12350   0.40137   0.00000  Uiso   1.00
H51    H     0.14359   0.29276   0.46217   0.00000  Uiso   1.00
H52    H     0.16068   0.14685   0.40862   0.00000  Uiso   1.00
H53    H     0.19454   0.23728   0.05467   0.00000  Uiso   1.00
H54    H     0.23869   0.31777   0.18769   0.00000  Uiso   1.00
H55    H     0.20455   0.02162   0.18548   0.00000  Uiso   1.00
H56    H     0.23782   0.03205   0.21958   0.00000  Uiso   1.00
H57    H     0.09341   0.02468   0.31198   0.00000  Uiso   1.00
N58    N     0.16730   0.32774   0.03741   0.00000  Uiso   1.00
N59    N     0.28375   0.03569   0.00804   0.00000  Uiso   1.00
N60    N     0.12287   0.20527   0.11595   0.00000  Uiso   1.00
N61    N     0.24482   0.03593   0.43796   0.00000  Uiso   1.00
O62    O     0.16667   0.16667   0.25000   0.00000  Uiso   1.00
O63    O     0.15693   0.12393   0.16625   0.00000  Uiso   1.00
O64    O     0.12687   0.20646   0.33749   0.00000  Uiso   1.00
O65    O     0.21088   0.17493   0.15877   0.00000  Uiso   1.00
O66    O     0.17198   0.16135   0.33749   0.00000  Uiso   1.00
O67    O     0.17849   0.08101   0.27820   0.00000  Uiso   1.00
O68    O     0.14581   0.26136   0.26767   0.00000  Uiso   1.00
O69    O     0.07452   0.13251   0.23607   0.00000  Uiso   1.00
O70    O     0.26785   0.19179   0.21805   0.00000  Uiso   1.00
O71    O     0.06990   0.18960   0.27820   0.00000  Uiso   1.00
O72    O     0.25440   0.15277   0.26767   0.00000  Uiso   1.00
O73    O     0.13800   0.06903   0.23607   0.00000  Uiso   1.00
O74    O     0.20437   0.25527   0.21805   0.00000  Uiso   1.00
Zn75   Zn    0.19244   0.14090   0.28277   0.00000  Uiso   1.00
Zn76   Zn    0.13459   0.12378   0.22257   0.00000  Uiso   1.00
Zn77   Zn    0.21166   0.19664   0.21188   0.00000  Uiso   1.00
Zn78   Zn    0.12798   0.20535   0.28277   0.00000  Uiso   1.00
C79    C     0.38583   0.15987   0.25880   0.00000  Uiso   1.00
C80    C     0.54764   0.13552   0.45267   0.00000  Uiso   1.00
C81    C     0.55735   0.10782   0.47514   0.00000  Uiso   1.00
C82    C     0.61443   0.17360   0.24123   0.00000  Uiso   1.00
C83    C     0.55193   0.11771   0.01681   0.00000  Uiso   1.00
C84    C     0.53205   0.15397   0.03593   0.00000  Uiso   1.00
C85    C     0.56660   0.09361   0.04006   0.00000  Uiso   1.00
C86    C     0.55736   0.10303   0.08172   0.00000  Uiso   1.00
C87    C     0.51784   0.15938   0.07812   0.00000  Uiso   1.00
C88    C     0.66040   0.17644   0.23777   0.00000  Uiso   1.00
C89    C     0.34043   0.15743   0.26222   0.00000  Uiso   1.00
C90    C     0.47399   0.24648   0.41346   0.00000  Uiso   1.00
C91    C     0.51349   0.32225   0.23810   0.00000  Uiso   1.00
C92    C     0.48411   0.01302   0.26312   0.00000  Uiso   1.00
C93    C     0.48927   0.05645   0.25898   0.00000  Uiso   1.00
C94    C     0.51005   0.27774   0.24137   0.00000  Uiso   1.00
C95    C     0.52143   0.14542   0.14385   0.00000  Uiso   1.00
C96    C     0.47995   0.18887   0.35623   0.00000  Uiso   1.00
C97    C     0.48007   0.20487   0.39758   0.00000  Uiso   1.00
C98    C     0.53211   0.13541   0.10054   0.00000  Uiso   1.00
C99    C     0.48247   0.26121   0.44992   0.00000  Uiso   1.00
C100   C     0.50400   0.29381   0.02354   0.00000  Uiso   1.00
C101   C     0.49355   0.17939   0.41919   0.00000  Uiso   1.00
C102   C     0.59462   0.06138   0.02199   0.00000  Uiso   1.00
C103   C     0.55075   0.00767   0.20590   0.00000  Uiso   1.00
C104   C     0.44541   0.33187   0.29615   0.00000  Uiso   1.00
C105   C     0.48355   0.18502   0.09912   0.00000  Uiso   1.00
C106   C     0.57422   0.07761   0.10563   0.00000  Uiso   1.00
C107   C     0.56910   0.06779   0.45466   0.00000  Uiso   1.00
C108   C     0.45998   0.27623   0.39205   0.00000  Uiso   1.00
C109   C     0.56832   0.13107   0.40797   0.00000  Uiso   1.00
C110   C     0.50706   0.19529   0.45323   0.00000  Uiso   1.00
C111   C     0.49907   0.23627   0.46995   0.00000  Uiso   1.00
C112   C     0.52617   0.17063   0.47226   0.00000  Uiso   1.00
C113   C     0.52494   0.18268   0.01245   0.00000  Uiso   1.00
C114   C     0.52034   0.22457   0.02721   0.00000  Uiso   1.00
C115   C     0.50819   0.25138   0.00624   0.00000  Uiso   1.00
H116   H     0.35014   0.19400   0.21523   0.00000  Uiso   1.00
H117   H     0.42291   0.30860   0.28383   0.00000  Uiso   1.00
H118   H     0.45617   0.31903   0.31859   0.00000  Uiso   1.00
H119   H     0.56523   0.08729   0.13799   0.00000  Uiso   1.00
H120   H     0.56123   0.04450   0.10139   0.00000  Uiso   1.00
H121   H     0.61012   0.08037   0.09530   0.00000  Uiso   1.00
H122   H     0.42767   0.26437   0.38776   0.00000  Uiso   1.00
H123   H     0.45731   0.30741   0.40901   0.00000  Uiso   1.00
H124   H     0.48411   0.28028   0.36291   0.00000  Uiso   1.00
H125   H     0.54989   0.10569   0.39327   0.00000  Uiso   1.00
H126   H     0.57141   0.16036   0.39459   0.00000  Uiso   1.00
H127   H     0.65138   0.13965   0.28492   0.00000  Uiso   1.00
H128   H     0.60207   0.12350   0.40137   0.00000  Uiso   1.00
H129   H     0.47692   0.29276   0.46217   0.00000  Uiso   1.00
H130   H     0.49401   0.14685   0.40862   0.00000  Uiso   1.00
H131   H     0.52787   0.23728   0.05467   0.00000  Uiso   1.00
H132   H     0.57202   0.31777   0.18769   0.00000  Uiso   1.00
H133   H     0.53789   0.02162   0.18548   0.00000  Uiso   1.00
H134   H     0.57115   0.03205   0.21958   0.00000  Uiso   1.00
H135   H     0.42674   0.02468   0.31198   0.00000  Uiso   1.00
N136   N     0.50064   0.32774   0.03741   0.00000  Uiso   1.00
N137   N     0.61708   0.03569   0.00804   0.00000  Uiso   1.00
N138   N     0.45620   0.20527   0.11595   0.00000  Uiso   1.00
N139   N     0.57816   0.03593   0.43796   0.00000  Uiso   1.00
O140   O     0.50000   0.16667   0.25000   0.00000  Uiso   1.00
O141   O     0.49027   0.12393   0.16625   0.00000  Uiso   1.00
O142   O     0.46020   0.20646   0.33749   0.00000  Uiso   1.00
O143   O     0.54421   0.17493   0.15877   0.00000  Uiso   1.00
O144   O     0.50532   0.16135   0.33749   0.00000  Uiso   1.00
O145   O     0.51182   0.08101   0.27820   0.00000  Uiso   1.00
O146   O     0.47914   0.26136   0.26767   0.00000  Uiso   1.00
O147   O     0.40785   0.13251   0.23607   0.00000  Uiso   1.00
O148   O     0.60119   0.19179   0.21805   0.00000  Uiso   1.00
O149   O     0.40323   0.18960   0.27820   0.00000  Uiso   1.00
O150   O     0.58773   0.15277   0.26767   0.00000  Uiso   1.00
O151   O     0.47133   0.06903   0.23607   0.00000  Uiso   1.00
O152   O     0.53771   0.25527   0.21805   0.00000  Uiso   1.00
Zn153  Zn    0.52577   0.14090   0.28277   0.00000  Uiso   1.00
Zn154  Zn    0.46792   0.12378   0.22257   0.00000  Uiso   1.00
Zn155  Zn    0.54500   0.19664   0.21188   0.00000  Uiso   1.00
Zn156  Zn    0.46131   0.20535   0.28277   0.00000  Uiso   1.00
C157   C     0.71916   0.15987   0.25880   0.00000  Uiso   1.00
C158   C     0.88098   0.13552   0.45267   0.00000  Uiso   1.00
C159   C     0.89068   0.10782   0.47514   0.00000  Uiso   1.00
C160   C     0.94776   0.17360   0.24123   0.00000  Uiso   1.00
C161   C     0.88526   0.11771   0.01681   0.00000  Uiso   1.00
C162   C     0.86539   0.15397   0.03593   0.00000  Uiso   1.00
C163   C     0.89994   0.09361   0.04006   0.00000  Uiso   1.00
C164   C     0.89069   0.10303   0.08172   0.00000  Uiso   1.00
C165   C     0.85117   0.15938   0.07812   0.00000  Uiso   1.00
C166   C     0.99374   0.17644   0.23777   0.00000  Uiso   1.00
C167   C     0.67377   0.15743   0.26222   0.00000  Uiso   1.00
C168   C     0.80733   0.24648   0.41346   0.00000  Uiso   1.00
C169   C     0.84683   0.32225   0.23810   0.00000  Uiso   1.00
C170   C     0.81744   0.01302   0.26312   0.00000  Uiso   1.00
C171   C     0.82260   0.05645   0.25898   0.00000  Uiso   1.00
C172   C     0.84339   0.27774   0.24137   0.00000  Uiso   1.00
C173   C     0.85476   0.14542   0.14385   0.00000  Uiso   1.00
C174   C     0.81328   0.18887   0.35623   0.00000  Uiso   1.00
C175   C     0.81340   0.20487   0.39758   0.00000  Uiso   1.00
C176   C     0.86544   0.13541   0.10054   0.00000  Uiso   1.00
C177   C     0.81580   0.26121   0.44992   0.00000  Uiso   1.00
C178   C     0.83733   0.29381   0.02354   0.00000  Uiso   1.00
C179   C     0.82688   0.17939   0.41919   0.00000  Uiso   1.00
C180   C     0.92795   0.06138   0.02199   0.00000  Uiso   1.00
C181   C     0.88409   0.00767   0.20590   0.00000  Uiso   1.00
C182   C     0.77874   0.33187   0.29615   0.00000  Uiso   1.00
C183   C     0.81689   0.18502   0.09912   0.00000  Uiso   1.00
C184   C     0.90755   0.07761   0.10563   0.00000  Uiso   1.00
C185   C     0.90243   0.06779   0.45466   0.00000  Uiso   1.00
C186   C     0.79331   0.27623   0.39205   0.00000  Uiso   1.00
C187   C     0.90166   0.13107   0.40797   0.00000  Uiso   1.00
C188   C     0.84039   0.19529   0.45323   0.00000  Uiso   1.00
C189   C     0.83241   0.23627   0.46995   0.00000  Uiso   1.00
C190   C     0.85950   0.17063   0.47226   0.00000  Uiso   1.00
C191   C     0.85827   0.18268   0.01245   0.00000  Uiso   1.00
C192   C     0.85367   0.22457   0.02721   0.00000  Uiso   1.00
C193   C     0.84152   0.25138   0.00624   0.00000  Uiso   1.00
H194   H     0.68348   0.19400   0.21523   0.00000  Uiso   1.00
H195   H     0.75624   0.30860   0.28383   0.00000  Uiso   1.00
H196   H     0.78950   0.31903   0.31859   0.00000  Uiso   1.00
H197   H     0.89857   0.08729   0.13799   0.00000  Uiso   1.00
H198   H     0.89457   0.04450   0.10139   0.00000  Uiso   1.00
H199   H     0.94345   0.08037   0.09530   0.00000  Uiso   1.00
H200   H     0.76101   0.26437   0.38776   0.00000  Uiso   1.00
H201   H     0.79065   0.30741   0.40901   0.00000  Uiso   1.00
H202   H     0.81745   0.28028   0.36291   0.00000  Uiso   1.00
H203   H     0.88323   0.10569   0.39327   0.00000  Uiso   1.00
H204   H     0.90475   0.16036   0.39459   0.00000  Uiso   1.00
H205   H     0.98471   0.13965   0.28492   0.00000  Uiso   1.00
H206   H     0.93541   0.12350   0.40137   0.00000  Uiso   1.00
H207   H     0.81026   0.29276   0.46217   0.00000  Uiso   1.00
H208   H     0.82734   0.14685   0.40862   0.00000  Uiso   1.00
H209   H     0.86120   0.23728   0.05467   0.00000  Uiso   1.00
H210   H     0.90536   0.31777   0.18769   0.00000  Uiso   1.00
H211   H     0.87122   0.02162   0.18548   0.00000  Uiso   1.00
H212   H     0.90449   0.03205   0.21958   0.00000  Uiso   1.00
H213   H     0.76007   0.02468   0.31198   0.00000  Uiso   1.00
N214   N     0.83397   0.32774   0.03741   0.00000  Uiso   1.00
N215   N     0.95042   0.03569   0.00804   0.00000  Uiso   1.00
N216   N     0.78953   0.20527   0.11595   0.00000  Uiso   1.00
N217   N     0.91149   0.03593   0.43796   0.00000  Uiso   1.00
O218   O     0.83333   0.16667   0.25000   0.00000  Uiso   1.00
O219   O     0.82360   0.12393   0.16625   0.00000  Uiso   1.00
O220   O     0.79354   0.20646   0.33749   0.00000  Uiso   1.00
O221   O     0.87755   0.17493   0.15877   0.00000  Uiso   1.00
O222   O     0.83865   0.16135   0.33749   0.00000  Uiso   1.00
O223   O     0.84515   0.08101   0.27820   0.00000  Uiso   1.00
O224   O     0.81247   0.26136   0.26767   0.00000  Uiso   1.00
O225   O     0.74119   0.13251   0.23607   0.00000  Uiso   1.00
O226   O     0.93452   0.19179   0.21805   0.00000  Uiso   1.00
O227   O     0.73656   0.18960   0.27820   0.00000  Uiso   1.00
O228   O     0.92106   0.15277   0.26767   0.00000  Uiso   1.00
O229   O     0.80467   0.06903   0.23607   0.00000  Uiso   1.00
O230   O     0.87104   0.25527   0.21805   0.00000  Uiso   1.00
Zn231  Zn    0.85910   0.14090   0.28277   0.00000  Uiso   1.00
Zn232  Zn    0.80125   0.12378   0.22257   0.00000  Uiso   1.00
Zn233  Zn    0.87833   0.19664   0.21188   0.00000  Uiso   1.00
Zn234  Zn    0.79465   0.20535   0.28277   0.00000  Uiso   1.00
C235   C     0.05249   0.49321   0.25880   0.00000  Uiso   1.00
C236   C     0.21431   0.46886   0.45267   0.00000  Uiso   1.00
C237   C     0.22401   0.44115   0.47514   0.00000  Uiso   1.00
C238   C     0.28109   0.50694   0.24123   0.00000  Uiso   1.00
C239   C     0.21859   0.45104   0.01681   0.00000  Uiso   1.00
C240   C     0.19872   0.48730   0.03593   0.00000  Uiso   1.00
C241   C     0.23327   0.42694   0.04006   0.00000  Uiso   1.00
C242   C     0.22402   0.43636   0.08172   0.00000  Uiso   1.00
C243   C     0.18451   0.49271   0.07812   0.00000  Uiso   1.00
C244   C     0.32707   0.50977   0.23777   0.00000  Uiso   1.00
C245   C     0.00710   0.49076   0.26222   0.00000  Uiso   1.00
C246   C     0.14066   0.57981   0.41346   0.00000  Uiso   1.00
C247   C     0.18016   0.65559   0.23810   0.00000  Uiso   1.00
C248   C     0.15078   0.34635   0.26312   0.00000  Uiso   1.00
C249   C     0.15593   0.38978   0.25898   0.00000  Uiso   1.00
C250   C     0.17672   0.61107   0.24137   0.00000  Uiso   1.00
C251   C     0.18810   0.47876   0.14385   0.00000  Uiso   1.00
C252   C     0.14662   0.52220   0.35623   0.00000  Uiso   1.00
C253   C     0.14673   0.53820   0.39758   0.00000  Uiso   1.00
C254   C     0.19877   0.46874   0.10054   0.00000  Uiso   1.00
C255   C     0.14913   0.59454   0.44992   0.00000  Uiso   1.00
C256   C     0.17067   0.62715   0.02354   0.00000  Uiso   1.00
C257   C     0.16021   0.51272   0.41919   0.00000  Uiso   1.00
C258   C     0.26128   0.39471   0.02199   0.00000  Uiso   1.00
C259   C     0.21742   0.34100   0.20590   0.00000  Uiso   1.00
C260   C     0.11208   0.66521   0.29615   0.00000  Uiso   1.00
C261   C     0.15022   0.51835   0.09912   0.00000  Uiso   1.00
C262   C     0.24088   0.41095   0.10563   0.00000  Uiso   1.00
C263   C     0.23576   0.40112   0.45466   0.00000  Uiso   1.00
C264   C     0.12664   0.60956   0.39205   0.00000  Uiso   1.00
C265   C     0.23499   0.46440   0.40797   0.00000  Uiso   1.00
C266   C     0.17372   0.52862   0.45323   0.00000  Uiso   1.00
C267   C     0.16574   0.56960   0.46995   0.00000  Uiso   1.00
C268   C     0.19284   0.50396   0.47226   0.00000  Uiso   1.00
C269   C     0.19160   0.51602   0.01245   0.00000  Uiso   1.00
C270   C     0.18700   0.55790   0.02721   0.00000  Uiso   1.00
C271   C     0.17485   0.58471   0.00624   0.00000  Uiso   1.00
H272   H     0.01681   0.52733   0.21523   0.00000  Uiso   1.00
H273   H     0.08958   0.64193   0.28383   0.00000  Uiso   1.00
H274   H     0.12284   0.65236   0.31859   0.00000  Uiso   1.00
H275   H     0.23190   0.42062   0.13799   0.00000  Uiso   1.00
H276   H     0.22790   0.37783   0.10139   0.00000  Uiso   1.00
H277   H     0.27679   0.41371   0.09530   0.00000  Uiso   1.00
H278   H     0.09434   0.59770   0.38776   0.00000  Uiso   1.00
H279   H     0.12398   0.64075   0.40901   0.00000  Uiso   1.00
H280   H     0.15078   0.61361   0.36291   0.00000  Uiso   1.00
H281   H     0.21656   0.43903   0.39327   0.00000  Uiso   1.00
H282   H     0.23808   0.49369   0.39459   0.00000  Uiso   1.00
H283   H     0.31804   0.47299   0.28492   0.00000  Uiso   1.00
H284   H     0.26874   0.45684   0.40137   0.00000  Uiso   1.00
H285   H     0.14359   0.62610   0.46217   0.00000  Uiso   1.00
H286   H     0.16068   0.48018   0.40862   0.00000  Uiso   1.00
H287   H     0.19454   0.57061   0.05467   0.00000  Uiso   1.00
H288   H     0.23869   0.65111   0.18769   0.00000  Uiso   1.00
H289   H     0.20455   0.35495   0.18548   0.00000  Uiso   1.00
H290   H     0.23782   0.36539   0.21958   0.00000  Uiso   1.00
H291   H     0.09341   0.35802   0.31198   0.00000  Uiso   1.00
N292   N     0.16730   0.66108   0.03741   0.00000  Uiso   1.00
N293   N     0.28375   0.36902   0.00804   0.00000  Uiso   1.00
N294   N     0.12287   0.53860   0.11595   0.00000  Uiso   1.00
N295   N     0.24482   0.36927   0.43796   0.00000  Uiso   1.00
O296   O     0.16667   0.50000   0.25000   0.00000  Uiso   1.00
O297   O     0.15693   0.45726   0.16625   0.00000  Uiso   1.00
O298   O     0.12687   0.53979   0.33749   0.00000  Uiso   1.00
O299   O     0.21088   0.50826   0.15877   0.00000  Uiso   1.00
O300   O     0.17198   0.49468   0.33749   0.00000  Uiso   1.00
O301   O     0.17849   0.41434   0.27820   0.00000  Uiso   1.00
O302   O     0.14581   0.59469   0.26767   0.00000  Uiso   1.00
O303   O     0.07452   0.46584   0.23607   0.00000  Uiso   1.00
O304   O     0.26785   0.52512   0.21805   0.00000  Uiso   1.00
O305   O     0.06990   0.52293   0.27820   0.00000  Uiso   1.00
O306   O     0.25440   0.48610   0.26767   0.00000  Uiso   1.00
O307   O     0.13800   0.40236   0.23607   0.00000  Uiso   1.00
O308   O     0.20437   0.58860   0.21805   0.00000  Uiso   1.00
Zn309  Zn    0.19244   0.47423   0.28277   0.00000  Uiso   1.00
Zn310  Zn    0.13459   0.45711   0.22257   0.00000  Uiso   1.00
Zn311  Zn    0.21166   0.52997   0.21188   0.00000  Uiso   1.00
Zn312  Zn    0.12798   0.53868   0.28277   0.00000  Uiso   1.00
C313   C     0.38583   0.49321   0.25880   0.00000  Uiso   1.00
C314   C     0.54764   0.46886   0.45267   0.00000  Uiso   1.00
C315   C     0.55735   0.44115   0.47514   0.00000  Uiso   1.00
C316   C     0.61443   0.50694   0.24123   0.00000  Uiso   1.00
C317   C     0.55193   0.45104   0.01681   0.00000  Uiso   1.00
C318   C     0.53205   0.48730   0.03593   0.00000  Uiso   1.00
C319   C     0.56660   0.42694   0.04006   0.00000  Uiso   1.00
C320   C     0.55736   0.43636   0.08172   0.00000  Uiso   1.00
C321   C     0.51784   0.49271   0.07812   0.00000  Uiso   1.00
C322   C     0.66040   0.50977   0.23777   0.00000  Uiso   1.00
C323   C     0.34043   0.49076   0.26222   0.00000  Uiso   1.00
C324   C     0.47399   0.57981   0.41346   0.00000  Uiso   1.00
C325   C     0.51349   0.65559   0.23810   0.00000  Uiso   1.00
C326   C     0.48411   0.34635   0.26312   0.00000  Uiso   1.00
C327   C     0.48927   0.38978   0.25898   0.00000  Uiso   1.00
C328   C     0.51005   0.61107   0.24137   0.00000  Uiso   1.00
C329   C     0.52143   0.47876   0.14385   0.00000  Uiso   1.00
C330   C     0.47995   0.52220   0.35623   0.00000  Uiso   1.00
C331   C     0.48007   0.53820   0.39758   0.00000  Uiso   1.00
C332   C     0.53211   0.46874   0.10054   0.00000  Uiso   1.00
C333   C     0.48247   0.59454   0.44992   0.00000  Uiso   1.00
C334   C     0.50400   0.62715   0.02354   0.00000  Uiso   1.00
C335   C     0.49355   0.51272   0.41919   0.00000  Uiso   1.00
C336   C     0.59462   0.39471   0.02199   0.00000  Uiso   1.00
C337   C     0.55075   0.34100   0.20590   0.00000  Uiso   1.00
C338   C     0.44541   0.66521   0.29615   0.00000  Uiso   1.00
C339   C     0.48355   0.51835   0.09912   0.00000  Uiso   1.00
C340   C     0.57422   0.41095   0.10563   0.00000  Uiso   1.00
C341   C     0.56910   0.40112   0.45466   0.00000  Uiso   1.00
C342   C     0.45998   0.60956   0.39205   0.00000  Uiso   1.00
C343   C     0.56832   0.46440   0.40797   0.00000  Uiso   1.00
C344   C     0.50706   0.52862   0.45323   0.00000  Uiso   1.00
C345   C     0.49907   0.56960   0.46995   0.00000  Uiso   1.00
C346   C     0.52617   0.50396   0.47226   0.00000  Uiso   1.00
C347   C     0.52494   0.51602   0.01245   0.00000  Uiso   1.00
C348   C     0.52034   0.55790   0.02721   0.00000  Uiso   1.00
C349   C     0.50819   0.58471   0.00624   0.00000  Uiso   1.00
H350   H     0.35014   0.52733   0.21523   0.00000  Uiso   1.00
H351   H     0.42291   0.64193   0.28383   0.00000  Uiso   1.00
H352   H     0.45617   0.65236   0.31859   0.00000  Uiso   1.00
H353   H     0.56523   0.42062   0.13799   0.00000  Uiso   1.00
H354   H     0.56123   0.37783   0.10139   0.00000  Uiso   1.00
H355   H     0.61012   0.41371   0.09530   0.00000  Uiso   1.00
H356   H     0.42767   0.59770   0.38776   0.00000  Uiso   1.00
H357   H     0.45731   0.64075   0.40901   0.00000  Uiso   1.00
H358   H     0.48411   0.61361   0.36291   0.00000  Uiso   1.00
H359   H     0.54989   0.43903   0.39327   0.00000  Uiso   1.00
H360   H     0.57141   0.49369   0.39459   0.00000  Uiso   1.00
H361   H     0.65138   0.47299   0.28492   0.00000  Uiso   1.00
H362   H     0.60207   0.45684   0.40137   0.00000  Uiso   1.00
H363   H     0.47692   0.62610   0.46217   0.00000  Uiso   1.00
H364   H     0.49401   0.48018   0.40862   0.00000  Uiso   1.00
H365   H     0.52787   0.57061   0.05467   0.00000  Uiso   1.00
H366   H     0.57202   0.65111   0.18769   0.00000  Uiso   1.00
H367   H     0.53789   0.35495   0.18548   0.00000  Uiso   1.00
H368   H     0.57115   0.36539   0.21958   0.00000  Uiso   1.00
H369   H     0.42674   0.35802   0.31198   0.00000  Uiso   1.00
N370   N     0.50064   0.66108   0.03741   0.00000  Uiso   1.00
N371   N     0.61708   0.36902   0.00804   0.00000  Uiso   1.00
N372   N     0.45620   0.53860   0.11595   0.00000  Uiso   1.00
N373   N     0.57816   0.36927   0.43796   0.00000  Uiso   1.00
O374   O     0.50000   0.50000   0.25000   0.00000  Uiso   1.00
O375   O     0.49027   0.45726   0.16625   0.00000  Uiso   1.00
O376   O     0.46020   0.53979   0.33749   0.00000  Uiso   1.00
O377   O     0.54421   0.50826   0.15877   0.00000  Uiso   1.00
O378   O     0.50532   0.49468   0.33749   0.00000  Uiso   1.00
O379   O     0.51182   0.41434   0.27820   0.00000  Uiso   1.00
O380   O     0.47914   0.59469   0.26767   0.00000  Uiso   1.00
O381   O     0.40785   0.46584   0.23607   0.00000  Uiso   1.00
O382   O     0.60119   0.52512   0.21805   0.00000  Uiso   1.00
O383   O     0.40323   0.52293   0.27820   0.00000  Uiso   1.00
O384   O     0.58773   0.48610   0.26767   0.00000  Uiso   1.00
O385   O     0.47133   0.40236   0.23607   0.00000  Uiso   1.00
O386   O     0.53771   0.58860   0.21805   0.00000  Uiso   1.00
Zn387  Zn    0.52577   0.47423   0.28277   0.00000  Uiso   1.00
Zn388  Zn    0.46792   0.45711   0.22257   0.00000  Uiso   1.00
Zn389  Zn    0.54500   0.52997   0.21188   0.00000  Uiso   1.00
Zn390  Zn    0.46131   0.53868   0.28277   0.00000  Uiso   1.00
C391   C     0.71916   0.49321   0.25880   0.00000  Uiso   1.00
C392   C     0.88098   0.46886   0.45267   0.00000  Uiso   1.00
C393   C     0.89068   0.44115   0.47514   0.00000  Uiso   1.00
C394   C     0.94776   0.50694   0.24123   0.00000  Uiso   1.00
C395   C     0.88526   0.45104   0.01681   0.00000  Uiso   1.00
C396   C     0.86539   0.48730   0.03593   0.00000  Uiso   1.00
C397   C     0.89994   0.42694   0.04006   0.00000  Uiso   1.00
C398   C     0.89069   0.43636   0.08172   0.00000  Uiso   1.00
C399   C     0.85117   0.49271   0.07812   0.00000  Uiso   1.00
C400   C     0.99374   0.50977   0.23777   0.00000  Uiso   1.00
C401   C     0.67377   0.49076   0.26222   0.00000  Uiso   1.00
C402   C     0.80733   0.57981   0.41346   0.00000  Uiso   1.00
C403   C     0.84683   0.65559   0.23810   0.00000  Uiso   1.00
C404   C     0.81744   0.34635   0.26312   0.00000  Uiso   1.00
C405   C     0.82260   0.38978   0.25898   0.00000  Uiso   1.00
C406   C     0.84339   0.61107   0.24137   0.00000  Uiso   1.00
C407   C     0.85476   0.47876   0.14385   0.00000  Uiso   1.00
C408   C     0.81328   0.52220   0.35623   0.00000  Uiso   1.00
C409   C     0.81340   0.53820   0.39758   0.00000  Uiso   1.00
C410   C     0.86544   0.46874   0.10054   0.00000  Uiso   1.00
C411   C     0.81580   0.59454   0.44992   0.00000  Uiso   1.00
C412   C     0.83733   0.62715   0.02354   0.00000  Uiso   1.00
C413   C     0.82688   0.51272   0.41919   0.00000  Uiso   1.00
C414   C     0.92795   0.39471   0.02199   0.00000  Uiso   1.00
C415   C     0.88409   0.34100   0.20590   0.00000  Uiso   1.00
C416   C     0.77874   0.66521   0.29615   0.00000  Uiso   1.00
C417   C     0.81689   0.51835   0.09912   0.00000  Uiso   1.00
C418   C     0.90755   0.41095   0.10563   0.00000  Uiso   1.00
C419   C     0.90243   0.40112   0.45466   0.00000  Uiso   1.00
C420   C     0.79331   0.60956   0.39205   0.00000  Uiso   1.00
C421   C     0.90166   0.46440   0.40797   0.00000  Uiso   1.00
C422   C     0.84039   0.52862   0.45323   0.00000  Uiso   1.00
C423   C     0.83241   0.56960   0.46995   0.00000  Uiso   1.00
C424   C     0.85950   0.50396   0.47226   0.00000  Uiso   1.00
C425   C     0.85827   0.51602   0.01245   0.00000  Uiso   1.00
C426   C     0.85367   0.55790   0.02721   0.00000  Uiso   1.00
C427   C     0.84152   0.58471   0.00624   0.00000  Uiso   1.00
H428   H     0.68348   0.52733   0.21523   0.00000  Uiso   1.00
H429   H     0.75624   0.64193   0.28383   0.00000  Uiso   1.00
H430   H     0.78950   0.65236   0.31859   0.00000  Uiso   1.00
H431   H     0.89857   0.42062   0.13799   0.00000  Uiso   1.00
H432   H     0.89457   0.37783   0.10139   0.00000  Uiso   1.00
H433   H     0.94345   0.41371   0.09530   0.00000  Uiso   1.00
H434   H     0.76101   0.59770   0.38776   0.00000  Uiso   1.00
H435   H     0.79065   0.64075   0.40901   0.00000  Uiso   1.00
H436   H     0.81745   0.61361   0.36291   0.00000  Uiso   1.00
H437   H     0.88323   0.43903   0.39327   0.00000  Uiso   1.00
H438   H     0.90475   0.49369   0.39459   0.00000  Uiso   1.00
H439   H     0.98471   0.47299   0.28492   0.00000  Uiso   1.00
H440   H     0.93541   0.45684   0.40137   0.00000  Uiso   1.00
H441   H     0.81026   0.62610   0.46217   0.00000  Uiso   1.00
H442   H     0.82734   0.48018   0.40862   0.00000  Uiso   1.00
H443   H     0.86120   0.57061   0.05467   0.00000  Uiso   1.00
H444   H     0.90536   0.65111   0.18769   0.00000  Uiso   1.00
H445   H     0.87122   0.35495   0.18548   0.00000  Uiso   1.00
H446   H     0.90449   0.36539   0.21958   0.00000  Uiso   1.00
H447   H     0.76007   0.35802   0.31198   0.00000  Uiso   1.00
N448   N     0.83397   0.66108   0.03741   0.00000  Uiso   1.00
N449   N     0.95042   0.36902   0.00804   0.00000  Uiso   1.00
N450   N     0.78953   0.53860   0.11595   0.00000  Uiso   1.00
N451   N     0.91149   0.36927   0.43796   0.00000  Uiso   1.00
O452   O     0.83333   0.50000   0.25000   0.00000  Uiso   1.00
O453   O     0.82360   0.45726   0.16625   0.00000  Uiso   1.00
O454   O     0.79354   0.53979   0.33749   0.00000  Uiso   1.00
O455   O     0.87755   0.50826   0.15877   0.00000  Uiso   1.00
O456   O     0.83865   0.49468   0.33749   0.00000  Uiso   1.00
O457   O     0.84515   0.41434   0.27820   0.00000  Uiso   1.00
O458   O     0.81247   0.59469   0.26767   0.00000  Uiso   1.00
O459   O     0.74119   0.46584   0.23607   0.00000  Uiso   1.00
O460   O     0.93452   0.52512   0.21805   0.00000  Uiso   1.00
O461   O     0.73656   0.52293   0.27820   0.00000  Uiso   1.00
O462   O     0.92106   0.48610   0.26767   0.00000  Uiso   1.00
O463   O     0.80467   0.40236   0.23607   0.00000  Uiso   1.00
O464   O     0.87104   0.58860   0.21805   0.00000  Uiso   1.00
Zn465  Zn    0.85910   0.47423   0.28277   0.00000  Uiso   1.00
Zn466  Zn    0.80125   0.45711   0.22257   0.00000  Uiso   1.00
Zn467  Zn    0.87833   0.52997   0.21188   0.00000  Uiso   1.00
Zn468  Zn    0.79465   0.53868   0.28277   0.00000  Uiso   1.00
C469   C     0.05249   0.82654   0.25880   0.00000  Uiso   1.00
C470   C     0.21431   0.80219   0.45267   0.00000  Uiso   1.00
C471   C     0.22401   0.77449   0.47514   0.00000  Uiso   1.00
C472   C     0.28109   0.84027   0.24123   0.00000  Uiso   1.00
C473   C     0.21859   0.78437   0.01681   0.00000  Uiso   1.00
C474   C     0.19872   0.82063   0.03593   0.00000  Uiso   1.00
C475   C     0.23327   0.76028   0.04006   0.00000  Uiso   1.00
C476   C     0.22402   0.76969   0.08172   0.00000  Uiso   1.00
C477   C     0.18451   0.82605   0.07812   0.00000  Uiso   1.00
C478   C     0.32707   0.84311   0.23777   0.00000  Uiso   1.00
C479   C     0.00710   0.82410   0.26222   0.00000  Uiso   1.00
C480   C     0.14066   0.91314   0.41346   0.00000  Uiso   1.00
C481   C     0.18016   0.98892   0.23810   0.00000  Uiso   1.00
C482   C     0.15078   0.67968   0.26312   0.00000  Uiso   1.00
C483   C     0.15593   0.72311   0.25898   0.00000  Uiso   1.00
C484   C     0.17672   0.94441   0.24137   0.00000  Uiso   1.00
C485   C     0.18810   0.81209   0.14385   0.00000  Uiso   1.00
C486   C     0.14662   0.85553   0.35623   0.00000  Uiso   1.00
C487   C     0.14673   0.87153   0.39758   0.00000  Uiso   1.00
C488   C     0.19877   0.80208   0.10054   0.00000  Uiso   1.00
C489   C     0.14913   0.92787   0.44992   0.00000  Uiso   1.00
C490   C     0.17067   0.96048   0.02354   0.00000  Uiso   1.00
C491   C     0.16021   0.84606   0.41919   0.00000  Uiso   1.00
C492   C     0.26128   0.72804   0.02199   0.00000  Uiso   1.00
C493   C     0.21742   0.67433   0.20590   0.00000  Uiso   1.00
C494   C     0.11208   0.99854   0.29615   0.00000  Uiso   1.00
C495   C     0.15022   0.85168   0.09912   0.00000  Uiso   1.00
C496   C     0.24088   0.74428   0.10563   0.00000  Uiso   1.00
C497   C     0.23576   0.73446   0.45466   0.00000  Uiso   1.00
C498   C     0.12664   0.94290   0.39205   0.00000  Uiso   1.00
C499   C     0.23499   0.79773   0.40797   0.00000  Uiso   1.00
C500   C     0.17372   0.86196   0.45323   0.00000  Uiso   1.00
C501   C     0.16574   0.90294   0.46995   0.00000  Uiso   1.00
C502   C     0.19284   0.83729   0.47226   0.00000  Uiso   1.00
C503   C     0.19160   0.84935   0.01245   0.00000  Uiso   1.00
C504   C     0.18700   0.89124   0.02721   0.00000  Uiso   1.00
C505   C     0.17485   0.91804   0.00624   0.00000  Uiso   1.00
H506   H     0.01681   0.86067   0.21523   0.00000  Uiso   1.00
H507   H     0.08958   0.97527   0.28383   0.00000  Uiso   1.00
H508   H     0.12284   0.98570   0.31859   0.00000  Uiso   1.00
H509   H     0.23190   0.75396   0.13799   0.00000  Uiso   1.00
H510   H     0.22790   0.71116   0.10139   0.00000  Uiso   1.00
H511   H     0.27679   0.74704   0.09530   0.00000  Uiso   1.00
H512   H     0.09434   0.93103   0.38776   0.00000  Uiso   1.00
H513   H     0.12398   0.97408   0.40901   0.00000  Uiso   1.00
H514   H     0.15078   0.94694   0.36291   0.00000  Uiso   1.00
H515   H     0.21656   0.77236   0.39327   0.00000  Uiso   1.00
H516   H     0.23808   0.82702   0.39459   0.00000  Uiso   1.00
H517   H     0.31804   0.80632   0.28492   0.00000  Uiso   1.00
H518   H     0.26874   0.79017   0.40137   0.00000  Uiso   1.00
H519   H     0.14359   0.95943   0.46217   0.00000  Uiso   1.00
H520   H     0.16068   0.81351   0.40862   0.00000  Uiso   1.00
H521   H     0.19454   0.90395   0.05467   0.00000  Uiso   1.00
H522   H     0.23869   0.98444   0.18769   0.00000  Uiso   1.00
H523   H     0.20455   0.68828   0.18548   0.00000  Uiso   1.00
H524   H     0.23782   0.69872   0.21958   0.00000  Uiso   1.00
H525   H     0.09341   0.69135   0.31198   0.00000  Uiso   1.00
N526   N     0.16730   0.99441   0.03741   0.00000  Uiso   1.00
N527   N     0.28375   0.70235   0.00804   0.00000  Uiso   1.00
N528   N     0.12287   0.87193   0.11595   0.00000  Uiso   1.00
N529   N     0.24482   0.70260   0.43796   0.00000  Uiso   1.00
O530   O     0.16667   0.83333   0.25000   0.00000  Uiso   1.00
O531   O     0.15693   0.79060   0.16625   0.00000  Uiso   1.00
O532   O     0.12687   0.87313   0.33749   0.00000  Uiso   1.00
O533   O     0.21088   0.84159   0.15877   0.00000  Uiso   1.00
O534   O     0.17198   0.82802   0.33749   0.00000  Uiso   1.00
O535   O     0.17849   0.74768   0.27820   0.00000  Uiso   1.00
O536   O     0.14581   0.92803   0.26767   0.00000  Uiso   1.00
O537   O     0.07452   0.79917   0.23607   0.00000  Uiso   1.00
O538   O     0.26785   0.85845   0.21805   0.00000  Uiso   1.00
O539   O     0.06990   0.85627   0.27820   0.00000  Uiso   1.00
O540   O     0.25440   0.81944   0.26767   0.00000  Uiso   1.00
O541   O     0.13800   0.73570   0.23607   0.00000  Uiso   1.00
O542   O     0.20437   0.92193   0.21805   0.00000  Uiso   1.00
Zn543  Zn    0.19244   0.80756   0.28277   0.00000  Uiso   1.00
Zn544  Zn    0.13459   0.79044   0.22257   0.00000  Uiso   1.00
Zn545  Zn    0.21166   0.86331   0.21188   0.00000  Uiso   1.00
Zn546  Zn    0.12798   0.87202   0.28277   0.00000  Uiso   1.00
C547   C     0.38583   0.82654   0.25880   0.00000  Uiso   1.00
C548   C     0.54764   0.80219   0.45267   0.00000  Uiso   1.00
C549   C     0.55735   0.77449   0.47514   0.00000  Uiso   1.00
C550   C     0.61443   0.84027   0.24123   0.00000  Uiso   1.00
C551   C     0.55193   0.78437   0.01681   0.00000  Uiso   1.00
C552   C     0.53205   0.82063   0.03593   0.00000  Uiso   1.00
C553   C     0.56660   0.76028   0.04006   0.00000  Uiso   1.00
C554   C     0.55736   0.76969   0.08172   0.00000  Uiso   1.00
C555   C     0.51784   0.82605   0.07812   0.00000  Uiso   1.00
C556   C     0.66040   0.84311   0.23777   0.00000  Uiso   1.00
C557   C     0.34043   0.82410   0.26222   0.00000  Uiso   1.00
C558   C     0.47399   0.91314   0.41346   0.00000  Uiso   1.00
C559   C     0.51349   0.98892   0.23810   0.00000  Uiso   1.00
C560   C     0.48411   0.67968   0.26312   0.00000  Uiso   1.00
C561   C     0.48927   0.72311   0.25898   0.00000  Uiso   1.00
C562   C     0.51005   0.94441   0.24137   0.00000  Uiso   1.00
C563   C     0.52143   0.81209   0.14385   0.00000  Uiso   1.00
C564   C     0.47995   0.85553   0.35623   0.00000  Uiso   1.00
C565   C     0.48007   0.87153   0.39758   0.00000  Uiso   1.00
C566   C     0.53211   0.80208   0.10054   0.00000  Uiso   1.00
C567   C     0.48247   0.92787   0.44992   0.00000  Uiso   1.00
C568   C     0.50400   0.96048   0.02354   0.00000  Uiso   1.00
C569   C     0.49355   0.84606   0.41919   0.00000  Uiso   1.00
C570   C     0.59462   0.72804   0.02199   0.00000  Uiso   1.00
C571   C     0.55075   0.67433   0.20590   0.00000  Uiso   1.00
C572   C     0.44541   0.99854   0.29615   0.00000  Uiso   1.00
C573   C     0.48355   0.85168   0.09912   0.00000  Uiso   1.00
C574   C     0.57422   0.74428   0.10563   0.00000  Uiso   1.00
C575   C     0.56910   0.73446   0.45466   0.00000  Uiso   1.00
C576   C     0.45998   0.94290   0.39205   0.00000  Uiso   1.00
C577   C     0.56832   0.79773   0.40797   0.00000  Uiso   1.00
C578   C     0.50706   0.86196   0.45323   0.00000  Uiso   1.00
C579   C     0.49907   0.90294   0.46995   0.00000  Uiso   1.00
C580   C     0.52617   0.83729   0.47226   0.00000  Uiso   1.00
C581   C     0.52494   0.84935   0.01245   0.00000  Uiso   1.00
C582   C     0.52034   0.89124   0.02721   0.00000  Uiso   1.00
C583   C     0.50819   0.91804   0.00624   0.00000  Uiso   1.00
H584   H     0.35014   0.86067   0.21523   0.00000  Uiso   1.00
H585   H     0.42291   0.97527   0.28383   0.00000  Uiso   1.00
H586   H     0.45617   0.98570   0.31859   0.00000  Uiso   1.00
H587   H     0.56523   0.75396   0.13799   0.00000  Uiso   1.00
H588   H     0.56123   0.71116   0.10139   0.00000  Uiso   1.00
H589   H     0.61012   0.74704   0.09530   0.00000  Uiso   1.00
H590   H     0.42767   0.93103   0.38776   0.00000  Uiso   1.00
H591   H     0.45731   0.97408   0.40901   0.00000  Uiso   1.00
H592   H     0.48411   0.94694   0.36291   0.00000  Uiso   1.00
H593   H     0.54989   0.77236   0.39327   0.00000  Uiso   1.00
H594   H     0.57141   0.82702   0.39459   0.00000  Uiso   1.00
H595   H     0.65138   0.80632   0.28492   0.00000  Uiso   1.00
H596   H     0.60207   0.79017   0.40137   0.00000  Uiso   1.00
H597   H     0.47692   0.95943   0.46217   0.00000  Uiso   1.00
H598   H     0.49401   0.81351   0.40862   0.00000  Uiso   1.00
H599   H     0.52787   0.90395   0.05467   0.00000  Uiso   1.00
H600   H     0.57202   0.98444   0.18769   0.00000  Uiso   1.00
H601   H     0.53789   0.68828   0.18548   0.00000  Uiso   1.00
H602   H     0.57115   0.69872   0.21958   0.00000  Uiso   1.00
H603   H     0.42674   0.69135   0.31198   0.00000  Uiso   1.00
N604   N     0.50064   0.99441   0.03741   0.00000  Uiso   1.00
N605   N     0.61708   0.70235   0.00804   0.00000  Uiso   1.00
N606   N     0.45620   0.87193   0.11595   0.00000  Uiso   1.00
N607   N     0.57816   0.70260   0.43796   0.00000  Uiso   1.00
O608   O     0.50000   0.83333   0.25000   0.00000  Uiso   1.00
O609   O     0.49027   0.79060   0.16625   0.00000  Uiso   1.00
O610   O     0.46020   0.87313   0.33749   0.00000  Uiso   1.00
O611   O     0.54421   0.84159   0.15877   0.00000  Uiso   1.00
O612   O     0.50532   0.82802   0.33749   0.00000  Uiso   1.00
O613   O     0.51182   0.74768   0.27820   0.00000  Uiso   1.00
O614   O     0.47914   0.92803   0.26767   0.00000  Uiso   1.00
O615   O     0.40785   0.79917   0.23607   0.00000  Uiso   1.00
O616   O     0.60119   0.85845   0.21805   0.00000  Uiso   1.00
O617   O     0.40323   0.85627   0.27820   0.00000  Uiso   1.00
O618   O     0.58773   0.81944   0.26767   0.00000  Uiso   1.00
O619   O     0.47133   0.73570   0.23607   0.00000  Uiso   1.00
O620   O     0.53771   0.92193   0.21805   0.00000  Uiso   1.00
Zn621  Zn    0.52577   0.80756   0.28277   0.00000  Uiso   1.00
Zn622  Zn    0.46792   0.79044   0.22257   0.00000  Uiso   1.00
Zn623  Zn    0.54500   0.86331   0.21188   0.00000  Uiso   1.00
Zn624  Zn    0.46131   0.87202   0.28277   0.00000  Uiso   1.00
C625   C     0.71916   0.82654   0.25880   0.00000  Uiso   1.00
C626   C     0.88098   0.80219   0.45267   0.00000  Uiso   1.00
C627   C     0.89068   0.77449   0.47514   0.00000  Uiso   1.00
C628   C     0.94776   0.84027   0.24123   0.00000  Uiso   1.00
C629   C     0.88526   0.78437   0.01681   0.00000  Uiso   1.00
C630   C     0.86539   0.82063   0.03593   0.00000  Uiso   1.00
C631   C     0.89994   0.76028   0.04006   0.00000  Uiso   1.00
C632   C     0.89069   0.76969   0.08172   0.00000  Uiso   1.00
C633   C     0.85117   0.82605   0.07812   0.00000  Uiso   1.00
C634   C     0.99374   0.84311   0.23777   0.00000  Uiso   1.00
C635   C     0.67377   0.82410   0.26222   0.00000  Uiso   1.00
C636   C     0.80733   0.91314   0.41346   0.00000  Uiso   1.00
C637   C     0.84683   0.98892   0.23810   0.00000  Uiso   1.00
C638   C     0.81744   0.67968   0.26312   0.00000  Uiso   1.00
C639   C     0.82260   0.72311   0.25898   0.00000  Uiso   1.00
C640   C     0.84339   0.94441   0.24137   0.00000  Uiso   1.00
C641   C     0.85476   0.81209   0.14385   0.00000  Uiso   1.00
C642   C     0.81328   0.85553   0.35623   0.00000  Uiso   1.00
C643   C     0.81340   0.87153   0.39758   0.00000  Uiso   1.00
C644   C     0.86544   0.80208   0.10054   0.00000  Uiso   1.00
C645   C     0.81580   0.92787   0.44992   0.00000  Uiso   1.00
C646   C     0.83733   0.96048   0.02354   0.00000  Uiso   1.00
C647   C     0.82688   0.84606   0.41919   0.00000  Uiso   1.00
C648   C     0.92795   0.72804   0.02199   0.00000  Uiso   1.00
C649   C     0.88409   0.67433   0.20590   0.00000  Uiso   1.00
C650   C     0.77874   0.99854   0.29615   0.00000  Uiso   1.00
C651   C     0.81689   0.85168   0.09912   0.00000  Uiso   1.00
C652   C     0.90755   0.74428   0.10563   0.00000  Uiso   1.00
C653   C     0.90243   0.73446   0.45466   0.00000  Uiso   1.00
C654   C     0.79331   0.94290   0.39205   0.00000  Uiso   1.00
C655   C     0.90166   0.79773   0.40797   0.00000  Uiso   1.00
C656   C     0.84039   0.86196   0.45323   0.00000  Uiso   1.00
C657   C     0.83241   0.90294   0.46995   0.00000  Uiso   1.00
C658   C     0.85950   0.83729   0.47226   0.00000  Uiso   1.00
C659   C     0.85827   0.84935   0.01245   0.00000  Uiso   1.00
C660   C     0.85367   0.89124   0.02721   0.00000  Uiso   1.00
C661   C     0.84152   0.91804   0.00624   0.00000  Uiso   1.00
H662   H     0.68348   0.86067   0.21523   0.00000  Uiso   1.00
H663   H     0.75624   0.97527   0.28383   0.00000  Uiso   1.00
H664   H     0.78950   0.98570   0.31859   0.00000  Uiso   1.00
H665   H     0.89857   0.75396   0.13799   0.00000  Uiso   1.00
H666   H     0.89457   0.71116   0.10139   0.00000  Uiso   1.00
H667   H     0.94345   0.74704   0.09530   0.00000  Uiso   1.00
H668   H     0.76101   0.93103   0.38776   0.00000  Uiso   1.00
H669   H     0.79065   0.97408   0.40901   0.00000  Uiso   1.00
H670   H     0.81745   0.94694   0.36291   0.00000  Uiso   1.00
H671   H     0.88323   0.77236   0.39327   0.00000  Uiso   1.00
H672   H     0.90475   0.82702   0.39459   0.00000  Uiso   1.00
H673   H     0.98471   0.80632   0.28492   0.00000  Uiso   1.00
H674   H     0.93541   0.79017   0.40137   0.00000  Uiso   1.00
H675   H     0.81026   0.95943   0.46217   0.00000  Uiso   1.00
H676   H     0.82734   0.81351   0.40862   0.00000  Uiso   1.00
H677   H     0.86120   0.90395   0.05467   0.00000  Uiso   1.00
H678   H     0.90536   0.98444   0.18769   0.00000  Uiso   1.00
H679   H     0.87122   0.68828   0.18548   0.00000  Uiso   1.00
H680   H     0.90449   0.69872   0.21958   0.00000  Uiso   1.00
H681   H     0.76007   0.69135   0.31198   0.00000  Uiso   1.00
N682   N     0.83397   0.99441   0.03741   0.00000  Uiso   1.00
N683   N     0.95042   0.70235   0.00804   0.00000  Uiso   1.00
N684   N     0.78953   0.87193   0.11595   0.00000  Uiso   1.00
N685   N     0.91149   0.70260   0.43796   0.00000  Uiso   1.00
O686   O     0.83333   0.83333   0.25000   0.00000  Uiso   1.00
O687   O     0.82360   0.79060   0.16625   0.00000  Uiso   1.00
O688   O     0.79354   0.87313   0.33749   0.00000  Uiso   1.00
O689   O     0.87755   0.84159   0.15877   0.00000  Uiso   1.00
O690   O     0.83865   0.82802   0.33749   0.00000  Uiso   1.00
O691   O     0.84515   0.74768   0.27820   0.00000  Uiso   1.00
O692   O     0.81247   0.92803   0.26767   0.00000  Uiso   1.00
O693   O     0.74119   0.79917   0.23607   0.00000  Uiso   1.00
O694   O     0.93452   0.85845   0.21805   0.00000  Uiso   1.00
O695   O     0.73656   0.85627   0.27820   0.00000  Uiso   1.00
O696   O     0.92106   0.81944   0.26767   0.00000  Uiso   1.00
O697   O     0.80467   0.73570   0.23607   0.00000  Uiso   1.00
O698   O     0.87104   0.92193   0.21805   0.00000  Uiso   1.00
Zn699  Zn    0.85910   0.80756   0.28277   0.00000  Uiso   1.00
Zn700  Zn    0.80125   0.79044   0.22257   0.00000  Uiso   1.00
Zn701  Zn    0.87833   0.86331   0.21188   0.00000  Uiso   1.00
Zn702  Zn    0.79465   0.87202   0.28277   0.00000  Uiso   1.00
C703   C     0.05249   0.15987   0.75880   0.00000  Uiso   1.00
C704   C     0.21431   0.13552   0.95267   0.00000  Uiso   1.00
C705   C     0.22401   0.10782   0.97514   0.00000  Uiso   1.00
C706   C     0.28109   0.17360   0.74123   0.00000  Uiso   1.00
C707   C     0.21859   0.11771   0.51681   0.00000  Uiso   1.00
C708   C     0.19872   0.15397   0.53593   0.00000  Uiso   1.00
C709   C     0.23327   0.09361   0.54006   0.00000  Uiso   1.00
C710   C     0.22402   0.10303   0.58172   0.00000  Uiso   1.00
C711   C     0.18451   0.15938   0.57812   0.00000  Uiso   1.00
C712   C     0.32707   0.17644   0.73777   0.00000  Uiso   1.00
C713   C     0.00710   0.15743   0.76222   0.00000  Uiso   1.00
C714   C     0.14066   0.24648   0.91346   0.00000  Uiso   1.00
C715   C     0.18016   0.32225   0.73810   0.00000  Uiso   1.00
C716   C     0.15078   0.01302   0.76312   0.00000  Uiso   1.00
C717   C     0.15593   0.05645   0.75898   0.00000  Uiso   1.00
C718   C     0.17672   0.27774   0.74137   0.00000  Uiso   1.00
C719   C     0.18810   0.14542   0.64385   0.00000  Uiso   1.00
C720   C     0.14662   0.18887   0.85623   0.00000  Uiso   1.00
C721   C     0.14673   0.20487   0.89758   0.00000  Uiso   1.00
C722   C     0.19877   0.13541   0.60054   0.00000  Uiso   1.00
C723   C     0.14913   0.26121   0.94992   0.00000  Uiso   1.00
C724   C     0.17067   0.29381   0.52354   0.00000  Uiso   1.00
C725   C     0.16021   0.17939   0.91919   0.00000  Uiso   1.00
C726   C     0.26128   0.06138   0.52199   0.00000  Uiso   1.00
C727   C     0.21742   0.00767   0.70590   0.00000  Uiso   1.00
C728   C     0.11208   0.33187   0.79615   0.00000  Uiso   1.00
C729   C     0.15022   0.18502   0.59912   0.00000  Uiso   1.00
C730   C     0.24088   0.07761   0.60563   0.00000  Uiso   1.00
C731   C     0.23576   0.06779   0.95466   0.00000  Uiso   1.00
C732   C     0.12664   0.27623   0.89205   0.00000  Uiso   1.00
C733   C     0.23499   0.13107   0.90797   0.00000  Uiso   1.00
C734   C     0.17372   0.19529   0.95323   0.00000  Uiso   1.00
C735   C     0.16574   0.23627   0.96995   0.00000  Uiso   1.00
C736   C     0.19284   0.17063   0.97226   0.00000  Uiso   1.00
C737   C     0.19160   0.18268   0.51245   0.00000  Uiso   1.00
C738   C     0.18700   0.22457   0.52721   0.00000  Uiso   1.00
C739   C     0.17485   0.25138   0.50624   0.00000  Uiso   1.00
H740   H     0.01681   0.19400   0.71523   0.00000  Uiso   1.00
H741   H     0.08958   0.30860   0.78383   0.00000  Uiso   1.00
H742   H     0.12284   0.31903   0.81859   0.00000  Uiso   1.00
H743   H     0.23190   0.08729   0.63799   0.00000  Uiso   1.00
H744   H     0.22790   0.04450   0.60139   0.00000  Uiso   1.00
H745   H     0.27679   0.08037   0.59530   0.00000  Uiso   1.00
H746   H     0.09434   0.26437   0.88776   0.00000  Uiso   1.00
H747   H     0.12398   0.30741   0.90901   0.00000  Uiso   1.00
H748   H     0.15078   0.28028   0.86291   0.00000  Uiso   1.00
H749   H     0.21656   0.10569   0.89327   0.00000  Uiso   1.00
H750   H     0.23808   0.16036   0.89459   0.00000  Uiso   1.00
H751   H     0.31804   0.13965   0.78492   0.00000  Uiso   1.00
H752   H     0.26874   0.12350   0.90137   0.00000  Uiso   1.00
H753   H     0.14359   0.29276   0.96217   0.00000  Uiso   1.00
H754   H     0.16068   0.14685   0.90862   0.00000  Uiso   1.00
H755   H     0.19454   0.23728   0.55467   0.00000  Uiso   1.00
H756   H     0.23869   0.31777   0.68769   0.00000  Uiso   1.00
H757   H     0.20455   0.02162   0.68548   0.00000  Uiso   1.00
H758   H     0.23782   0.03205   0.71958   0.00000  Uiso   1.00
H759   H     0.09341   0.02468   0.81198   0.00000  Uiso   1.00
N760   N     0.16730   0.32774   0.53741   0.00000  Uiso   1.00
N761   N     0.28375   0.03569   0.50804   0.00000  Uiso   1.00
N762   N     0.12287   0.20527   0.61595   0.00000  Uiso   1.00
N763   N     0.24482   0.03593   0.93796   0.00000  Uiso   1.00
O764   O     0.16667   0.16667   0.75000   0.00000  Uiso   1.00
O765   O     0.15693   0.12393   0.66625   0.00000  Uiso   1.00
O766   O     0.12687   0.20646   0.83749   0.00000  Uiso   1.00
O767   O     0.21088   0.17493   0.65877   0.00000  Uiso   1.00
O768   O     0.17198   0.16135   0.83749   0.00000  Uiso   1.00
O769   O     0.17849   0.08101   0.77820   0.00000  Uiso   1.00
O770   O     0.14581   0.26136   0.76767   0.00000  Uiso   1.00
O771   O     0.07452   0.13251   0.73607   0.00000  Uiso   1.00
O772   O     0.26785   0.19179   0.71805   0.00000  Uiso   1.00
O773   O     0.06990   0.18960   0.77820   0.00000  Uiso   1.00
O774   O     0.25440   0.15277   0.76767   0.00000  Uiso   1.00
O775   O     0.13800   0.06903   0.73607   0.00000  Uiso   1.00
O776   O     0.20437   0.25527   0.71805   0.00000  Uiso   1.00
Zn777  Zn    0.19244   0.14090   0.78277   0.00000  Uiso   1.00
Zn778  Zn    0.13459   0.12378   0.72257   0.00000  Uiso   1.00
Zn779  Zn    0.21166   0.19664   0.71188   0.00000  Uiso   1.00
Zn780  Zn    0.12798   0.20535   0.78277   0.00000  Uiso   1.00
C781   C     0.38583   0.15987   0.75880   0.00000  Uiso   1.00
C782   C     0.54764   0.13552   0.95267   0.00000  Uiso   1.00
C783   C     0.55735   0.10782   0.97514   0.00000  Uiso   1.00
C784   C     0.61443   0.17360   0.74123   0.00000  Uiso   1.00
C785   C     0.55193   0.11771   0.51681   0.00000  Uiso   1.00
C786   C     0.53205   0.15397   0.53593   0.00000  Uiso   1.00
C787   C     0.56660   0.09361   0.54006   0.00000  Uiso   1.00
C788   C     0.55736   0.10303   0.58172   0.00000  Uiso   1.00
C789   C     0.51784   0.15938   0.57812   0.00000  Uiso   1.00
C790   C     0.66040   0.17644   0.73777   0.00000  Uiso   1.00
C791   C     0.34043   0.15743   0.76222   0.00000  Uiso   1.00
C792   C     0.47399   0.24648   0.91346   0.00000  Uiso   1.00
C793   C     0.51349   0.32225   0.73810   0.00000  Uiso   1.00
C794   C     0.48411   0.01302   0.76312   0.00000  Uiso   1.00
C795   C     0.48927   0.05645   0.75898   0.00000  Uiso   1.00
C796   C     0.51005   0.27774   0.74137   0.00000  Uiso   1.00
C797   C     0.52143   0.14542   0.64385   0.00000  Uiso   1.00
C798   C     0.47995   0.18887   0.85623   0.00000  Uiso   1.00
C799   C     0.48007   0.20487   0.89758   0.00000  Uiso   1.00
C800   C     0.53211   0.13541   0.60054   0.00000  Uiso   1.00
C801   C     0.48247   0.26121   0.94992   0.00000  Uiso   1.00
C802   C     0.50400   0.29381   0.52354   0.00000  Uiso   1.00
C803   C     0.49355   0.17939   0.91919   0.00000  Uiso   1.00
C804   C     0.59462   0.06138   0.52199   0.00000  Uiso   1.00
C805   C     0.55075   0.00767   0.70590   0.00000  Uiso   1.00
C806   C     0.44541   0.33187   0.79615   0.00000  Uiso   1.00
C807   C     0.48355   0.18502   0.59912   0.00000  Uiso   1.00
C808   C     0.57422   0.07761   0.60563   0.00000  Uiso   1.00
C809   C     0.56910   0.06779   0.95466   0.00000  Uiso   1.00
C810   C     0.45998   0.27623   0.89205   0.00000  Uiso   1.00
C811   C     0.56832   0.13107   0.90797   0.00000  Uiso   1.00
C812   C     0.50706   0.19529   0.95323   0.00000  Uiso   1.00
C813   C     0.49907   0.23627   0.96995   0.00000  Uiso   1.00
C814   C     0.52617   0.17063   0.97226   0.00000  Uiso   1.00
C815   C     0.52494   0.18268   0.51245   0.00000  Uiso   1.00
C816   C     0.52034   0.22457   0.52721   0.00000  Uiso   1.00
C817   C     0.50819   0.25138   0.50624   0.00000  Uiso   1.00
H818   H     0.35014   0.19400   0.71523   0.00000  Uiso   1.00
H819   H     0.42291   0.30860   0.78383   0.00000  Uiso   1.00
H820   H     0.45617   0.31903   0.81859   0.00000  Uiso   1.00
H821   H     0.56523   0.08729   0.63799   0.00000  Uiso   1.00
H822   H     0.56123   0.04450   0.60139   0.00000  Uiso   1.00
H823   H     0.61012   0.08037   0.59530   0.00000  Uiso   1.00
H824   H     0.42767   0.26437   0.88776   0.00000  Uiso   1.00
H825   H     0.45731   0.30741   0.90901   0.00000  Uiso   1.00
H826   H     0.48411   0.28028   0.86291   0.00000  Uiso   1.00
H827   H     0.54989   0.10569   0.89327   0.00000  Uiso   1.00
H828   H     0.57141   0.16036   0.89459   0.00000  Uiso   1.00
H829   H     0.65138   0.13965   0.78492   0.00000  Uiso   1.00
H830   H     0.60207   0.12350   0.90137   0.00000  Uiso   1.00
H831   H     0.47692   0.29276   0.96217   0.00000  Uiso   1.00
H832   H     0.49401   0.14685   0.90862   0.00000  Uiso   1.00
H833   H     0.52787   0.23728   0.55467   0.00000  Uiso   1.00
H834   H     0.57202   0.31777   0.68769   0.00000  Uiso   1.00
H835   H     0.53789   0.02162   0.68548   0.00000  Uiso   1.00
H836   H     0.57115   0.03205   0.71958   0.00000  Uiso   1.00
H837   H     0.42674   0.02468   0.81198   0.00000  Uiso   1.00
N838   N     0.50064   0.32774   0.53741   0.00000  Uiso   1.00
N839   N     0.61708   0.03569   0.50804   0.00000  Uiso   1.00
N840   N     0.45620   0.20527   0.61595   0.00000  Uiso   1.00
N841   N     0.57816   0.03593   0.93796   0.00000  Uiso   1.00
O842   O     0.50000   0.16667   0.75000   0.00000  Uiso   1.00
O843   O     0.49027   0.12393   0.66625   0.00000  Uiso   1.00
O844   O     0.46020   0.20646   0.83749   0.00000  Uiso   1.00
O845   O     0.54421   0.17493   0.65877   0.00000  Uiso   1.00
O846   O     0.50532   0.16135   0.83749   0.00000  Uiso   1.00
O847   O     0.51182   0.08101   0.77820   0.00000  Uiso   1.00
O848   O     0.47914   0.26136   0.76767   0.00000  Uiso   1.00
O849   O     0.40785   0.13251   0.73607   0.00000  Uiso   1.00
O850   O     0.60119   0.19179   0.71805   0.00000  Uiso   1.00
O851   O     0.40323   0.18960   0.77820   0.00000  Uiso   1.00
O852   O     0.58773   0.15277   0.76767   0.00000  Uiso   1.00
O853   O     0.47133   0.06903   0.73607   0.00000  Uiso   1.00
O854   O     0.53771   0.25527   0.71805   0.00000  Uiso   1.00
Zn855  Zn    0.52577   0.14090   0.78277   0.00000  Uiso   1.00
Zn856  Zn    0.46792   0.12378   0.72257   0.00000  Uiso   1.00
Zn857  Zn    0.54500   0.19664   0.71188   0.00000  Uiso   1.00
Zn858  Zn    0.46131   0.20535   0.78277   0.00000  Uiso   1.00
C859   C     0.71916   0.15987   0.75880   0.00000  Uiso   1.00
C860   C     0.88098   0.13552   0.95267   0.00000  Uiso   1.00
C861   C     0.89068   0.10782   0.97514   0.00000  Uiso   1.00
C862   C     0.94776   0.17360   0.74123   0.00000  Uiso   1.00
C863   C     0.88526   0.11771   0.51681   0.00000  Uiso   1.00
C864   C     0.86539   0.15397   0.53593   0.00000  Uiso   1.00
C865   C     0.89994   0.09361   0.54006   0.00000  Uiso   1.00
C866   C     0.89069   0.10303   0.58172   0.00000  Uiso   1.00
C867   C     0.85117   0.15938   0.57812   0.00000  Uiso   1.00
C868   C     0.99374   0.17644   0.73777   0.00000  Uiso   1.00
C869   C     0.67377   0.15743   0.76222   0.00000  Uiso   1.00
C870   C     0.80733   0.24648   0.91346   0.00000  Uiso   1.00
C871   C     0.84683   0.32225   0.73810   0.00000  Uiso   1.00
C872   C     0.81744   0.01302   0.76312   0.00000  Uiso   1.00
C873   C     0.82260   0.05645   0.75898   0.00000  Uiso   1.00
C874   C     0.84339   0.27774   0.74137   0.00000  Uiso   1.00
C875   C     0.85476   0.14542   0.64385   0.00000  Uiso   1.00
C876   C     0.81328   0.18887   0.85623   0.00000  Uiso   1.00
C877   C     0.81340   0.20487   0.89758   0.00000  Uiso   1.00
C878   C     0.86544   0.13541   0.60054   0.00000  Uiso   1.00
C879   C     0.81580   0.26121   0.94992   0.00000  Uiso   1.00
C880   C     0.83733   0.29381   0.52354   0.00000  Uiso   1.00
C881   C     0.82688   0.17939   0.91919   0.00000  Uiso   1.00
C882   C     0.92795   0.06138   0.52199   0.00000  Uiso   1.00
C883   C     0.88409   0.00767   0.70590   0.00000  Uiso   1.00
C884   C     0.77874   0.33187   0.79615   0.00000  Uiso   1.00
C885   C     0.81689   0.18502   0.59912   0.00000  Uiso   1.00
C886   C     0.90755   0.07761   0.60563   0.00000  Uiso   1.00
C887   C     0.90243   0.06779   0.95466   0.00000  Uiso   1.00
C888   C     0.79331   0.27623   0.89205   0.00000  Uiso   1.00
C889   C     0.90166   0.13107   0.90797   0.00000  Uiso   1.00
C890   C     0.84039   0.19529   0.95323   0.00000  Uiso   1.00
C891   C     0.83241   0.23627   0.96995   0.00000  Uiso   1.00
C892   C     0.85950   0.17063   0.97226   0.00000  Uiso   1.00
C893   C     0.85827   0.18268   0.51245   0.00000  Uiso   1.00
C894   C     0.85367   0.22457   0.52721   0.00000  Uiso   1.00
C895   C     0.84152   0.25138   0.50624   0.00000  Uiso   1.00
H896   H     0.68348   0.19400   0.71523   0.00000  Uiso   1.00
H897   H     0.75624   0.30860   0.78383   0.00000  Uiso   1.00
H898   H     0.78950   0.31903   0.81859   0.00000  Uiso   1.00
H899   H     0.89857   0.08729   0.63799   0.00000  Uiso   1.00
H900   H     0.89457   0.04450   0.60139   0.00000  Uiso   1.00
H901   H     0.94345   0.08037   0.59530   0.00000  Uiso   1.00
H902   H     0.76101   0.26437   0.88776   0.00000  Uiso   1.00
H903   H     0.79065   0.30741   0.90901   0.00000  Uiso   1.00
H904   H     0.81745   0.28028   0.86291   0.00000  Uiso   1.00
H905   H     0.88323   0.10569   0.89327   0.00000  Uiso   1.00
H906   H     0.90475   0.16036   0.89459   0.00000  Uiso   1.00
H907   H     0.98471   0.13965   0.78492   0.00000  Uiso   1.00
H908   H     0.93541   0.12350   0.90137   0.00000  Uiso   1.00
H909   H     0.81026   0.29276   0.96217   0.00000  Uiso   1.00
H910   H     0.82734   0.14685   0.90862   0.00000  Uiso   1.00
H911   H     0.86120   0.23728   0.55467   0.00000  Uiso   1.00
H912   H     0.90536   0.31777   0.68769   0.00000  Uiso   1.00
H913   H     0.87122   0.02162   0.68548   0.00000  Uiso   1.00
H914   H     0.90449   0.03205   0.71958   0.00000  Uiso   1.00
H915   H     0.76007   0.02468   0.81198   0.00000  Uiso   1.00
N916   N     0.83397   0.32774   0.53741   0.00000  Uiso   1.00
N917   N     0.95042   0.03569   0.50804   0.00000  Uiso   1.00
N918   N     0.78953   0.20527   0.61595   0.00000  Uiso   1.00
N919   N     0.91149   0.03593   0.93796   0.00000  Uiso   1.00
O920   O     0.83333   0.16667   0.75000   0.00000  Uiso   1.00
O921   O     0.82360   0.12393   0.66625   0.00000  Uiso   1.00
O922   O     0.79354   0.20646   0.83749   0.00000  Uiso   1.00
O923   O     0.87755   0.17493   0.65877   0.00000  Uiso   1.00
O924   O     0.83865   0.16135   0.83749   0.00000  Uiso   1.00
O925   O     0.84515   0.08101   0.77820   0.00000  Uiso   1.00
O926   O     0.81247   0.26136   0.76767   0.00000  Uiso   1.00
O927   O     0.74119   0.13251   0.73607   0.00000  Uiso   1.00
O928   O     0.93452   0.19179   0.71805   0.00000  Uiso   1.00
O929   O     0.73656   0.18960   0.77820   0.00000  Uiso   1.00
O930   O     0.92106   0.15277   0.76767   0.00000  Uiso   1.00
O931   O     0.80467   0.06903   0.73607   0.00000  Uiso   1.00
O932   O     0.87104   0.25527   0.71805   0.00000  Uiso   1.00
Zn933  Zn    0.85910   0.14090   0.78277   0.00000  Uiso   1.00
Zn934  Zn    0.80125   0.12378   0.72257   0.00000  Uiso   1.00
Zn935  Zn    0.87833   0.19664   0.71188   0.00000  Uiso   1.00
Zn936  Zn    0.79465   0.20535   0.78277   0.00000  Uiso   1.00
C937   C     0.05249   0.49321   0.75880   0.00000  Uiso   1.00
C938   C     0.21431   0.46886   0.95267   0.00000  Uiso   1.00
C939   C     0.22401   0.44115   0.97514   0.00000  Uiso   1.00
C940   C     0.28109   0.50694   0.74123   0.00000  Uiso   1.00
C941   C     0.21859   0.45104   0.51681   0.00000  Uiso   1.00
C942   C     0.19872   0.48730   0.53593   0.00000  Uiso   1.00
C943   C     0.23327   0.42694   0.54006   0.00000  Uiso   1.00
C944   C     0.22402   0.43636   0.58172   0.00000  Uiso   1.00
C945   C     0.18451   0.49271   0.57812   0.00000  Uiso   1.00
C946   C     0.32707   0.50977   0.73777   0.00000  Uiso   1.00
C947   C     0.00710   0.49076   0.76222   0.00000  Uiso   1.00
C948   C     0.14066   0.57981   0.91346   0.00000  Uiso   1.00
C949   C     0.18016   0.65559   0.73810   0.00000  Uiso   1.00
C950   C     0.15078   0.34635   0.76312   0.00000  Uiso   1.00
C951   C     0.15593   0.38978   0.75898   0.00000  Uiso   1.00
C952   C     0.17672   0.61107   0.74137   0.00000  Uiso   1.00
C953   C     0.18810   0.47876   0.64385   0.00000  Uiso   1.00
C954   C     0.14662   0.52220   0.85623   0.00000  Uiso   1.00
C955   C     0.14673   0.53820   0.89758   0.00000  Uiso   1.00
C956   C     0.19877   0.46874   0.60054   0.00000  Uiso   1.00
C957   C     0.14913   0.59454   0.94992   0.00000  Uiso   1.00
C958   C     0.17067   0.62715   0.52354   0.00000  Uiso   1.00
C959   C     0.16021   0.51272   0.91919   0.00000  Uiso   1.00
C960   C     0.26128   0.39471   0.52199   0.00000  Uiso   1.00
C961   C     0.21742   0.34100   0.70590   0.00000  Uiso   1.00
C962   C     0.11208   0.66521   0.79615   0.00000  Uiso   1.00
C963   C     0.15022   0.51835   0.59912   0.00000  Uiso   1.00
C964   C     0.24088   0.41095   0.60563   0.00000  Uiso   1.00
C965   C     0.23576   0.40112   0.95466   0.00000  Uiso   1.00
C966   C     0.12664   0.60956   0.89205   0.00000  Uiso   1.00
C967   C     0.23499   0.46440   0.90797   0.00000  Uiso   1.00
C968   C     0.17372   0.52862   0.95323   0.00000  Uiso   1.00
C969   C     0.16574   0.56960   0.96995   0.00000  Uiso   1.00
C970   C     0.19284   0.50396   0.97226   0.00000  Uiso   1.00
C971   C     0.19160   0.51602   0.51245   0.00000  Uiso   1.00
C972   C     0.18700   0.55790   0.52721   0.00000  Uiso   1.00
C973   C     0.17485   0.58471   0.50624   0.00000  Uiso   1.00
H974   H     0.01681   0.52733   0.71523   0.00000  Uiso   1.00
H975   H     0.08958   0.64193   0.78383   0.00000  Uiso   1.00
H976   H     0.12284   0.65236   0.81859   0.00000  Uiso   1.00
H977   H     0.23190   0.42062   0.63799   0.00000  Uiso   1.00
H978   H     0.22790   0.37783   0.60139   0.00000  Uiso   1.00
H979   H     0.27679   0.41371   0.59530   0.00000  Uiso   1.00
H980   H     0.09434   0.59770   0.88776   0.00000  Uiso   1.00
H981   H     0.12398   0.64075   0.90901   0.00000  Uiso   1.00
H982   H     0.15078   0.61361   0.86291   0.00000  Uiso   1.00
H983   H     0.21656   0.43903   0.89327   0.00000  Uiso   1.00
H984   H     0.23808   0.49369   0.89459   0.00000  Uiso   1.00
H985   H     0.31804   0.47299   0.78492   0.00000  Uiso   1.00
H986   H     0.26874   0.45684   0.90137   0.00000  Uiso   1.00
H987   H     0.14359   0.62610   0.96217   0.00000  Uiso   1.00
H988   H     0.16068   0.48018   0.90862   0.00000  Uiso   1.00
H989   H     0.19454   0.57061   0.55467   0.00000  Uiso   1.00
H990   H     0.23869   0.65111   0.68769   0.00000  Uiso   1.00
H991   H     0.20455   0.35495   0.68548   0.00000  Uiso   1.00
H992   H     0.23782   0.36539   0.71958   0.00000  Uiso   1.00
H993   H     0.09341   0.35802   0.81198   0.00000  Uiso   1.00
N994   N     0.16730   0.66108   0.53741   0.00000  Uiso   1.00
N995   N     0.28375   0.36902   0.50804   0.00000  Uiso   1.00
N996   N     0.12287   0.53860   0.61595   0.00000  Uiso   1.00
N997   N     0.24482   0.36927   0.93796   0.00000  Uiso   1.00
O998   O     0.16667   0.50000   0.75000   0.00000  Uiso   1.00
O999   O     0.15693   0.45726   0.66625   0.00000  Uiso   1.00
O1000  O     0.12687   0.53979   0.83749   0.00000  Uiso   1.00
O1001  O     0.21088   0.50826   0.65877   0.00000  Uiso   1.00
O1002  O     0.17198   0.49468   0.83749   0.00000  Uiso   1.00
O1003  O     0.17849   0.41434   0.77820   0.00000  Uiso   1.00
O1004  O     0.14581   0.59469   0.76767   0.00000  Uiso   1.00
O1005  O     0.07452   0.46584   0.73607   0.00000  Uiso   1.00
O1006  O     0.26785   0.52512   0.71805   0.00000  Uiso   1.00
O1007  O     0.06990   0.52293   0.77820   0.00000  Uiso   1.00
O1008  O     0.25440   0.48610   0.76767   0.00000  Uiso   1.00
O1009  O     0.13800   0.40236   0.73607   0.00000  Uiso   1.00
O1010  O     0.20437   0.58860   0.71805   0.00000  Uiso   1.00
Zn1011 Zn    0.19244   0.47423   0.78277   0.00000  Uiso   1.00
Zn1012 Zn    0.13459   0.45711   0.72257   0.00000  Uiso   1.00
Zn1013 Zn    0.21166   0.52997   0.71188   0.00000  Uiso   1.00
Zn1014 Zn    0.12798   0.53868   0.78277   0.00000  Uiso   1.00
C1015  C     0.38583   0.49321   0.75880   0.00000  Uiso   1.00
C1016  C     0.54764   0.46886   0.95267   0.00000  Uiso   1.00
C1017  C     0.55735   0.44115   0.97514   0.00000  Uiso   1.00
C1018  C     0.61443   0.50694   0.74123   0.00000  Uiso   1.00
C1019  C     0.55193   0.45104   0.51681   0.00000  Uiso   1.00
C1020  C     0.53205   0.48730   0.53593   0.00000  Uiso   1.00
C1021  C     0.56660   0.42694   0.54006   0.00000  Uiso   1.00
C1022  C     0.55736   0.43636   0.58172   0.00000  Uiso   1.00
C1023  C     0.51784   0.49271   0.57812   0.00000  Uiso   1.00
C1024  C     0.66040   0.50977   0.73777   0.00000  Uiso   1.00
C1025  C     0.34043   0.49076   0.76222   0.00000  Uiso   1.00
C1026  C     0.47399   0.57981   0.91346   0.00000  Uiso   1.00
C1027  C     0.51349   0.65559   0.73810   0.00000  Uiso   1.00
C1028  C     0.48411   0.34635   0.76312   0.00000  Uiso   1.00
C1029  C     0.48927   0.38978   0.75898   0.00000  Uiso   1.00
C1030  C     0.51005   0.61107   0.74137   0.00000  Uiso   1.00
C1031  C     0.52143   0.47876   0.64385   0.00000  Uiso   1.00
C1032  C     0.47995   0.52220   0.85623   0.00000  Uiso   1.00
C1033  C     0.48007   0.53820   0.89758   0.00000  Uiso   1.00
C1034  C     0.53211   0.46874   0.60054   0.00000  Uiso   1.00
C1035  C     0.48247   0.59454   0.94992   0.00000  Uiso   1.00
C1036  C     0.50400   0.62715   0.52354   0.00000  Uiso   1.00
C1037  C     0.49355   0.51272   0.91919   0.00000  Uiso   1.00
C1038  C     0.59462   0.39471   0.52199   0.00000  Uiso   1.00
C1039  C     0.55075   0.34100   0.70590   0.00000  Uiso   1.00
C1040  C     0.44541   0.66521   0.79615   0.00000  Uiso   1.00
C1041  C     0.48355   0.51835   0.59912   0.00000  Uiso   1.00
C1042  C     0.57422   0.41095   0.60563   0.00000  Uiso   1.00
C1043  C     0.56910   0.40112   0.95466   0.00000  Uiso   1.00
C1044  C     0.45998   0.60956   0.89205   0.00000  Uiso   1.00
C1045  C     0.56832   0.46440   0.90797   0.00000  Uiso   1.00
C1046  C     0.50706   0.52862   0.95323   0.00000  Uiso   1.00
C1047  C     0.49907   0.56960   0.96995   0.00000  Uiso   1.00
C1048  C     0.52617   0.50396   0.97226   0.00000  Uiso   1.00
C1049  C     0.52494   0.51602   0.51245   0.00000  Uiso   1.00
C1050  C     0.52034   0.55790   0.52721   0.00000  Uiso   1.00
C1051  C     0.50819   0.58471   0.50624   0.00000  Uiso   1.00
H1052  H     0.35014   0.52733   0.71523   0.00000  Uiso   1.00
H1053  H     0.42291   0.64193   0.78383   0.00000  Uiso   1.00
H1054  H     0.45617   0.65236   0.81859   0.00000  Uiso   1.00
H1055  H     0.56523   0.42062   0.63799   0.00000  Uiso   1.00
H1056  H     0.56123   0.37783   0.60139   0.00000  Uiso   1.00
H1057  H     0.61012   0.41371   0.59530   0.00000  Uiso   1.00
H1058  H     0.42767   0.59770   0.88776   0.00000  Uiso   1.00
H1059  H     0.45731   0.64075   0.90901   0.00000  Uiso   1.00
H1060  H     0.48411   0.61361   0.86291   0.00000  Uiso   1.00
H1061  H     0.54989   0.43903   0.89327   0.00000  Uiso   1.00
H1062  H     0.57141   0.49369   0.89459   0.00000  Uiso   1.00
H1063  H     0.65138   0.47299   0.78492   0.00000  Uiso   1.00
H1064  H     0.60207   0.45684   0.90137   0.00000  Uiso   1.00
H1065  H     0.47692   0.62610   0.96217   0.00000  Uiso   1.00
H1066  H     0.49401   0.48018   0.90862   0.00000  Uiso   1.00
H1067  H     0.52787   0.57061   0.55467   0.00000  Uiso   1.00
H1068  H     0.57202   0.65111   0.68769   0.00000  Uiso   1.00
H1069  H     0.53789   0.35495   0.68548   0.00000  Uiso   1.00
H1070  H     0.57115   0.36539   0.71958   0.00000  Uiso   1.00
H1071  H     0.42674   0.35802   0.81198   0.00000  Uiso   1.00
N1072  N     0.50064   0.66108   0.53741   0.00000  Uiso   1.00
N1073  N     0.61708   0.36902   0.50804   0.00000  Uiso   1.00
N1074  N     0.45620   0.53860   0.61595   0.00000  Uiso   1.00
N1075  N     0.57816   0.36927   0.93796   0.00000  Uiso   1.00
O1076  O     0.50000   0.50000   0.75000   0.00000  Uiso   1.00
O1077  O     0.49027   0.45726   0.66625   0.00000  Uiso   1.00
O1078  O     0.46020   0.53979   0.83749   0.00000  Uiso   1.00
O1079  O     0.54421   0.50826   0.65877   0.00000  Uiso   1.00
O1080  O     0.50532   0.49468   0.83749   0.00000  Uiso   1.00
O1081  O     0.51182   0.41434   0.77820   0.00000  Uiso   1.00
O1082  O     0.47914   0.59469   0.76767   0.00000  Uiso   1.00
O1083  O     0.40785   0.46584   0.73607   0.00000  Uiso   1.00
O1084  O     0.60119   0.52512   0.71805   0.00000  Uiso   1.00
O1085  O     0.40323   0.52293   0.77820   0.00000  Uiso   1.00
O1086  O     0.58773   0.48610   0.76767   0.00000  Uiso   1.00
O1087  O     0.47133   0.40236   0.73607   0.00000  Uiso   1.00
O1088  O     0.53771   0.58860   0.71805   0.00000  Uiso   1.00
Zn1089 Zn    0.52577   0.47423   0.78277   0.00000  Uiso   1.00
Zn1090 Zn    0.46792   0.45711   0.72257   0.00000  Uiso   1.00
Zn1091 Zn    0.54500   0.52997   0.71188   0.00000  Uiso   1.00
Zn1092 Zn    0.46131   0.53868   0.78277   0.00000  Uiso   1.00
C1093  C     0.71916   0.49321   0.75880   0.00000  Uiso   1.00
C1094  C     0.88098   0.46886   0.95267   0.00000  Uiso   1.00
C1095  C     0.89068   0.44115   0.97514   0.00000  Uiso   1.00
C1096  C     0.94776   0.50694   0.74123   0.00000  Uiso   1.00
C1097  C     0.88526   0.45104   0.51681   0.00000  Uiso   1.00
C1098  C     0.86539   0.48730   0.53593   0.00000  Uiso   1.00
C1099  C     0.89994   0.42694   0.54006   0.00000  Uiso   1.00
C1100  C     0.89069   0.43636   0.58172   0.00000  Uiso   1.00
C1101  C     0.85117   0.49271   0.57812   0.00000  Uiso   1.00
C1102  C     0.99374   0.50977   0.73777   0.00000  Uiso   1.00
C1103  C     0.67377   0.49076   0.76222   0.00000  Uiso   1.00
C1104  C     0.80733   0.57981   0.91346   0.00000  Uiso   1.00
C1105  C     0.84683   0.65559   0.73810   0.00000  Uiso   1.00
C1106  C     0.81744   0.34635   0.76312   0.00000  Uiso   1.00
C1107  C     0.82260   0.38978   0.75898   0.00000  Uiso   1.00
C1108  C     0.84339   0.61107   0.74137   0.00000  Uiso   1.00
C1109  C     0.85476   0.47876   0.64385   0.00000  Uiso   1.00
C1110  C     0.81328   0.52220   0.85623   0.00000  Uiso   1.00
C1111  C     0.81340   0.53820   0.89758   0.00000  Uiso   1.00
C1112  C     0.86544   0.46874   0.60054   0.00000  Uiso   1.00
C1113  C     0.81580   0.59454   0.94992   0.00000  Uiso   1.00
C1114  C     0.83733   0.62715   0.52354   0.00000  Uiso   1.00
C1115  C     0.82688   0.51272   0.91919   0.00000  Uiso   1.00
C1116  C     0.92795   0.39471   0.52199   0.00000  Uiso   1.00
C1117  C     0.88409   0.34100   0.70590   0.00000  Uiso   1.00
C1118  C     0.77874   0.66521   0.79615   0.00000  Uiso   1.00
C1119  C     0.81689   0.51835   0.59912   0.00000  Uiso   1.00
C1120  C     0.90755   0.41095   0.60563   0.00000  Uiso   1.00
C1121  C     0.90243   0.40112   0.95466   0.00000  Uiso   1.00
C1122  C     0.79331   0.60956   0.89205   0.00000  Uiso   1.00
C1123  C     0.90166   0.46440   0.90797   0.00000  Uiso   1.00
C1124  C     0.84039   0.52862   0.95323   0.00000  Uiso   1.00
C1125  C     0.83241   0.56960   0.96995   0.00000  Uiso   1.00
C1126  C     0.85950   0.50396   0.97226   0.00000  Uiso   1.00
C1127  C     0.85827   0.51602   0.51245   0.00000  Uiso   1.00
C1128  C     0.85367   0.55790   0.52721   0.00000  Uiso   1.00
C1129  C     0.84152   0.58471   0.50624   0.00000  Uiso   1.00
H1130  H     0.68348   0.52733   0.71523   0.00000  Uiso   1.00
H1131  H     0.75624   0.64193   0.78383   0.00000  Uiso   1.00
H1132  H     0.78950   0.65236   0.81859   0.00000  Uiso   1.00
H1133  H     0.89857   0.42062   0.63799   0.00000  Uiso   1.00
H1134  H     0.89457   0.37783   0.60139   0.00000  Uiso   1.00
H1135  H     0.94345   0.41371   0.59530   0.00000  Uiso   1.00
H1136  H     0.76101   0.59770   0.88776   0.00000  Uiso   1.00
H1137  H     0.79065   0.64075   0.90901   0.00000  Uiso   1.00
H1138  H     0.81745   0.61361   0.86291   0.00000  Uiso   1.00
H1139  H     0.88323   0.43903   0.89327   0.00000  Uiso   1.00
H1140  H     0.90475   0.49369   0.89459   0.00000  Uiso   1.00
H1141  H     0.98471   0.47299   0.78492   0.00000  Uiso   1.00
H1142  H     0.93541   0.45684   0.90137   0.00000  Uiso   1.00
H1143  H     0.81026   0.62610   0.96217   0.00000  Uiso   1.00
H1144  H     0.82734   0.48018   0.90862   0.00000  Uiso   1.00
H1145  H     0.86120   0.57061   0.55467   0.00000  Uiso   1.00
H1146  H     0.90536   0.65111   0.68769   0.00000  Uiso   1.00
H1147  H     0.87122   0.35495   0.68548   0.00000  Uiso   1.00
H1148  H     0.90449   0.36539   0.71958   0.00000  Uiso   1.00
H1149  H     0.76007   0.35802   0.81198   0.00000  Uiso   1.00
N1150  N     0.83397   0.66108   0.53741   0.00000  Uiso   1.00
N1151  N     0.95042   0.36902   0.50804   0.00000  Uiso   1.00
N1152  N     0.78953   0.53860   0.61595   0.00000  Uiso   1.00
N1153  N     0.91149   0.36927   0.93796   0.00000  Uiso   1.00
O1154  O     0.83333   0.50000   0.75000   0.00000  Uiso   1.00
O1155  O     0.82360   0.45726   0.66625   0.00000  Uiso   1.00
O1156  O     0.79354   0.53979   0.83749   0.00000  Uiso   1.00
O1157  O     0.87755   0.50826   0.65877   0.00000  Uiso   1.00
O1158  O     0.83865   0.49468   0.83749   0.00000  Uiso   1.00
O1159  O     0.84515   0.41434   0.77820   0.00000  Uiso   1.00
O1160  O     0.81247   0.59469   0.76767   0.00000  Uiso   1.00
O1161  O     0.74119   0.46584   0.73607   0.00000  Uiso   1.00
O1162  O     0.93452   0.52512   0.71805   0.00000  Uiso   1.00
O1163  O     0.73656   0.52293   0.77820   0.00000  Uiso   1.00
O1164  O     0.92106   0.48610   0.76767   0.00000  Uiso   1.00
O1165  O     0.80467   0.40236   0.73607   0.00000  Uiso   1.00
O1166  O     0.87104   0.58860   0.71805   0.00000  Uiso   1.00
Zn1167 Zn    0.85910   0.47423   0.78277   0.00000  Uiso   1.00
Zn1168 Zn    0.80125   0.45711   0.72257   0.00000  Uiso   1.00
Zn1169 Zn    0.87833   0.52997   0.71188   0.00000  Uiso   1.00
Zn1170 Zn    0.79465   0.53868   0.78277   0.00000  Uiso   1.00
C1171  C     0.05249   0.82654   0.75880   0.00000  Uiso   1.00
C1172  C     0.21431   0.80219   0.95267   0.00000  Uiso   1.00
C1173  C     0.22401   0.77449   0.97514   0.00000  Uiso   1.00
C1174  C     0.28109   0.84027   0.74123   0.00000  Uiso   1.00
C1175  C     0.21859   0.78437   0.51681   0.00000  Uiso   1.00
C1176  C     0.19872   0.82063   0.53593   0.00000  Uiso   1.00
C1177  C     0.23327   0.76028   0.54006   0.00000  Uiso   1.00
C1178  C     0.22402   0.76969   0.58172   0.00000  Uiso   1.00
C1179  C     0.18451   0.82605   0.57812   0.00000  Uiso   1.00
C1180  C     0.32707   0.84311   0.73777   0.00000  Uiso   1.00
C1181  C     0.00710   0.82410   0.76222   0.00000  Uiso   1.00
C1182  C     0.14066   0.91314   0.91346   0.00000  Uiso   1.00
C1183  C     0.18016   0.98892   0.73810   0.00000  Uiso   1.00
C1184  C     0.15078   0.67968   0.76312   0.00000  Uiso   1.00
C1185  C     0.15593   0.72311   0.75898   0.00000  Uiso   1.00
C1186  C     0.17672   0.94441   0.74137   0.00000  Uiso   1.00
C1187  C     0.18810   0.81209   0.64385   0.00000  Uiso   1.00
C1188  C     0.14662   0.85553   0.85623   0.00000  Uiso   1.00
C1189  C     0.14673   0.87153   0.89758   0.00000  Uiso   1.00
C1190  C     0.19877   0.80208   0.60054   0.00000  Uiso   1.00
C1191  C     0.14913   0.92787   0.94992   0.00000  Uiso   1.00
C1192  C     0.17067   0.96048   0.52354   0.00000  Uiso   1.00
C1193  C     0.16021   0.84606   0.91919   0.00000  Uiso   1.00
C1194  C     0.26128   0.72804   0.52199   0.00000  Uiso   1.00
C1195  C     0.21742   0.67433   0.70590   0.00000  Uiso   1.00
C1196  C     0.11208   0.99854   0.79615   0.00000  Uiso   1.00
C1197  C     0.15022   0.85168   0.59912   0.00000  Uiso   1.00
C1198  C     0.24088   0.74428   0.60563   0.00000  Uiso   1.00
C1199  C     0.23576   0.73446   0.95466   0.00000  Uiso   1.00
C1200  C     0.12664   0.94290   0.89205   0.00000  Uiso   1.00
C1201  C     0.23499   0.79773   0.90797   0.00000  Uiso   1.00
C1202  C     0.17372   0.86196   0.95323   0.00000  Uiso   1.00
C1203  C     0.16574   0.90294   0.96995   0.00000  Uiso   1.00
C1204  C     0.19284   0.83729   0.97226   0.00000  Uiso   1.00
C1205  C     0.19160   0.84935   0.51245   0.00000  Uiso   1.00
C1206  C     0.18700   0.89124   0.52721   0.00000  Uiso   1.00
C1207  C     0.17485   0.91804   0.50624   0.00000  Uiso   1.00
H1208  H     0.01681   0.86067   0.71523   0.00000  Uiso   1.00
H1209  H     0.08958   0.97527   0.78383   0.00000  Uiso   1.00
H1210  H     0.12284   0.98570   0.81859   0.00000  Uiso   1.00
H1211  H     0.23190   0.75396   0.63799   0.00000  Uiso   1.00
H1212  H     0.22790   0.71116   0.60139   0.00000  Uiso   1.00
H1213  H     0.27679   0.74704   0.59530   0.00000  Uiso   1.00
H1214  H     0.09434   0.93103   0.88776   0.00000  Uiso   1.00
H1215  H     0.12398   0.97408   0.90901   0.00000  Uiso   1.00
H1216  H     0.15078   0.94694   0.86291   0.00000  Uiso   1.00
H1217  H     0.21656   0.77236   0.89327   0.00000  Uiso   1.00
H1218  H     0.23808   0.82702   0.89459   0.00000  Uiso   1.00
H1219  H     0.31804   0.80632   0.78492   0.00000  Uiso   1.00
H1220  H     0.26874   0.79017   0.90137   0.00000  Uiso   1.00
H1221  H     0.14359   0.95943   0.96217   0.00000  Uiso   1.00
H1222  H     0.16068   0.81351   0.90862   0.00000  Uiso   1.00
H1223  H     0.19454   0.90395   0.55467   0.00000  Uiso   1.00
H1224  H     0.23869   0.98444   0.68769   0.00000  Uiso   1.00
H1225  H     0.20455   0.68828   0.68548   0.00000  Uiso   1.00
H1226  H     0.23782   0.69872   0.71958   0.00000  Uiso   1.00
H1227  H     0.09341   0.69135   0.81198   0.00000  Uiso   1.00
N1228  N     0.16730   0.99441   0.53741   0.00000  Uiso   1.00
N1229  N     0.28375   0.70235   0.50804   0.00000  Uiso   1.00
N1230  N     0.12287   0.87193   0.61595   0.00000  Uiso   1.00
N1231  N     0.24482   0.70260   0.93796   0.00000  Uiso   1.00
O1232  O     0.16667   0.83333   0.75000   0.00000  Uiso   1.00
O1233  O     0.15693   0.79060   0.66625   0.00000  Uiso   1.00
O1234  O     0.12687   0.87313   0.83749   0.00000  Uiso   1.00
O1235  O     0.21088   0.84159   0.65877   0.00000  Uiso   1.00
O1236  O     0.17198   0.82802   0.83749   0.00000  Uiso   1.00
O1237  O     0.17849   0.74768   0.77820   0.00000  Uiso   1.00
O1238  O     0.14581   0.92803   0.76767   0.00000  Uiso   1.00
O1239  O     0.07452   0.79917   0.73607   0.00000  Uiso   1.00
O1240  O     0.26785   0.85845   0.71805   0.00000  Uiso   1.00
O1241  O     0.06990   0.85627   0.77820   0.00000  Uiso   1.00
O1242  O     0.25440   0.81944   0.76767   0.00000  Uiso   1.00
O1243  O     0.13800   0.73570   0.73607   0.00000  Uiso   1.00
O1244  O     0.20437   0.92193   0.71805   0.00000  Uiso   1.00
Zn1245 Zn    0.19244   0.80756   0.78277   0.00000  Uiso   1.00
Zn1246 Zn    0.13459   0.79044   0.72257   0.00000  Uiso   1.00
Zn1247 Zn    0.21166   0.86331   0.71188   0.00000  Uiso   1.00
Zn1248 Zn    0.12798   0.87202   0.78277   0.00000  Uiso   1.00
C1249  C     0.38583   0.82654   0.75880   0.00000  Uiso   1.00
C1250  C     0.54764   0.80219   0.95267   0.00000  Uiso   1.00
C1251  C     0.55735   0.77449   0.97514   0.00000  Uiso   1.00
C1252  C     0.61443   0.84027   0.74123   0.00000  Uiso   1.00
C1253  C     0.55193   0.78437   0.51681   0.00000  Uiso   1.00
C1254  C     0.53205   0.82063   0.53593   0.00000  Uiso   1.00
C1255  C     0.56660   0.76028   0.54006   0.00000  Uiso   1.00
C1256  C     0.55736   0.76969   0.58172   0.00000  Uiso   1.00
C1257  C     0.51784   0.82605   0.57812   0.00000  Uiso   1.00
C1258  C     0.66040   0.84311   0.73777   0.00000  Uiso   1.00
C1259  C     0.34043   0.82410   0.76222   0.00000  Uiso   1.00
C1260  C     0.47399   0.91314   0.91346   0.00000  Uiso   1.00
C1261  C     0.51349   0.98892   0.73810   0.00000  Uiso   1.00
C1262  C     0.48411   0.67968   0.76312   0.00000  Uiso   1.00
C1263  C     0.48927   0.72311   0.75898   0.00000  Uiso   1.00
C1264  C     0.51005   0.94441   0.74137   0.00000  Uiso   1.00
C1265  C     0.52143   0.81209   0.64385   0.00000  Uiso   1.00
C1266  C     0.47995   0.85553   0.85623   0.00000  Uiso   1.00
C1267  C     0.48007   0.87153   0.89758   0.00000  Uiso   1.00
C1268  C     0.53211   0.80208   0.60054   0.00000  Uiso   1.00
C1269  C     0.48247   0.92787   0.94992   0.00000  Uiso   1.00
C1270  C     0.50400   0.96048   0.52354   0.00000  Uiso   1.00
C1271  C     0.49355   0.84606   0.91919   0.00000  Uiso   1.00
C1272  C     0.59462   0.72804   0.52199   0.00000  Uiso   1.00
C1273  C     0.55075   0.67433   0.70590   0.00000  Uiso   1.00
C1274  C     0.44541   0.99854   0.79615   0.00000  Uiso   1.00
C1275  C     0.48355   0.85168   0.59912   0.00000  Uiso   1.00
C1276  C     0.57422   0.74428   0.60563   0.00000  Uiso   1.00
C1277  C     0.56910   0.73446   0.95466   0.00000  Uiso   1.00
C1278  C     0.45998   0.94290   0.89205   0.00000  Uiso   1.00
C1279  C     0.56832   0.79773   0.90797   0.00000  Uiso   1.00
C1280  C     0.50706   0.86196   0.95323   0.00000  Uiso   1.00
C1281  C     0.49907   0.90294   0.96995   0.00000  Uiso   1.00
C1282  C     0.52617   0.83729   0.97226   0.00000  Uiso   1.00
C1283  C     0.52494   0.84935   0.51245   0.00000  Uiso   1.00
C1284  C     0.52034   0.89124   0.52721   0.00000  Uiso   1.00
C1285  C     0.50819   0.91804   0.50624   0.00000  Uiso   1.00
H1286  H     0.35014   0.86067   0.71523   0.00000  Uiso   1.00
H1287  H     0.42291   0.97527   0.78383   0.00000  Uiso   1.00
H1288  H     0.45617   0.98570   0.81859   0.00000  Uiso   1.00
H1289  H     0.56523   0.75396   0.63799   0.00000  Uiso   1.00
H1290  H     0.56123   0.71116   0.60139   0.00000  Uiso   1.00
H1291  H     0.61012   0.74704   0.59530   0.00000  Uiso   1.00
H1292  H     0.42767   0.93103   0.88776   0.00000  Uiso   1.00
H1293  H     0.45731   0.97408   0.90901   0.00000  Uiso   1.00
H1294  H     0.48411   0.94694   0.86291   0.00000  Uiso   1.00
H1295  H     0.54989   0.77236   0.89327   0.00000  Uiso   1.00
H1296  H     0.57141   0.82702   0.89459   0.00000  Uiso   1.00
H1297  H     0.65138   0.80632   0.78492   0.00000  Uiso   1.00
H1298  H     0.60207   0.79017   0.90137   0.00000  Uiso   1.00
H1299  H     0.47692   0.95943   0.96217   0.00000  Uiso   1.00
H1300  H     0.49401   0.81351   0.90862   0.00000  Uiso   1.00
H1301  H     0.52787   0.90395   0.55467   0.00000  Uiso   1.00
H1302  H     0.57202   0.98444   0.68769   0.00000  Uiso   1.00
H1303  H     0.53789   0.68828   0.68548   0.00000  Uiso   1.00
H1304  H     0.57115   0.69872   0.71958   0.00000  Uiso   1.00
H1305  H     0.42674   0.69135   0.81198   0.00000  Uiso   1.00
N1306  N     0.50064   0.99441   0.53741   0.00000  Uiso   1.00
N1307  N     0.61708   0.70235   0.50804   0.00000  Uiso   1.00
N1308  N     0.45620   0.87193   0.61595   0.00000  Uiso   1.00
N1309  N     0.57816   0.70260   0.93796   0.00000  Uiso   1.00
O1310  O     0.50000   0.83333   0.75000   0.00000  Uiso   1.00
O1311  O     0.49027   0.79060   0.66625   0.00000  Uiso   1.00
O1312  O     0.46020   0.87313   0.83749   0.00000  Uiso   1.00
O1313  O     0.54421   0.84159   0.65877   0.00000  Uiso   1.00
O1314  O     0.50532   0.82802   0.83749   0.00000  Uiso   1.00
O1315  O     0.51182   0.74768   0.77820   0.00000  Uiso   1.00
O1316  O     0.47914   0.92803   0.76767   0.00000  Uiso   1.00
O1317  O     0.40785   0.79917   0.73607   0.00000  Uiso   1.00
O1318  O     0.60119   0.85845   0.71805   0.00000  Uiso   1.00
O1319  O     0.40323   0.85627   0.77820   0.00000  Uiso   1.00
O1320  O     0.58773   0.81944   0.76767   0.00000  Uiso   1.00
O1321  O     0.47133   0.73570   0.73607   0.00000  Uiso   1.00
O1322  O     0.53771   0.92193   0.71805   0.00000  Uiso   1.00
Zn1323 Zn    0.52577   0.80756   0.78277   0.00000  Uiso   1.00
Zn1324 Zn    0.46792   0.79044   0.72257   0.00000  Uiso   1.00
Zn1325 Zn    0.54500   0.86331   0.71188   0.00000  Uiso   1.00
Zn1326 Zn    0.46131   0.87202   0.78277   0.00000  Uiso   1.00
C1327  C     0.71916   0.82654   0.75880   0.00000  Uiso   1.00
C1328  C     0.88098   0.80219   0.95267   0.00000  Uiso   1.00
C1329  C     0.89068   0.77449   0.97514   0.00000  Uiso   1.00
C1330  C     0.94776   0.84027   0.74123   0.00000  Uiso   1.00
C1331  C     0.88526   0.78437   0.51681   0.00000  Uiso   1.00
C1332  C     0.86539   0.82063   0.53593   0.00000  Uiso   1.00
C1333  C     0.89994   0.76028   0.54006   0.00000  Uiso   1.00
C1334  C     0.89069   0.76969   0.58172   0.00000  Uiso   1.00
C1335  C     0.85117   0.82605   0.57812   0.00000  Uiso   1.00
C1336  C     0.99374   0.84311   0.73777   0.00000  Uiso   1.00
C1337  C     0.67377   0.82410   0.76222   0.00000  Uiso   1.00
C1338  C     0.80733   0.91314   0.91346   0.00000  Uiso   1.00
C1339  C     0.84683   0.98892   0.73810   0.00000  Uiso   1.00
C1340  C     0.81744   0.67968   0.76312   0.00000  Uiso   1.00
C1341  C     0.82260   0.72311   0.75898   0.00000  Uiso   1.00
C1342  C     0.84339   0.94441   0.74137   0.00000  Uiso   1.00
C1343  C     0.85476   0.81209   0.64385   0.00000  Uiso   1.00
C1344  C     0.81328   0.85553   0.85623   0.00000  Uiso   1.00
C1345  C     0.81340   0.87153   0.89758   0.00000  Uiso   1.00
C1346  C     0.86544   0.80208   0.60054   0.00000  Uiso   1.00
C1347  C     0.81580   0.92787   0.94992   0.00000  Uiso   1.00
C1348  C     0.83733   0.96048   0.52354   0.00000  Uiso   1.00
C1349  C     0.82688   0.84606   0.91919   0.00000  Uiso   1.00
C1350  C     0.92795   0.72804   0.52199   0.00000  Uiso   1.00
C1351  C     0.88409   0.67433   0.70590   0.00000  Uiso   1.00
C1352  C     0.77874   0.99854   0.79615   0.00000  Uiso   1.00
C1353  C     0.81689   0.85168   0.59912   0.00000  Uiso   1.00
C1354  C     0.90755   0.74428   0.60563   0.00000  Uiso   1.00
C1355  C     0.90243   0.73446   0.95466   0.00000  Uiso   1.00
C1356  C     0.79331   0.94290   0.89205   0.00000  Uiso   1.00
C1357  C     0.90166   0.79773   0.90797   0.00000  Uiso   1.00
C1358  C     0.84039   0.86196   0.95323   0.00000  Uiso   1.00
C1359  C     0.83241   0.90294   0.96995   0.00000  Uiso   1.00
C1360  C     0.85950   0.83729   0.97226   0.00000  Uiso   1.00
C1361  C     0.85827   0.84935   0.51245   0.00000  Uiso   1.00
C1362  C     0.85367   0.89124   0.52721   0.00000  Uiso   1.00
C1363  C     0.84152   0.91804   0.50624   0.00000  Uiso   1.00
H1364  H     0.68348   0.86067   0.71523   0.00000  Uiso   1.00
H1365  H     0.75624   0.97527   0.78383   0.00000  Uiso   1.00
H1366  H     0.78950   0.98570   0.81859   0.00000  Uiso   1.00
H1367  H     0.89857   0.75396   0.63799   0.00000  Uiso   1.00
H1368  H     0.89457   0.71116   0.60139   0.00000  Uiso   1.00
H1369  H     0.94345   0.74704   0.59530   0.00000  Uiso   1.00
H1370  H     0.76101   0.93103   0.88776   0.00000  Uiso   1.00
H1371  H     0.79065   0.97408   0.90901   0.00000  Uiso   1.00
H1372  H     0.81745   0.94694   0.86291   0.00000  Uiso   1.00
H1373  H     0.88323   0.77236   0.89327   0.00000  Uiso   1.00
H1374  H     0.90475   0.82702   0.89459   0.00000  Uiso   1.00
H1375  H     0.98471   0.80632   0.78492   0.00000  Uiso   1.00
H1376  H     0.93541   0.79017   0.90137   0.00000  Uiso   1.00
H1377  H     0.81026   0.95943   0.96217   0.00000  Uiso   1.00
H1378  H     0.82734   0.81351   0.90862   0.00000  Uiso   1.00
H1379  H     0.86120   0.90395   0.55467   0.00000  Uiso   1.00
H1380  H     0.90536   0.98444   0.68769   0.00000  Uiso   1.00
H1381  H     0.87122   0.68828   0.68548   0.00000  Uiso   1.00
H1382  H     0.90449   0.69872   0.71958   0.00000  Uiso   1.00
H1383  H     0.76007   0.69135   0.81198   0.00000  Uiso   1.00
N1384  N     0.83397   0.99441   0.53741   0.00000  Uiso   1.00
N1385  N     0.95042   0.70235   0.50804   0.00000  Uiso   1.00
N1386  N     0.78953   0.87193   0.61595   0.00000  Uiso   1.00
N1387  N     0.91149   0.70260   0.93796   0.00000  Uiso   1.00
O1388  O     0.83333   0.83333   0.75000   0.00000  Uiso   1.00
O1389  O     0.82360   0.79060   0.66625   0.00000  Uiso   1.00
O1390  O     0.79354   0.87313   0.83749   0.00000  Uiso   1.00
O1391  O     0.87755   0.84159   0.65877   0.00000  Uiso   1.00
O1392  O     0.83865   0.82802   0.83749   0.00000  Uiso   1.00
O1393  O     0.84515   0.74768   0.77820   0.00000  Uiso   1.00
O1394  O     0.81247   0.92803   0.76767   0.00000  Uiso   1.00
O1395  O     0.74119   0.79917   0.73607   0.00000  Uiso   1.00
O1396  O     0.93452   0.85845   0.71805   0.00000  Uiso   1.00
O1397  O     0.73656   0.85627   0.77820   0.00000  Uiso   1.00
O1398  O     0.92106   0.81944   0.76767   0.00000  Uiso   1.00
O1399  O     0.80467   0.73570   0.73607   0.00000  Uiso   1.00
O1400  O     0.87104   0.92193   0.71805   0.00000  Uiso   1.00
Zn1401 Zn    0.85910   0.80756   0.78277   0.00000  Uiso   1.00
Zn1402 Zn    0.80125   0.79044   0.72257   0.00000  Uiso   1.00
Zn1403 Zn    0.87833   0.86331   0.71188   0.00000  Uiso   1.00
Zn1404 Zn    0.79465   0.87202   0.78277   0.00000  Uiso   1.00
loop_
_geom_bond_atom_site_label_1
_geom_bond_atom_site_label_2
_geom_bond_distance
_geom_bond_site_symmetry_2
_ccdc_geom_bond_type
C1     C11     1.436   .     S
C1     O69     1.270   .     A
C1     O71     1.271   .     A
C2     C34     1.422   .     A
C2     C31     1.522   .     S
C2     C3      1.412   .     A
C3     C29     1.453   .     S
C3     C707    1.428   .     S
C4     O70     1.279   .     A
C4     C10     1.454   .     S
C4     O72     1.275   .     A
C5     C6      1.426   .     A
C5     C7      1.434   .     A
C5     C705    1.428   1_554 S
C6     C9      1.422   .     A
C6     C35     1.425   .     A
C7     C8      1.414   .     A
C7     C24     1.452   .     S
C8     C20     1.408   .     A
C8     C28     1.522   .     S
C9     C20     1.401   .     A
C9     C27     1.455   .     S
C10    C89     1.334   .     S
C10    H116    1.088   .     S
C11    C166    1.334   1_455 S
C11    H205    1.086   1_455 S
C12    C21     1.402   .     A
C12    C30     1.509   .     S
C12    C19     1.419   .     A
C13    C16     1.465   .     S
C13    C248    1.361   .     S
C13    C259    1.522   .     S
C14    C15     1.432   .     S
C14    C481    1.361   1_545 S
C14    C494    1.515   1_545 S
C15    O67     1.269   .     A
C15    O73     1.269   .     A
C16    O74     1.274   .     A
C16    O68     1.265   .     A
C17    C20     1.469   .     S
C17    O65     1.278   .     A
C17    O63     1.276   .     A
C18    C19     1.484   .     S
C18    O64     1.285   .     A
C18    O66     1.290   .     A
C19    C23     1.400   .     A
C21    H51     1.083   .     S
C21    C33     1.408   .     A
C22    C37     1.447   .     S
C22    N58     1.157   .     T
C23    C32     1.407   .     A
C23    H52     1.080   .     S
C24    N59     1.158   .     T
C25    H56     1.111   .     S
C25    H55     1.111   .     S
C25    C481    1.522   1_545 S
C25    H522    1.109   1_545 S
C26    H39     1.110   .     S
C26    H40     1.110   .     S
C26    C248    1.515   .     S
C26    H291    1.112   .     S
C27    N60     1.158   .     T
C28    H41     1.107   .     S
C28    H43     1.110   .     S
C28    H42     1.111   .     S
C29    N61     1.158   .     T
C30    H45     1.111   .     S
C30    H44     1.110   .     S
C30    H46     1.110   .     S
C31    H47     1.110   .     S
C31    H48     1.109   .     S
C31    H50     1.111   .     S
C32    C33     1.418   .     A
C32    C34     1.429   .     A
C33    C739    1.408   .     S
C34    C737    1.412   .     S
C35    C36     1.411   .     A
C35    C736    1.412   1_554 S
C36    C37     1.392   .     A
C36    H53     1.083   .     S
C37    C735    1.408   1_554 S
H38    C166    1.088   1_455 S
H49    C89     1.086   .     S
H54    C259    1.109   .     S
H57    C494    1.112   1_545 S
O62    Zn77    1.929   .     S
O62    Zn76    1.943   .     S
O62    Zn75    1.954   .     S
O62    Zn78    1.934   .     S
O63    Zn76    1.913   .     S
O64    Zn78    1.922   .     S
O65    Zn77    1.919   .     S
O66    Zn75    1.911   .     S
O67    Zn75    1.943   .     S
O68    Zn78    1.943   .     S
O69    Zn76    1.925   .     S
O70    Zn77    1.934   .     S
O71    Zn78    1.930   .     S
O72    Zn75    1.921   .     S
O73    Zn76    1.948   .     S
O74    Zn77    1.945   .     S
C79    C89     1.436   .     S
C79    O147    1.270   .     A
C79    O149    1.271   .     A
C80    C112    1.422   .     A
C80    C109    1.522   .     S
C80    C81     1.412   .     A
C81    C107    1.453   .     S
C81    C785    1.428   .     S
C82    O148    1.279   .     A
C82    C88     1.454   .     S
C82    O150    1.275   .     A
C83    C84     1.426   .     A
C83    C85     1.434   .     A
C83    C783    1.428   1_554 S
C84    C87     1.422   .     A
C84    C113    1.425   .     A
C85    C86     1.414   .     A
C85    C102    1.452   .     S
C86    C98     1.408   .     A
C86    C106    1.522   .     S
C87    C98     1.401   .     A
C87    C105    1.455   .     S
C88    C167    1.334   .     S
C88    H194    1.088   .     S
C90    C99     1.402   .     A
C90    C108    1.509   .     S
C90    C97     1.419   .     A
C91    C94     1.465   .     S
C91    C326    1.361   .     S
C91    C337    1.522   .     S
C92    C93     1.432   .     S
C92    C559    1.361   1_545 S
C92    C572    1.515   1_545 S
C93    O145    1.269   .     A
C93    O151    1.269   .     A
C94    O152    1.274   .     A
C94    O146    1.265   .     A
C95    C98     1.469   .     S
C95    O143    1.278   .     A
C95    O141    1.276   .     A
C96    C97     1.484   .     S
C96    O142    1.285   .     A
C96    O144    1.290   .     A
C97    C101    1.400   .     A
C99    H129    1.083   .     S
C99    C111    1.408   .     A
C100   C115    1.447   .     S
C100   N136    1.157   .     T
C101   C110    1.407   .     A
C101   H130    1.080   .     S
C102   N137    1.158   .     T
C103   H134    1.111   .     S
C103   H133    1.111   .     S
C103   C559    1.522   1_545 S
C103   H600    1.109   1_545 S
C104   H117    1.110   .     S
C104   H118    1.110   .     S
C104   C326    1.515   .     S
C104   H369    1.112   .     S
C105   N138    1.158   .     T
C106   H119    1.107   .     S
C106   H121    1.110   .     S
C106   H120    1.111   .     S
C107   N139    1.158   .     T
C108   H123    1.111   .     S
C108   H122    1.110   .     S
C108   H124    1.110   .     S
C109   H125    1.110   .     S
C109   H126    1.109   .     S
C109   H128    1.111   .     S
C110   C111    1.418   .     A
C110   C112    1.429   .     A
C111   C817    1.408   .     S
C112   C815    1.412   .     S
C113   C114    1.411   .     A
C113   C814    1.412   1_554 S
C114   C115    1.392   .     A
C114   H131    1.083   .     S
C115   C813    1.408   1_554 S
H127   C167    1.086   .     S
H132   C337    1.109   .     S
H135   C572    1.112   1_545 S
O140   Zn155   1.929   .     S
O140   Zn154   1.943   .     S
O140   Zn153   1.954   .     S
O140   Zn156   1.934   .     S
O141   Zn154   1.913   .     S
O142   Zn156   1.922   .     S
O143   Zn155   1.919   .     S
O144   Zn153   1.911   .     S
O145   Zn153   1.943   .     S
O146   Zn156   1.943   .     S
O147   Zn154   1.925   .     S
O148   Zn155   1.934   .     S
O149   Zn156   1.930   .     S
O150   Zn153   1.921   .     S
O151   Zn154   1.948   .     S
O152   Zn155   1.945   .     S
C157   C167    1.436   .     S
C157   O225    1.270   .     A
C157   O227    1.271   .     A
C158   C190    1.422   .     A
C158   C187    1.522   .     S
C158   C159    1.412   .     A
C159   C185    1.453   .     S
C159   C863    1.428   .     S
C160   O226    1.279   .     A
C160   C166    1.454   .     S
C160   O228    1.275   .     A
C161   C162    1.426   .     A
C161   C163    1.434   .     A
C161   C861    1.428   1_554 S
C162   C165    1.422   .     A
C162   C191    1.425   .     A
C163   C164    1.414   .     A
C163   C180    1.452   .     S
C164   C176    1.408   .     A
C164   C184    1.522   .     S
C165   C176    1.401   .     A
C165   C183    1.455   .     S
C166   C11     1.334   1_655 S
C166   H38     1.088   1_655 S
C168   C177    1.402   .     A
C168   C186    1.509   .     S
C168   C175    1.419   .     A
C169   C172    1.465   .     S
C169   C404    1.361   .     S
C169   C415    1.522   .     S
C170   C171    1.432   .     S
C170   C637    1.361   1_545 S
C170   C650    1.515   1_545 S
C171   O223    1.269   .     A
C171   O229    1.269   .     A
C172   O230    1.274   .     A
C172   O224    1.265   .     A
C173   C176    1.469   .     S
C173   O221    1.278   .     A
C173   O219    1.276   .     A
C174   C175    1.484   .     S
C174   O220    1.285   .     A
C174   O222    1.290   .     A
C175   C179    1.400   .     A
C177   H207    1.083   .     S
C177   C189    1.408   .     A
C178   C193    1.447   .     S
C178   N214    1.157   .     T
C179   C188    1.407   .     A
C179   H208    1.080   .     S
C180   N215    1.158   .     T
C181   H212    1.111   .     S
C181   H211    1.111   .     S
C181   C637    1.522   1_545 S
C181   H678    1.109   1_545 S
C182   H195    1.110   .     S
C182   H196    1.110   .     S
C182   C404    1.515   .     S
C182   H447    1.112   .     S
C183   N216    1.158   .     T
C184   H197    1.107   .     S
C184   H199    1.110   .     S
C184   H198    1.111   .     S
C185   N217    1.158   .     T
C186   H201    1.111   .     S
C186   H200    1.110   .     S
C186   H202    1.110   .     S
C187   H203    1.110   .     S
C187   H204    1.109   .     S
C187   H206    1.111   .     S
C188   C189    1.418   .     A
C188   C190    1.429   .     A
C189   C895    1.408   .     S
C190   C893    1.412   .     S
C191   C192    1.411   .     A
C191   C892    1.412   1_554 S
C192   C193    1.392   .     A
C192   H209    1.083   .     S
C193   C891    1.408   1_554 S
H205   C11     1.086   1_655 S
H210   C415    1.109   .     S
H213   C650    1.112   1_545 S
O218   Zn233   1.929   .     S
O218   Zn232   1.943   .     S
O218   Zn231   1.954   .     S
O218   Zn234   1.934   .     S
O219   Zn232   1.913   .     S
O220   Zn234   1.922   .     S
O221   Zn233   1.919   .     S
O222   Zn231   1.911   .     S
O223   Zn231   1.943   .     S
O224   Zn234   1.943   .     S
O225   Zn232   1.925   .     S
O226   Zn233   1.934   .     S
O227   Zn234   1.930   .     S
O228   Zn231   1.921   .     S
O229   Zn232   1.948   .     S
O230   Zn233   1.945   .     S
C235   C245    1.436   .     S
C235   O303    1.270   .     A
C235   O305    1.271   .     A
C236   C268    1.422   .     A
C236   C265    1.522   .     S
C236   C237    1.412   .     A
C237   C263    1.453   .     S
C237   C941    1.428   .     S
C238   O304    1.279   .     A
C238   C244    1.454   .     S
C238   O306    1.275   .     A
C239   C240    1.426   .     A
C239   C241    1.434   .     A
C239   C939    1.428   1_554 S
C240   C243    1.422   .     A
C240   C269    1.425   .     A
C241   C242    1.414   .     A
C241   C258    1.452   .     S
C242   C254    1.408   .     A
C242   C262    1.522   .     S
C243   C254    1.401   .     A
C243   C261    1.455   .     S
C244   C323    1.334   .     S
C244   H350    1.088   .     S
C245   C400    1.334   1_455 S
C245   H439    1.086   1_455 S
C246   C255    1.402   .     A
C246   C264    1.509   .     S
C246   C253    1.419   .     A
C247   C250    1.465   .     S
C247   C482    1.361   .     S
C247   C493    1.522   .     S
C248   C249    1.432   .     S
C249   O301    1.269   .     A
C249   O307    1.269   .     A
C250   O308    1.274   .     A
C250   O302    1.265   .     A
C251   C254    1.469   .     S
C251   O299    1.278   .     A
C251   O297    1.276   .     A
C252   C253    1.484   .     S
C252   O298    1.285   .     A
C252   O300    1.290   .     A
C253   C257    1.400   .     A
C255   H285    1.083   .     S
C255   C267    1.408   .     A
C256   C271    1.447   .     S
C256   N292    1.157   .     T
C257   C266    1.407   .     A
C257   H286    1.080   .     S
C258   N293    1.158   .     T
C259   H290    1.111   .     S
C259   H289    1.111   .     S
C260   H273    1.110   .     S
C260   H274    1.110   .     S
C260   C482    1.515   .     S
C260   H525    1.112   .     S
C261   N294    1.158   .     T
C262   H275    1.107   .     S
C262   H277    1.110   .     S
C262   H276    1.111   .     S
C263   N295    1.158   .     T
C264   H279    1.111   .     S
C264   H278    1.110   .     S
C264   H280    1.110   .     S
C265   H281    1.110   .     S
C265   H282    1.109   .     S
C265   H284    1.111   .     S
C266   C267    1.418   .     A
C266   C268    1.429   .     A
C267   C973    1.408   .     S
C268   C971    1.412   .     S
C269   C270    1.411   .     A
C269   C970    1.412   1_554 S
C270   C271    1.392   .     A
C270   H287    1.083   .     S
C271   C969    1.408   1_554 S
H272   C400    1.088   1_455 S
H283   C323    1.086   .     S
H288   C493    1.109   .     S
O296   Zn311   1.929   .     S
O296   Zn310   1.943   .     S
O296   Zn309   1.954   .     S
O296   Zn312   1.934   .     S
O297   Zn310   1.913   .     S
O298   Zn312   1.922   .     S
O299   Zn311   1.919   .     S
O300   Zn309   1.911   .     S
O301   Zn309   1.943   .     S
O302   Zn312   1.943   .     S
O303   Zn310   1.925   .     S
O304   Zn311   1.934   .     S
O305   Zn312   1.930   .     S
O306   Zn309   1.921   .     S
O307   Zn310   1.948   .     S
O308   Zn311   1.945   .     S
C313   C323    1.436   .     S
C313   O381    1.270   .     A
C313   O383    1.271   .     A
C314   C346    1.422   .     A
C314   C343    1.522   .     S
C314   C315    1.412   .     A
C315   C341    1.453   .     S
C315   C1019   1.428   .     S
C316   O382    1.279   .     A
C316   C322    1.454   .     S
C316   O384    1.275   .     A
C317   C318    1.426   .     A
C317   C319    1.434   .     A
C317   C1017   1.428   1_554 S
C318   C321    1.422   .     A
C318   C347    1.425   .     A
C319   C320    1.414   .     A
C319   C336    1.452   .     S
C320   C332    1.408   .     A
C320   C340    1.522   .     S
C321   C332    1.401   .     A
C321   C339    1.455   .     S
C322   C401    1.334   .     S
C322   H428    1.088   .     S
C324   C333    1.402   .     A
C324   C342    1.509   .     S
C324   C331    1.419   .     A
C325   C328    1.465   .     S
C325   C560    1.361   .     S
C325   C571    1.522   .     S
C326   C327    1.432   .     S
C327   O379    1.269   .     A
C327   O385    1.269   .     A
C328   O386    1.274   .     A
C328   O380    1.265   .     A
C329   C332    1.469   .     S
C329   O377    1.278   .     A
C329   O375    1.276   .     A
C330   C331    1.484   .     S
C330   O376    1.285   .     A
C330   O378    1.290   .     A
C331   C335    1.400   .     A
C333   H363    1.083   .     S
C333   C345    1.408   .     A
C334   C349    1.447   .     S
C334   N370    1.157   .     T
C335   C344    1.407   .     A
C335   H364    1.080   .     S
C336   N371    1.158   .     T
C337   H368    1.111   .     S
C337   H367    1.111   .     S
C338   H351    1.110   .     S
C338   H352    1.110   .     S
C338   C560    1.515   .     S
C338   H603    1.112   .     S
C339   N372    1.158   .     T
C340   H353    1.107   .     S
C340   H355    1.110   .     S
C340   H354    1.111   .     S
C341   N373    1.158   .     T
C342   H357    1.111   .     S
C342   H356    1.110   .     S
C342   H358    1.110   .     S
C343   H359    1.110   .     S
C343   H360    1.109   .     S
C343   H362    1.111   .     S
C344   C345    1.418   .     A
C344   C346    1.429   .     A
C345   C1051   1.408   .     S
C346   C1049   1.412   .     S
C347   C348    1.411   .     A
C347   C1048   1.412   1_554 S
C348   C349    1.392   .     A
C348   H365    1.083   .     S
C349   C1047   1.408   1_554 S
H361   C401    1.086   .     S
H366   C571    1.109   .     S
O374   Zn389   1.929   .     S
O374   Zn388   1.943   .     S
O374   Zn387   1.954   .     S
O374   Zn390   1.934   .     S
O375   Zn388   1.913   .     S
O376   Zn390   1.922   .     S
O377   Zn389   1.919   .     S
O378   Zn387   1.911   .     S
O379   Zn387   1.943   .     S
O380   Zn390   1.943   .     S
O381   Zn388   1.925   .     S
O382   Zn389   1.934   .     S
O383   Zn390   1.930   .     S
O384   Zn387   1.921   .     S
O385   Zn388   1.948   .     S
O386   Zn389   1.945   .     S
C391   C401    1.436   .     S
C391   O459    1.270   .     A
C391   O461    1.271   .     A
C392   C424    1.422   .     A
C392   C421    1.522   .     S
C392   C393    1.412   .     A
C393   C419    1.453   .     S
C393   C1097   1.428   .     S
C394   O460    1.279   .     A
C394   C400    1.454   .     S
C394   O462    1.275   .     A
C395   C396    1.426   .     A
C395   C397    1.434   .     A
C395   C1095   1.428   1_554 S
C396   C399    1.422   .     A
C396   C425    1.425   .     A
C397   C398    1.414   .     A
C397   C414    1.452   .     S
C398   C410    1.408   .     A
C398   C418    1.522   .     S
C399   C410    1.401   .     A
C399   C417    1.455   .     S
C400   C245    1.334   1_655 S
C400   H272    1.088   1_655 S
C402   C411    1.402   .     A
C402   C420    1.509   .     S
C402   C409    1.419   .     A
C403   C406    1.465   .     S
C403   C638    1.361   .     S
C403   C649    1.522   .     S
C404   C405    1.432   .     S
C405   O457    1.269   .     A
C405   O463    1.269   .     A
C406   O464    1.274   .     A
C406   O458    1.265   .     A
C407   C410    1.469   .     S
C407   O455    1.278   .     A
C407   O453    1.276   .     A
C408   C409    1.484   .     S
C408   O454    1.285   .     A
C408   O456    1.290   .     A
C409   C413    1.400   .     A
C411   H441    1.083   .     S
C411   C423    1.408   .     A
C412   C427    1.447   .     S
C412   N448    1.157   .     T
C413   C422    1.407   .     A
C413   H442    1.080   .     S
C414   N449    1.158   .     T
C415   H446    1.111   .     S
C415   H445    1.111   .     S
C416   H429    1.110   .     S
C416   H430    1.110   .     S
C416   C638    1.515   .     S
C416   H681    1.112   .     S
C417   N450    1.158   .     T
C418   H431    1.107   .     S
C418   H433    1.110   .     S
C418   H432    1.111   .     S
C419   N451    1.158   .     T
C420   H435    1.111   .     S
C420   H434    1.110   .     S
C420   H436    1.110   .     S
C421   H437    1.110   .     S
C421   H438    1.109   .     S
C421   H440    1.111   .     S
C422   C423    1.418   .     A
C422   C424    1.429   .     A
C423   C1129   1.408   .     S
C424   C1127   1.412   .     S
C425   C426    1.411   .     A
C425   C1126   1.412   1_554 S
C426   C427    1.392   .     A
C426   H443    1.083   .     S
C427   C1125   1.408   1_554 S
H439   C245    1.086   1_655 S
H444   C649    1.109   .     S
O452   Zn467   1.929   .     S
O452   Zn466   1.943   .     S
O452   Zn465   1.954   .     S
O452   Zn468   1.934   .     S
O453   Zn466   1.913   .     S
O454   Zn468   1.922   .     S
O455   Zn467   1.919   .     S
O456   Zn465   1.911   .     S
O457   Zn465   1.943   .     S
O458   Zn468   1.943   .     S
O459   Zn466   1.925   .     S
O460   Zn467   1.934   .     S
O461   Zn468   1.930   .     S
O462   Zn465   1.921   .     S
O463   Zn466   1.948   .     S
O464   Zn467   1.945   .     S
C469   C479    1.436   .     S
C469   O537    1.270   .     A
C469   O539    1.271   .     A
C470   C502    1.422   .     A
C470   C499    1.522   .     S
C470   C471    1.412   .     A
C471   C497    1.453   .     S
C471   C1175   1.428   .     S
C472   O538    1.279   .     A
C472   C478    1.454   .     S
C472   O540    1.275   .     A
C473   C474    1.426   .     A
C473   C475    1.434   .     A
C473   C1173   1.428   1_554 S
C474   C477    1.422   .     A
C474   C503    1.425   .     A
C475   C476    1.414   .     A
C475   C492    1.452   .     S
C476   C488    1.408   .     A
C476   C496    1.522   .     S
C477   C488    1.401   .     A
C477   C495    1.455   .     S
C478   C557    1.334   .     S
C478   H584    1.088   .     S
C479   C634    1.334   1_455 S
C479   H673    1.086   1_455 S
C480   C489    1.402   .     A
C480   C498    1.509   .     S
C480   C487    1.419   .     A
C481   C484    1.465   .     S
C481   C14     1.361   1_565 S
C481   C25     1.522   1_565 S
C482   C483    1.432   .     S
C483   O535    1.269   .     A
C483   O541    1.269   .     A
C484   O542    1.274   .     A
C484   O536    1.265   .     A
C485   C488    1.469   .     S
C485   O533    1.278   .     A
C485   O531    1.276   .     A
C486   C487    1.484   .     S
C486   O532    1.285   .     A
C486   O534    1.290   .     A
C487   C491    1.400   .     A
C489   H519    1.083   .     S
C489   C501    1.408   .     A
C490   C505    1.447   .     S
C490   N526    1.157   .     T
C491   C500    1.407   .     A
C491   H520    1.080   .     S
C492   N527    1.158   .     T
C493   H524    1.111   .     S
C493   H523    1.111   .     S
C494   H507    1.110   .     S
C494   H508    1.110   .     S
C494   C14     1.515   1_565 S
C494   H57     1.112   1_565 S
C495   N528    1.158   .     T
C496   H509    1.107   .     S
C496   H511    1.110   .     S
C496   H510    1.111   .     S
C497   N529    1.158   .     T
C498   H513    1.111   .     S
C498   H512    1.110   .     S
C498   H514    1.110   .     S
C499   H515    1.110   .     S
C499   H516    1.109   .     S
C499   H518    1.111   .     S
C500   C501    1.418   .     A
C500   C502    1.429   .     A
C501   C1207   1.408   .     S
C502   C1205   1.412   .     S
C503   C504    1.411   .     A
C503   C1204   1.412   1_554 S
C504   C505    1.392   .     A
C504   H521    1.083   .     S
C505   C1203   1.408   1_554 S
H506   C634    1.088   1_455 S
H517   C557    1.086   .     S
H522   C25     1.109   1_565 S
O530   Zn545   1.929   .     S
O530   Zn544   1.943   .     S
O530   Zn543   1.954   .     S
O530   Zn546   1.934   .     S
O531   Zn544   1.913   .     S
O532   Zn546   1.922   .     S
O533   Zn545   1.919   .     S
O534   Zn543   1.911   .     S
O535   Zn543   1.943   .     S
O536   Zn546   1.943   .     S
O537   Zn544   1.925   .     S
O538   Zn545   1.934   .     S
O539   Zn546   1.930   .     S
O540   Zn543   1.921   .     S
O541   Zn544   1.948   .     S
O542   Zn545   1.945   .     S
C547   C557    1.436   .     S
C547   O615    1.270   .     A
C547   O617    1.271   .     A
C548   C580    1.422   .     A
C548   C577    1.522   .     S
C548   C549    1.412   .     A
C549   C575    1.453   .     S
C549   C1253   1.428   .     S
C550   O616    1.279   .     A
C550   C556    1.454   .     S
C550   O618    1.275   .     A
C551   C552    1.426   .     A
C551   C553    1.434   .     A
C551   C1251   1.428   1_554 S
C552   C555    1.422   .     A
C552   C581    1.425   .     A
C553   C554    1.414   .     A
C553   C570    1.452   .     S
C554   C566    1.408   .     A
C554   C574    1.522   .     S
C555   C566    1.401   .     A
C555   C573    1.455   .     S
C556   C635    1.334   .     S
C556   H662    1.088   .     S
C558   C567    1.402   .     A
C558   C576    1.509   .     S
C558   C565    1.419   .     A
C559   C562    1.465   .     S
C559   C92     1.361   1_565 S
C559   C103    1.522   1_565 S
C560   C561    1.432   .     S
C561   O613    1.269   .     A
C561   O619    1.269   .     A
C562   O620    1.274   .     A
C562   O614    1.265   .     A
C563   C566    1.469   .     S
C563   O611    1.278   .     A
C563   O609    1.276   .     A
C564   C565    1.484   .     S
C564   O610    1.285   .     A
C564   O612    1.290   .     A
C565   C569    1.400   .     A
C567   H597    1.083   .     S
C567   C579    1.408   .     A
C568   C583    1.447   .     S
C568   N604    1.157   .     T
C569   C578    1.407   .     A
C569   H598    1.080   .     S
C570   N605    1.158   .     T
C571   H602    1.111   .     S
C571   H601    1.111   .     S
C572   H585    1.110   .     S
C572   H586    1.110   .     S
C572   C92     1.515   1_565 S
C572   H135    1.112   1_565 S
C573   N606    1.158   .     T
C574   H587    1.107   .     S
C574   H589    1.110   .     S
C574   H588    1.111   .     S
C575   N607    1.158   .     T
C576   H591    1.111   .     S
C576   H590    1.110   .     S
C576   H592    1.110   .     S
C577   H593    1.110   .     S
C577   H594    1.109   .     S
C577   H596    1.111   .     S
C578   C579    1.418   .     A
C578   C580    1.429   .     A
C579   C1285   1.408   .     S
C580   C1283   1.412   .     S
C581   C582    1.411   .     A
C581   C1282   1.412   1_554 S
C582   C583    1.392   .     A
C582   H599    1.083   .     S
C583   C1281   1.408   1_554 S
H595   C635    1.086   .     S
H600   C103    1.109   1_565 S
O608   Zn623   1.929   .     S
O608   Zn622   1.943   .     S
O608   Zn621   1.954   .     S
O608   Zn624   1.934   .     S
O609   Zn622   1.913   .     S
O610   Zn624   1.922   .     S
O611   Zn623   1.919   .     S
O612   Zn621   1.911   .     S
O613   Zn621   1.943   .     S
O614   Zn624   1.943   .     S
O615   Zn622   1.925   .     S
O616   Zn623   1.934   .     S
O617   Zn624   1.930   .     S
O618   Zn621   1.921   .     S
O619   Zn622   1.948   .     S
O620   Zn623   1.945   .     S
C625   C635    1.436   .     S
C625   O693    1.270   .     A
C625   O695    1.271   .     A
C626   C658    1.422   .     A
C626   C655    1.522   .     S
C626   C627    1.412   .     A
C627   C653    1.453   .     S
C627   C1331   1.428   .     S
C628   O694    1.279   .     A
C628   C634    1.454   .     S
C628   O696    1.275   .     A
C629   C630    1.426   .     A
C629   C631    1.434   .     A
C629   C1329   1.428   1_554 S
C630   C633    1.422   .     A
C630   C659    1.425   .     A
C631   C632    1.414   .     A
C631   C648    1.452   .     S
C632   C644    1.408   .     A
C632   C652    1.522   .     S
C633   C644    1.401   .     A
C633   C651    1.455   .     S
C634   C479    1.334   1_655 S
C634   H506    1.088   1_655 S
C636   C645    1.402   .     A
C636   C654    1.509   .     S
C636   C643    1.419   .     A
C637   C640    1.465   .     S
C637   C170    1.361   1_565 S
C637   C181    1.522   1_565 S
C638   C639    1.432   .     S
C639   O691    1.269   .     A
C639   O697    1.269   .     A
C640   O698    1.274   .     A
C640   O692    1.265   .     A
C641   C644    1.469   .     S
C641   O689    1.278   .     A
C641   O687    1.276   .     A
C642   C643    1.484   .     S
C642   O688    1.285   .     A
C642   O690    1.290   .     A
C643   C647    1.400   .     A
C645   H675    1.083   .     S
C645   C657    1.408   .     A
C646   C661    1.447   .     S
C646   N682    1.157   .     T
C647   C656    1.407   .     A
C647   H676    1.080   .     S
C648   N683    1.158   .     T
C649   H680    1.111   .     S
C649   H679    1.111   .     S
C650   H663    1.110   .     S
C650   H664    1.110   .     S
C650   C170    1.515   1_565 S
C650   H213    1.112   1_565 S
C651   N684    1.158   .     T
C652   H665    1.107   .     S
C652   H667    1.110   .     S
C652   H666    1.111   .     S
C653   N685    1.158   .     T
C654   H669    1.111   .     S
C654   H668    1.110   .     S
C654   H670    1.110   .     S
C655   H671    1.110   .     S
C655   H672    1.109   .     S
C655   H674    1.111   .     S
C656   C657    1.418   .     A
C656   C658    1.429   .     A
C657   C1363   1.408   .     S
C658   C1361   1.412   .     S
C659   C660    1.411   .     A
C659   C1360   1.412   1_554 S
C660   C661    1.392   .     A
C660   H677    1.083   .     S
C661   C1359   1.408   1_554 S
H673   C479    1.086   1_655 S
H678   C181    1.109   1_565 S
O686   Zn701   1.929   .     S
O686   Zn700   1.943   .     S
O686   Zn699   1.954   .     S
O686   Zn702   1.934   .     S
O687   Zn700   1.913   .     S
O688   Zn702   1.922   .     S
O689   Zn701   1.919   .     S
O690   Zn699   1.911   .     S
O691   Zn699   1.943   .     S
O692   Zn702   1.943   .     S
O693   Zn700   1.925   .     S
O694   Zn701   1.934   .     S
O695   Zn702   1.930   .     S
O696   Zn699   1.921   .     S
O697   Zn700   1.948   .     S
O698   Zn701   1.945   .     S
C703   C713    1.436   .     S
C703   O771    1.270   .     A
C703   O773    1.271   .     A
C704   C736    1.422   .     A
C704   C733    1.522   .     S
C704   C705    1.412   .     A
C705   C731    1.453   .     S
C705   C5      1.428   1_556 S
C706   O772    1.279   .     A
C706   C712    1.454   .     S
C706   O774    1.275   .     A
C707   C708    1.426   .     A
C707   C709    1.434   .     A
C708   C711    1.422   .     A
C708   C737    1.425   .     A
C709   C710    1.414   .     A
C709   C726    1.452   .     S
C710   C722    1.408   .     A
C710   C730    1.522   .     S
C711   C722    1.401   .     A
C711   C729    1.455   .     S
C712   C791    1.334   .     S
C712   H818    1.088   .     S
C713   C868    1.334   1_455 S
C713   H907    1.086   1_455 S
C714   C723    1.402   .     A
C714   C732    1.509   .     S
C714   C721    1.419   .     A
C715   C718    1.465   .     S
C715   C950    1.361   .     S
C715   C961    1.522   .     S
C716   C717    1.432   .     S
C716   C1183   1.361   1_545 S
C716   C1196   1.515   1_545 S
C717   O769    1.269   .     A
C717   O775    1.269   .     A
C718   O776    1.274   .     A
C718   O770    1.265   .     A
C719   C722    1.469   .     S
C719   O767    1.278   .     A
C719   O765    1.276   .     A
C720   C721    1.484   .     S
C720   O766    1.285   .     A
C720   O768    1.290   .     A
C721   C725    1.400   .     A
C723   H753    1.083   .     S
C723   C735    1.408   .     A
C724   C739    1.447   .     S
C724   N760    1.157   .     T
C725   C734    1.407   .     A
C725   H754    1.080   .     S
C726   N761    1.158   .     T
C727   H758    1.111   .     S
C727   H757    1.111   .     S
C727   C1183   1.522   1_545 S
C727   H1224   1.109   1_545 S
C728   H741    1.110   .     S
C728   H742    1.110   .     S
C728   C950    1.515   .     S
C728   H993    1.112   .     S
C729   N762    1.158   .     T
C730   H743    1.107   .     S
C730   H745    1.110   .     S
C730   H744    1.111   .     S
C731   N763    1.158   .     T
C732   H747    1.111   .     S
C732   H746    1.110   .     S
C732   H748    1.110   .     S
C733   H749    1.110   .     S
C733   H750    1.109   .     S
C733   H752    1.111   .     S
C734   C735    1.418   .     A
C734   C736    1.429   .     A
C735   C37     1.408   1_556 S
C736   C35     1.412   1_556 S
C737   C738    1.411   .     A
C738   C739    1.392   .     A
C738   H755    1.083   .     S
H740   C868    1.088   1_455 S
H751   C791    1.086   .     S
H756   C961    1.109   .     S
H759   C1196   1.112   1_545 S
O764   Zn779   1.929   .     S
O764   Zn778   1.943   .     S
O764   Zn777   1.954   .     S
O764   Zn780   1.934   .     S
O765   Zn778   1.913   .     S
O766   Zn780   1.922   .     S
O767   Zn779   1.919   .     S
O768   Zn777   1.911   .     S
O769   Zn777   1.943   .     S
O770   Zn780   1.943   .     S
O771   Zn778   1.925   .     S
O772   Zn779   1.934   .     S
O773   Zn780   1.930   .     S
O774   Zn777   1.921   .     S
O775   Zn778   1.948   .     S
O776   Zn779   1.945   .     S
C781   C791    1.436   .     S
C781   O849    1.270   .     A
C781   O851    1.271   .     A
C782   C814    1.422   .     A
C782   C811    1.522   .     S
C782   C783    1.412   .     A
C783   C809    1.453   .     S
C783   C83     1.428   1_556 S
C784   O850    1.279   .     A
C784   C790    1.454   .     S
C784   O852    1.275   .     A
C785   C786    1.426   .     A
C785   C787    1.434   .     A
C786   C789    1.422   .     A
C786   C815    1.425   .     A
C787   C788    1.414   .     A
C787   C804    1.452   .     S
C788   C800    1.408   .     A
C788   C808    1.522   .     S
C789   C800    1.401   .     A
C789   C807    1.455   .     S
C790   C869    1.334   .     S
C790   H896    1.088   .     S
C792   C801    1.402   .     A
C792   C810    1.509   .     S
C792   C799    1.419   .     A
C793   C796    1.465   .     S
C793   C1028   1.361   .     S
C793   C1039   1.522   .     S
C794   C795    1.432   .     S
C794   C1261   1.361   1_545 S
C794   C1274   1.515   1_545 S
C795   O847    1.269   .     A
C795   O853    1.269   .     A
C796   O854    1.274   .     A
C796   O848    1.265   .     A
C797   C800    1.469   .     S
C797   O845    1.278   .     A
C797   O843    1.276   .     A
C798   C799    1.484   .     S
C798   O844    1.285   .     A
C798   O846    1.290   .     A
C799   C803    1.400   .     A
C801   H831    1.083   .     S
C801   C813    1.408   .     A
C802   C817    1.447   .     S
C802   N838    1.157   .     T
C803   C812    1.407   .     A
C803   H832    1.080   .     S
C804   N839    1.158   .     T
C805   H836    1.111   .     S
C805   H835    1.111   .     S
C805   C1261   1.522   1_545 S
C805   H1302   1.109   1_545 S
C806   H819    1.110   .     S
C806   H820    1.110   .     S
C806   C1028   1.515   .     S
C806   H1071   1.112   .     S
C807   N840    1.158   .     T
C808   H821    1.107   .     S
C808   H823    1.110   .     S
C808   H822    1.111   .     S
C809   N841    1.158   .     T
C810   H825    1.111   .     S
C810   H824    1.110   .     S
C810   H826    1.110   .     S
C811   H827    1.110   .     S
C811   H828    1.109   .     S
C811   H830    1.111   .     S
C812   C813    1.418   .     A
C812   C814    1.429   .     A
C813   C115    1.408   1_556 S
C814   C113    1.412   1_556 S
C815   C816    1.411   .     A
C816   C817    1.392   .     A
C816   H833    1.083   .     S
H829   C869    1.086   .     S
H834   C1039   1.109   .     S
H837   C1274   1.112   1_545 S
O842   Zn857   1.929   .     S
O842   Zn856   1.943   .     S
O842   Zn855   1.954   .     S
O842   Zn858   1.934   .     S
O843   Zn856   1.913   .     S
O844   Zn858   1.922   .     S
O845   Zn857   1.919   .     S
O846   Zn855   1.911   .     S
O847   Zn855   1.943   .     S
O848   Zn858   1.943   .     S
O849   Zn856   1.925   .     S
O850   Zn857   1.934   .     S
O851   Zn858   1.930   .     S
O852   Zn855   1.921   .     S
O853   Zn856   1.948   .     S
O854   Zn857   1.945   .     S
C859   C869    1.436   .     S
C859   O927    1.270   .     A
C859   O929    1.271   .     A
C860   C892    1.422   .     A
C860   C889    1.522   .     S
C860   C861    1.412   .     A
C861   C887    1.453   .     S
C861   C161    1.428   1_556 S
C862   O928    1.279   .     A
C862   C868    1.454   .     S
C862   O930    1.275   .     A
C863   C864    1.426   .     A
C863   C865    1.434   .     A
C864   C867    1.422   .     A
C864   C893    1.425   .     A
C865   C866    1.414   .     A
C865   C882    1.452   .     S
C866   C878    1.408   .     A
C866   C886    1.522   .     S
C867   C878    1.401   .     A
C867   C885    1.455   .     S
C868   C713    1.334   1_655 S
C868   H740    1.088   1_655 S
C870   C879    1.402   .     A
C870   C888    1.509   .     S
C870   C877    1.419   .     A
C871   C874    1.465   .     S
C871   C1106   1.361   .     S
C871   C1117   1.522   .     S
C872   C873    1.432   .     S
C872   C1339   1.361   1_545 S
C872   C1352   1.515   1_545 S
C873   O925    1.269   .     A
C873   O931    1.269   .     A
C874   O932    1.274   .     A
C874   O926    1.265   .     A
C875   C878    1.469   .     S
C875   O923    1.278   .     A
C875   O921    1.276   .     A
C876   C877    1.484   .     S
C876   O922    1.285   .     A
C876   O924    1.290   .     A
C877   C881    1.400   .     A
C879   H909    1.083   .     S
C879   C891    1.408   .     A
C880   C895    1.447   .     S
C880   N916    1.157   .     T
C881   C890    1.407   .     A
C881   H910    1.080   .     S
C882   N917    1.158   .     T
C883   H914    1.111   .     S
C883   H913    1.111   .     S
C883   C1339   1.522   1_545 S
C883   H1380   1.109   1_545 S
C884   H897    1.110   .     S
C884   H898    1.110   .     S
C884   C1106   1.515   .     S
C884   H1149   1.112   .     S
C885   N918    1.158   .     T
C886   H899    1.107   .     S
C886   H901    1.110   .     S
C886   H900    1.111   .     S
C887   N919    1.158   .     T
C888   H903    1.111   .     S
C888   H902    1.110   .     S
C888   H904    1.110   .     S
C889   H905    1.110   .     S
C889   H906    1.109   .     S
C889   H908    1.111   .     S
C890   C891    1.418   .     A
C890   C892    1.429   .     A
C891   C193    1.408   1_556 S
C892   C191    1.412   1_556 S
C893   C894    1.411   .     A
C894   C895    1.392   .     A
C894   H911    1.083   .     S
H907   C713    1.086   1_655 S
H912   C1117   1.109   .     S
H915   C1352   1.112   1_545 S
O920   Zn935   1.929   .     S
O920   Zn934   1.943   .     S
O920   Zn933   1.954   .     S
O920   Zn936   1.934   .     S
O921   Zn934   1.913   .     S
O922   Zn936   1.922   .     S
O923   Zn935   1.919   .     S
O924   Zn933   1.911   .     S
O925   Zn933   1.943   .     S
O926   Zn936   1.943   .     S
O927   Zn934   1.925   .     S
O928   Zn935   1.934   .     S
O929   Zn936   1.930   .     S
O930   Zn933   1.921   .     S
O931   Zn934   1.948   .     S
O932   Zn935   1.945   .     S
C937   C947    1.436   .     S
C937   O1005   1.270   .     A
C937   O1007   1.271   .     A
C938   C970    1.422   .     A
C938   C967    1.522   .     S
C938   C939    1.412   .     A
C939   C965    1.453   .     S
C939   C239    1.428   1_556 S
C940   O1006   1.279   .     A
C940   C946    1.454   .     S
C940   O1008   1.275   .     A
C941   C942    1.426   .     A
C941   C943    1.434   .     A
C942   C945    1.422   .     A
C942   C971    1.425   .     A
C943   C944    1.414   .     A
C943   C960    1.452   .     S
C944   C956    1.408   .     A
C944   C964    1.522   .     S
C945   C956    1.401   .     A
C945   C963    1.455   .     S
C946   C1025   1.334   .     S
C946   H1052   1.088   .     S
C947   C1102   1.334   1_455 S
C947   H1141   1.086   1_455 S
C948   C957    1.402   .     A
C948   C966    1.509   .     S
C948   C955    1.419   .     A
C949   C952    1.465   .     S
C949   C1184   1.361   .     S
C949   C1195   1.522   .     S
C950   C951    1.432   .     S
C951   O1003   1.269   .     A
C951   O1009   1.269   .     A
C952   O1010   1.274   .     A
C952   O1004   1.265   .     A
C953   C956    1.469   .     S
C953   O1001   1.278   .     A
C953   O999    1.276   .     A
C954   C955    1.484   .     S
C954   O1000   1.285   .     A
C954   O1002   1.290   .     A
C955   C959    1.400   .     A
C957   H987    1.083   .     S
C957   C969    1.408   .     A
C958   C973    1.447   .     S
C958   N994    1.157   .     T
C959   C968    1.407   .     A
C959   H988    1.080   .     S
C960   N995    1.158   .     T
C961   H992    1.111   .     S
C961   H991    1.111   .     S
C962   H975    1.110   .     S
C962   H976    1.110   .     S
C962   C1184   1.515   .     S
C962   H1227   1.112   .     S
C963   N996    1.158   .     T
C964   H977    1.107   .     S
C964   H979    1.110   .     S
C964   H978    1.111   .     S
C965   N997    1.158   .     T
C966   H981    1.111   .     S
C966   H980    1.110   .     S
C966   H982    1.110   .     S
C967   H983    1.110   .     S
C967   H984    1.109   .     S
C967   H986    1.111   .     S
C968   C969    1.418   .     A
C968   C970    1.429   .     A
C969   C271    1.408   1_556 S
C970   C269    1.412   1_556 S
C971   C972    1.411   .     A
C972   C973    1.392   .     A
C972   H989    1.083   .     S
H974   C1102   1.088   1_455 S
H985   C1025   1.086   .     S
H990   C1195   1.109   .     S
O998   Zn1013  1.929   .     S
O998   Zn1012  1.943   .     S
O998   Zn1011  1.954   .     S
O998   Zn1014  1.934   .     S
O999   Zn1012  1.913   .     S
O1000  Zn1014  1.922   .     S
O1001  Zn1013  1.919   .     S
O1002  Zn1011  1.911   .     S
O1003  Zn1011  1.943   .     S
O1004  Zn1014  1.943   .     S
O1005  Zn1012  1.925   .     S
O1006  Zn1013  1.934   .     S
O1007  Zn1014  1.930   .     S
O1008  Zn1011  1.921   .     S
O1009  Zn1012  1.948   .     S
O1010  Zn1013  1.945   .     S
C1015  C1025   1.436   .     S
C1015  O1083   1.270   .     A
C1015  O1085   1.271   .     A
C1016  C1048   1.422   .     A
C1016  C1045   1.522   .     S
C1016  C1017   1.412   .     A
C1017  C1043   1.453   .     S
C1017  C317    1.428   1_556 S
C1018  O1084   1.279   .     A
C1018  C1024   1.454   .     S
C1018  O1086   1.275   .     A
C1019  C1020   1.426   .     A
C1019  C1021   1.434   .     A
C1020  C1023   1.422   .     A
C1020  C1049   1.425   .     A
C1021  C1022   1.414   .     A
C1021  C1038   1.452   .     S
C1022  C1034   1.408   .     A
C1022  C1042   1.522   .     S
C1023  C1034   1.401   .     A
C1023  C1041   1.455   .     S
C1024  C1103   1.334   .     S
C1024  H1130   1.088   .     S
C1026  C1035   1.402   .     A
C1026  C1044   1.509   .     S
C1026  C1033   1.419   .     A
C1027  C1030   1.465   .     S
C1027  C1262   1.361   .     S
C1027  C1273   1.522   .     S
C1028  C1029   1.432   .     S
C1029  O1081   1.269   .     A
C1029  O1087   1.269   .     A
C1030  O1088   1.274   .     A
C1030  O1082   1.265   .     A
C1031  C1034   1.469   .     S
C1031  O1079   1.278   .     A
C1031  O1077   1.276   .     A
C1032  C1033   1.484   .     S
C1032  O1078   1.285   .     A
C1032  O1080   1.290   .     A
C1033  C1037   1.400   .     A
C1035  H1065   1.083   .     S
C1035  C1047   1.408   .     A
C1036  C1051   1.447   .     S
C1036  N1072   1.157   .     T
C1037  C1046   1.407   .     A
C1037  H1066   1.080   .     S
C1038  N1073   1.158   .     T
C1039  H1070   1.111   .     S
C1039  H1069   1.111   .     S
C1040  H1053   1.110   .     S
C1040  H1054   1.110   .     S
C1040  C1262   1.515   .     S
C1040  H1305   1.112   .     S
C1041  N1074   1.158   .     T
C1042  H1055   1.107   .     S
C1042  H1057   1.110   .     S
C1042  H1056   1.111   .     S
C1043  N1075   1.158   .     T
C1044  H1059   1.111   .     S
C1044  H1058   1.110   .     S
C1044  H1060   1.110   .     S
C1045  H1061   1.110   .     S
C1045  H1062   1.109   .     S
C1045  H1064   1.111   .     S
C1046  C1047   1.418   .     A
C1046  C1048   1.429   .     A
C1047  C349    1.408   1_556 S
C1048  C347    1.412   1_556 S
C1049  C1050   1.411   .     A
C1050  C1051   1.392   .     A
C1050  H1067   1.083   .     S
H1063  C1103   1.086   .     S
H1068  C1273   1.109   .     S
O1076  Zn1091  1.929   .     S
O1076  Zn1090  1.943   .     S
O1076  Zn1089  1.954   .     S
O1076  Zn1092  1.934   .     S
O1077  Zn1090  1.913   .     S
O1078  Zn1092  1.922   .     S
O1079  Zn1091  1.919   .     S
O1080  Zn1089  1.911   .     S
O1081  Zn1089  1.943   .     S
O1082  Zn1092  1.943   .     S
O1083  Zn1090  1.925   .     S
O1084  Zn1091  1.934   .     S
O1085  Zn1092  1.930   .     S
O1086  Zn1089  1.921   .     S
O1087  Zn1090  1.948   .     S
O1088  Zn1091  1.945   .     S
C1093  C1103   1.436   .     S
C1093  O1161   1.270   .     A
C1093  O1163   1.271   .     A
C1094  C1126   1.422   .     A
C1094  C1123   1.522   .     S
C1094  C1095   1.412   .     A
C1095  C1121   1.453   .     S
C1095  C395    1.428   1_556 S
C1096  O1162   1.279   .     A
C1096  C1102   1.454   .     S
C1096  O1164   1.275   .     A
C1097  C1098   1.426   .     A
C1097  C1099   1.434   .     A
C1098  C1101   1.422   .     A
C1098  C1127   1.425   .     A
C1099  C1100   1.414   .     A
C1099  C1116   1.452   .     S
C1100  C1112   1.408   .     A
C1100  C1120   1.522   .     S
C1101  C1112   1.401   .     A
C1101  C1119   1.455   .     S
C1102  C947    1.334   1_655 S
C1102  H974    1.088   1_655 S
C1104  C1113   1.402   .     A
C1104  C1122   1.509   .     S
C1104  C1111   1.419   .     A
C1105  C1108   1.465   .     S
C1105  C1340   1.361   .     S
C1105  C1351   1.522   .     S
C1106  C1107   1.432   .     S
C1107  O1159   1.269   .     A
C1107  O1165   1.269   .     A
C1108  O1166   1.274   .     A
C1108  O1160   1.265   .     A
C1109  C1112   1.469   .     S
C1109  O1157   1.278   .     A
C1109  O1155   1.276   .     A
C1110  C1111   1.484   .     S
C1110  O1156   1.285   .     A
C1110  O1158   1.290   .     A
C1111  C1115   1.400   .     A
C1113  H1143   1.083   .     S
C1113  C1125   1.408   .     A
C1114  C1129   1.447   .     S
C1114  N1150   1.157   .     T
C1115  C1124   1.407   .     A
C1115  H1144   1.080   .     S
C1116  N1151   1.158   .     T
C1117  H1148   1.111   .     S
C1117  H1147   1.111   .     S
C1118  H1131   1.110   .     S
C1118  H1132   1.110   .     S
C1118  C1340   1.515   .     S
C1118  H1383   1.112   .     S
C1119  N1152   1.158   .     T
C1120  H1133   1.107   .     S
C1120  H1135   1.110   .     S
C1120  H1134   1.111   .     S
C1121  N1153   1.158   .     T
C1122  H1137   1.111   .     S
C1122  H1136   1.110   .     S
C1122  H1138   1.110   .     S
C1123  H1139   1.110   .     S
C1123  H1140   1.109   .     S
C1123  H1142   1.111   .     S
C1124  C1125   1.418   .     A
C1124  C1126   1.429   .     A
C1125  C427    1.408   1_556 S
C1126  C425    1.412   1_556 S
C1127  C1128   1.411   .     A
C1128  C1129   1.392   .     A
C1128  H1145   1.083   .     S
H1141  C947    1.086   1_655 S
H1146  C1351   1.109   .     S
O1154  Zn1169  1.929   .     S
O1154  Zn1168  1.943   .     S
O1154  Zn1167  1.954   .     S
O1154  Zn1170  1.934   .     S
O1155  Zn1168  1.913   .     S
O1156  Zn1170  1.922   .     S
O1157  Zn1169  1.919   .     S
O1158  Zn1167  1.911   .     S
O1159  Zn1167  1.943   .     S
O1160  Zn1170  1.943   .     S
O1161  Zn1168  1.925   .     S
O1162  Zn1169  1.934   .     S
O1163  Zn1170  1.930   .     S
O1164  Zn1167  1.921   .     S
O1165  Zn1168  1.948   .     S
O1166  Zn1169  1.945   .     S
C1171  C1181   1.436   .     S
C1171  O1239   1.270   .     A
C1171  O1241   1.271   .     A
C1172  C1204   1.422   .     A
C1172  C1201   1.522   .     S
C1172  C1173   1.412   .     A
C1173  C1199   1.453   .     S
C1173  C473    1.428   1_556 S
C1174  O1240   1.279   .     A
C1174  C1180   1.454   .     S
C1174  O1242   1.275   .     A
C1175  C1176   1.426   .     A
C1175  C1177   1.434   .     A
C1176  C1179   1.422   .     A
C1176  C1205   1.425   .     A
C1177  C1178   1.414   .     A
C1177  C1194   1.452   .     S
C1178  C1190   1.408   .     A
C1178  C1198   1.522   .     S
C1179  C1190   1.401   .     A
C1179  C1197   1.455   .     S
C1180  C1259   1.334   .     S
C1180  H1286   1.088   .     S
C1181  C1336   1.334   1_455 S
C1181  H1375   1.086   1_455 S
C1182  C1191   1.402   .     A
C1182  C1200   1.509   .     S
C1182  C1189   1.419   .     A
C1183  C1186   1.465   .     S
C1183  C716    1.361   1_565 S
C1183  C727    1.522   1_565 S
C1184  C1185   1.432   .     S
C1185  O1237   1.269   .     A
C1185  O1243   1.269   .     A
C1186  O1244   1.274   .     A
C1186  O1238   1.265   .     A
C1187  C1190   1.469   .     S
C1187  O1235   1.278   .     A
C1187  O1233   1.276   .     A
C1188  C1189   1.484   .     S
C1188  O1234   1.285   .     A
C1188  O1236   1.290   .     A
C1189  C1193   1.400   .     A
C1191  H1221   1.083   .     S
C1191  C1203   1.408   .     A
C1192  C1207   1.447   .     S
C1192  N1228   1.157   .     T
C1193  C1202   1.407   .     A
C1193  H1222   1.080   .     S
C1194  N1229   1.158   .     T
C1195  H1226   1.111   .     S
C1195  H1225   1.111   .     S
C1196  H1209   1.110   .     S
C1196  H1210   1.110   .     S
C1196  C716    1.515   1_565 S
C1196  H759    1.112   1_565 S
C1197  N1230   1.158   .     T
C1198  H1211   1.107   .     S
C1198  H1213   1.110   .     S
C1198  H1212   1.111   .     S
C1199  N1231   1.158   .     T
C1200  H1215   1.111   .     S
C1200  H1214   1.110   .     S
C1200  H1216   1.110   .     S
C1201  H1217   1.110   .     S
C1201  H1218   1.109   .     S
C1201  H1220   1.111   .     S
C1202  C1203   1.418   .     A
C1202  C1204   1.429   .     A
C1203  C505    1.408   1_556 S
C1204  C503    1.412   1_556 S
C1205  C1206   1.411   .     A
C1206  C1207   1.392   .     A
C1206  H1223   1.083   .     S
H1208  C1336   1.088   1_455 S
H1219  C1259   1.086   .     S
H1224  C727    1.109   1_565 S
O1232  Zn1247  1.929   .     S
O1232  Zn1246  1.943   .     S
O1232  Zn1245  1.954   .     S
O1232  Zn1248  1.934   .     S
O1233  Zn1246  1.913   .     S
O1234  Zn1248  1.922   .     S
O1235  Zn1247  1.919   .     S
O1236  Zn1245  1.911   .     S
O1237  Zn1245  1.943   .     S
O1238  Zn1248  1.943   .     S
O1239  Zn1246  1.925   .     S
O1240  Zn1247  1.934   .     S
O1241  Zn1248  1.930   .     S
O1242  Zn1245  1.921   .     S
O1243  Zn1246  1.948   .     S
O1244  Zn1247  1.945   .     S
C1249  C1259   1.436   .     S
C1249  O1317   1.270   .     A
C1249  O1319   1.271   .     A
C1250  C1282   1.422   .     A
C1250  C1279   1.522   .     S
C1250  C1251   1.412   .     A
C1251  C1277   1.453   .     S
C1251  C551    1.428   1_556 S
C1252  O1318   1.279   .     A
C1252  C1258   1.454   .     S
C1252  O1320   1.275   .     A
C1253  C1254   1.426   .     A
C1253  C1255   1.434   .     A
C1254  C1257   1.422   .     A
C1254  C1283   1.425   .     A
C1255  C1256   1.414   .     A
C1255  C1272   1.452   .     S
C1256  C1268   1.408   .     A
C1256  C1276   1.522   .     S
C1257  C1268   1.401   .     A
C1257  C1275   1.455   .     S
C1258  C1337   1.334   .     S
C1258  H1364   1.088   .     S
C1260  C1269   1.402   .     A
C1260  C1278   1.509   .     S
C1260  C1267   1.419   .     A
C1261  C1264   1.465   .     S
C1261  C794    1.361   1_565 S
C1261  C805    1.522   1_565 S
C1262  C1263   1.432   .     S
C1263  O1315   1.269   .     A
C1263  O1321   1.269   .     A
C1264  O1322   1.274   .     A
C1264  O1316   1.265   .     A
C1265  C1268   1.469   .     S
C1265  O1313   1.278   .     A
C1265  O1311   1.276   .     A
C1266  C1267   1.484   .     S
C1266  O1312   1.285   .     A
C1266  O1314   1.290   .     A
C1267  C1271   1.400   .     A
C1269  H1299   1.083   .     S
C1269  C1281   1.408   .     A
C1270  C1285   1.447   .     S
C1270  N1306   1.157   .     T
C1271  C1280   1.407   .     A
C1271  H1300   1.080   .     S
C1272  N1307   1.158   .     T
C1273  H1304   1.111   .     S
C1273  H1303   1.111   .     S
C1274  H1287   1.110   .     S
C1274  H1288   1.110   .     S
C1274  C794    1.515   1_565 S
C1274  H837    1.112   1_565 S
C1275  N1308   1.158   .     T
C1276  H1289   1.107   .     S
C1276  H1291   1.110   .     S
C1276  H1290   1.111   .     S
C1277  N1309   1.158   .     T
C1278  H1293   1.111   .     S
C1278  H1292   1.110   .     S
C1278  H1294   1.110   .     S
C1279  H1295   1.110   .     S
C1279  H1296   1.109   .     S
C1279  H1298   1.111   .     S
C1280  C1281   1.418   .     A
C1280  C1282   1.429   .     A
C1281  C583    1.408   1_556 S
C1282  C581    1.412   1_556 S
C1283  C1284   1.411   .     A
C1284  C1285   1.392   .     A
C1284  H1301   1.083   .     S
H1297  C1337   1.086   .     S
H1302  C805    1.109   1_565 S
O1310  Zn1325  1.929   .     S
O1310  Zn1324  1.943   .     S
O1310  Zn1323  1.954   .     S
O1310  Zn1326  1.934   .     S
O1311  Zn1324  1.913   .     S
O1312  Zn1326  1.922   .     S
O1313  Zn1325  1.919   .     S
O1314  Zn1323  1.911   .     S
O1315  Zn1323  1.943   .     S
O1316  Zn1326  1.943   .     S
O1317  Zn1324  1.925   .     S
O1318  Zn1325  1.934   .     S
O1319  Zn1326  1.930   .     S
O1320  Zn1323  1.921   .     S
O1321  Zn1324  1.948   .     S
O1322  Zn1325  1.945   .     S
C1327  C1337   1.436   .     S
C1327  O1395   1.270   .     A
C1327  O1397   1.271   .     A
C1328  C1360   1.422   .     A
C1328  C1357   1.522   .     S
C1328  C1329   1.412   .     A
C1329  C1355   1.453   .     S
C1329  C629    1.428   1_556 S
C1330  O1396   1.279   .     A
C1330  C1336   1.454   .     S
C1330  O1398   1.275   .     A
C1331  C1332   1.426   .     A
C1331  C1333   1.434   .     A
C1332  C1335   1.422   .     A
C1332  C1361   1.425   .     A
C1333  C1334   1.414   .     A
C1333  C1350   1.452   .     S
C1334  C1346   1.408   .     A
C1334  C1354   1.522   .     S
C1335  C1346   1.401   .     A
C1335  C1353   1.455   .     S
C1336  C1181   1.334   1_655 S
C1336  H1208   1.088   1_655 S
C1338  C1347   1.402   .     A
C1338  C1356   1.509   .     S
C1338  C1345   1.419   .     A
C1339  C1342   1.465   .     S
C1339  C872    1.361   1_565 S
C1339  C883    1.522   1_565 S
C1340  C1341   1.432   .     S
C1341  O1393   1.269   .     A
C1341  O1399   1.269   .     A
C1342  O1400   1.274   .     A
C1342  O1394   1.265   .     A
C1343  C1346   1.469   .     S
C1343  O1391   1.278   .     A
C1343  O1389   1.276   .     A
C1344  C1345   1.484   .     S
C1344  O1390   1.285   .     A
C1344  O1392   1.290   .     A
C1345  C1349   1.400   .     A
C1347  H1377   1.083   .     S
C1347  C1359   1.408   .     A
C1348  C1363   1.447   .     S
C1348  N1384   1.157   .     T
C1349  C1358   1.407   .     A
C1349  H1378   1.080   .     S
C1350  N1385   1.158   .     T
C1351  H1382   1.111   .     S
C1351  H1381   1.111   .     S
C1352  H1365   1.110   .     S
C1352  H1366   1.110   .     S
C1352  C872    1.515   1_565 S
C1352  H915    1.112   1_565 S
C1353  N1386   1.158   .     T
C1354  H1367   1.107   .     S
C1354  H1369   1.110   .     S
C1354  H1368   1.111   .     S
C1355  N1387   1.158   .     T
C1356  H1371   1.111   .     S
C1356  H1370   1.110   .     S
C1356  H1372   1.110   .     S
C1357  H1373   1.110   .     S
C1357  H1374   1.109   .     S
C1357  H1376   1.111   .     S
C1358  C1359   1.418   .     A
C1358  C1360   1.429   .     A
C1359  C661    1.408   1_556 S
C1360  C659    1.412   1_556 S
C1361  C1362   1.411   .     A
C1362  C1363   1.392   .     A
C1362  H1379   1.083   .     S
H1375  C1181   1.086   1_655 S
H1380  C883    1.109   1_565 S
O1388  Zn1403  1.929   .     S
O1388  Zn1402  1.943   .     S
O1388  Zn1401  1.954   .     S
O1388  Zn1404  1.934   .     S
O1389  Zn1402  1.913   .     S
O1390  Zn1404  1.922   .     S
O1391  Zn1403  1.919   .     S
O1392  Zn1401  1.911   .     S
O1393  Zn1401  1.943   .     S
O1394  Zn1404  1.943   .     S
O1395  Zn1402  1.925   .     S
O1396  Zn1403  1.934   .     S
O1397  Zn1404  1.930   .     S
O1398  Zn1401  1.921   .     S
O1399  Zn1402  1.948   .     S
O1400  Zn1403  1.945   .     S
