data_str_m1_o5_o17_pcu_sym.86
_audit_creation_date              2020-01-03
_audit_creation_method            'Materials Studio'
_symmetry_space_group_name_H-M    'P1'
_symmetry_Int_Tables_number       1
_symmetry_cell_setting            triclinic
loop_
_symmetry_equiv_pos_as_xyz
  x,y,z
_cell_length_a                    31.7579
_cell_length_b                    31.7564
_cell_length_c                    34.4886
_cell_angle_alpha                 90.0654
_cell_angle_beta                  90.0001
_cell_angle_gamma                 90.0082
loop_
_atom_site_label
_atom_site_type_symbol
_atom_site_fract_x
_atom_site_fract_y
_atom_site_fract_z
_atom_site_U_iso_or_equiv
_atom_site_adp_type
_atom_site_occupancy
C1     C     0.25062   0.00014   0.35593   0.00000  Uiso   1.00
C2     C     0.33002   0.41997   0.74999   0.00000  Uiso   1.00
C3     C     0.46709   0.31956   0.02102   0.00000  Uiso   1.00
C4     C     0.31255   0.04718   0.97856   0.00000  Uiso   1.00
C5     C     0.18534   0.46225   0.02106   0.00000  Uiso   1.00
C6     C     0.47056   0.32068   0.98011   0.00000  Uiso   1.00
C7     C     0.03290   0.18029   0.02078   0.00000  Uiso   1.00
C8     C     0.46767   0.32080   0.40056   0.00000  Uiso   1.00
C9     C     0.00672   0.34412   0.38575   0.00000  Uiso   1.00
C10    C     0.03830   0.17789   0.60366   0.00000  Uiso   1.00
C11    C     0.00165   0.15219   0.62012   0.00000  Uiso   1.00
C12    C     0.17887   0.46830   0.40042   0.00000  Uiso   1.00
C13    C     0.41998   0.16998   0.24999   0.00000  Uiso   1.00
C14    C     0.15578   0.00756   0.38583   0.00000  Uiso   1.00
C15    C     0.32202   0.03839   0.60373   0.00000  Uiso   1.00
C16    C     0.34777   0.00177   0.62018   0.00000  Uiso   1.00
C17    C     0.04023   0.17844   0.39403   0.00000  Uiso   1.00
C18    C     0.08597   0.18443   0.38064   0.00000  Uiso   1.00
C19    C     0.45865   0.31794   0.59994   0.00000  Uiso   1.00
C20    C     0.49449   0.34603   0.61453   0.00000  Uiso   1.00
C21    C     0.32143   0.04041   0.39421   0.00000  Uiso   1.00
C22    C     0.31540   0.08613   0.38081   0.00000  Uiso   1.00
C23    C     0.18202   0.45861   0.59988   0.00000  Uiso   1.00
C24    C     0.08002   0.33003   0.75000   0.00000  Uiso   1.00
C25    C     0.15393   0.49444   0.61449   0.00000  Uiso   1.00
C26    C     0.29015   0.07117   0.89643   0.00000  Uiso   1.00
C27    C     0.25420   0.09768   0.87974   0.00000  Uiso   1.00
C28    C     0.21563   0.43015   0.09939   0.00000  Uiso   1.00
C29    C     0.25394   0.40583   0.11448   0.00000  Uiso   1.00
C30    C     0.43808   0.30216   0.89942   0.00000  Uiso   1.00
C31    C     0.40556   0.27149   0.88274   0.00000  Uiso   1.00
C32    C     0.06702   0.20522   0.10074   0.00000  Uiso   1.00
C33    C     0.09530   0.23956   0.11798   0.00000  Uiso   1.00
C34    C     0.20690   0.43310   0.90017   0.00000  Uiso   1.00
C35    C     0.33002   0.41998   0.24999   0.00000  Uiso   1.00
C36    C     0.24200   0.40420   0.88541   0.00000  Uiso   1.00
C37    C     0.29230   0.07045   0.10590   0.00000  Uiso   1.00
C38    C     0.33791   0.06326   0.11919   0.00000  Uiso   1.00
C39    C     0.06207   0.19798   0.89926   0.00000  Uiso   1.00
C40    C     0.09452   0.22869   0.88259   0.00000  Uiso   1.00
C41    C     0.43278   0.29434   0.10078   0.00000  Uiso   1.00
C42    C     0.40458   0.25983   0.11779   0.00000  Uiso   1.00
C43    C     0.08097   0.12231   0.47088   0.00000  Uiso   1.00
C44    C     0.37295   0.25704   0.55021   0.00000  Uiso   1.00
C45    C     0.37741   0.08130   0.47123   0.00000  Uiso   1.00
C46    C     0.16998   0.08002   0.75001   0.00000  Uiso   1.00
C47    C     0.24285   0.37307   0.54973   0.00000  Uiso   1.00
C48    C     0.38405   0.34321   0.45934   0.00000  Uiso   1.00
C49    C     0.12347   0.23001   0.55208   0.00000  Uiso   1.00
C50    C     0.15601   0.38474   0.45907   0.00000  Uiso   1.00
C51    C     0.26976   0.12353   0.55256   0.00000  Uiso   1.00
C52    C     0.12254   0.49623   0.95007   0.00000  Uiso   1.00
C53    C     0.33465   0.12533   0.02909   0.00000  Uiso   1.00
C54    C     0.48968   0.12319   0.94964   0.00000  Uiso   1.00
C55    C     0.42076   0.37857   0.04007   0.00000  Uiso   1.00
C56    C     0.37407   0.01671   0.94782   0.00000  Uiso   1.00
C57    C     0.08002   0.33001   0.25001   0.00000  Uiso   1.00
C58    C     0.13139   0.41014   0.04069   0.00000  Uiso   1.00
C59    C     0.01053   0.37686   0.95032   0.00000  Uiso   1.00
C60    C     0.07912   0.12114   0.03960   0.00000  Uiso   1.00
C61    C     0.41998   0.16998   0.74999   0.00000  Uiso   1.00
C62    C     0.16998   0.41997   0.74999   0.00000  Uiso   1.00
C63    C     0.33002   0.08003   0.25000   0.00000  Uiso   1.00
C64    C     0.41998   0.33002   0.75001   0.00000  Uiso   1.00
C65    C     0.24999   0.49994   0.64407   0.00000  Uiso   1.00
C66    C     0.08001   0.16997   0.25000   0.00000  Uiso   1.00
C67    C     0.33002   0.08001   0.75000   0.00000  Uiso   1.00
C68    C     0.16998   0.41999   0.25000   0.00000  Uiso   1.00
C69    C     0.08002   0.16999   0.75000   0.00000  Uiso   1.00
C70    C     0.41997   0.33001   0.25000   0.00000  Uiso   1.00
C71    C     0.13833   0.38834   0.25000   0.00000  Uiso   1.00
C72    C     0.36167   0.11166   0.75000   0.00000  Uiso   1.00
C73    C     0.11165   0.13832   0.25002   0.00000  Uiso   1.00
C74    C     0.38834   0.36167   0.75001   0.00000  Uiso   1.00
C75    C     0.36165   0.11167   0.25000   0.00000  Uiso   1.00
C76    C     0.00011   0.24935   0.35592   0.00000  Uiso   1.00
C77    C     0.13834   0.38833   0.74999   0.00000  Uiso   1.00
C78    C     0.38832   0.36165   0.24999   0.00000  Uiso   1.00
C79    C     0.11167   0.13834   0.75000   0.00000  Uiso   1.00
C80    C     0.13833   0.11167   0.75001   0.00000  Uiso   1.00
C81    C     0.36166   0.38833   0.24998   0.00000  Uiso   1.00
C82    C     0.11166   0.36167   0.75000   0.00000  Uiso   1.00
C83    C     0.38833   0.13833   0.24998   0.00000  Uiso   1.00
C84    C     0.36166   0.38833   0.74999   0.00000  Uiso   1.00
C85    C     0.13832   0.11166   0.25003   0.00000  Uiso   1.00
C86    C     0.38833   0.13833   0.74999   0.00000  Uiso   1.00
C87    C     0.49996   0.25000   0.64407   0.00000  Uiso   1.00
C88    C     0.11167   0.36166   0.25001   0.00000  Uiso   1.00
C89    C     0.47862   0.27866   0.41941   0.00000  Uiso   1.00
C90    C     0.02303   0.21719   0.58207   0.00000  Uiso   1.00
C91    C     0.22108   0.47894   0.41934   0.00000  Uiso   1.00
C92    C     0.28271   0.02308   0.58212   0.00000  Uiso   1.00
C93    C     0.02345   0.21547   0.41780   0.00000  Uiso   1.00
C94    C     0.47515   0.27780   0.58057   0.00000  Uiso   1.00
C95    C     0.28437   0.02362   0.41789   0.00000  Uiso   1.00
C96    C     0.22212   0.47515   0.58052   0.00000  Uiso   1.00
C97    C     0.27388   0.03221   0.91794   0.00000  Uiso   1.00
C98    C     0.00001   0.25002   0.85603   0.00000  Uiso   1.00
C99    C     0.22781   0.47198   0.08058   0.00000  Uiso   1.00
C100   C     0.47469   0.27928   0.91922   0.00000  Uiso   1.00
C101   C     0.02782   0.22313   0.08113   0.00000  Uiso   1.00
C102   C     0.22440   0.47287   0.91946   0.00000  Uiso   1.00
C103   C     0.27447   0.03386   0.08217   0.00000  Uiso   1.00
C104   C     0.02544   0.22083   0.91913   0.00000  Uiso   1.00
C105   C     0.47208   0.27661   0.08118   0.00000  Uiso   1.00
C106   C     0.00067   0.24768   0.39841   0.00000  Uiso   1.00
C107   C     0.49969   0.24858   0.60166   0.00000  Uiso   1.00
C108   C     0.25220   0.00081   0.39841   0.00000  Uiso   1.00
C109   C     0.49999   0.24997   0.14405   0.00000  Uiso   1.00
C110   C     0.25138   0.49966   0.60166   0.00000  Uiso   1.00
C111   C     0.24970   0.00144   0.89834   0.00000  Uiso   1.00
C112   C     0.25072   0.00233   0.10158   0.00000  Uiso   1.00
C113   C     0.00006   0.25006   0.89863   0.00000  Uiso   1.00
C114   C     0.49997   0.24990   0.10160   0.00000  Uiso   1.00
C115   C     0.02712   0.21742   0.45915   0.00000  Uiso   1.00
C116   C     0.46963   0.27091   0.54035   0.00000  Uiso   1.00
C117   C     0.28235   0.02734   0.45923   0.00000  Uiso   1.00
C118   C     0.22890   0.46974   0.54027   0.00000  Uiso   1.00
C119   C     0.47158   0.27198   0.45924   0.00000  Uiso   1.00
C120   C     0.24996   0.00000   0.85593   0.00000  Uiso   1.00
C121   C     0.02802   0.22096   0.54142   0.00000  Uiso   1.00
C122   C     0.22770   0.47187   0.45917   0.00000  Uiso   1.00
C123   C     0.27885   0.02816   0.54149   0.00000  Uiso   1.00
C124   C     0.21905   0.47994   0.95966   0.00000  Uiso   1.00
C125   C     0.27808   0.03179   0.04082   0.00000  Uiso   1.00
C126   C     0.01897   0.21650   0.95951   0.00000  Uiso   1.00
C127   C     0.47885   0.28228   0.04100   0.00000  Uiso   1.00
C128   C     0.27882   0.02826   0.95857   0.00000  Uiso   1.00
C129   C     0.22096   0.47886   0.04076   0.00000  Uiso   1.00
C130   C     0.48114   0.28352   0.95962   0.00000  Uiso   1.00
C131   C     0.25012   0.00069   0.14407   0.00000  Uiso   1.00
C132   C     0.02110   0.21752   0.04091   0.00000  Uiso   1.00
C133   C     0.49942   0.24500   0.47953   0.00000  Uiso   1.00
C134   C     0.49897   0.24547   0.52040   0.00000  Uiso   1.00
C135   C     0.25474   0.49965   0.47953   0.00000  Uiso   1.00
C136   C     0.25431   0.49914   0.52040   0.00000  Uiso   1.00
C137   C     0.24911   0.00456   0.97960   0.00000  Uiso   1.00
C138   C     0.24958   0.00502   0.02046   0.00000  Uiso   1.00
C139   C     0.00003   0.24998   0.97990   0.00000  Uiso   1.00
C140   C    -0.00000   0.24993   0.02058   0.00000  Uiso   1.00
C141   C     0.05767   0.19429   0.48104   0.00000  Uiso   1.00
C142   C     0.16997   0.08002   0.25002   0.00000  Uiso   1.00
C143   C     0.43473   0.28706   0.51982   0.00000  Uiso   1.00
C144   C     0.30545   0.05791   0.48120   0.00000  Uiso   1.00
C145   C     0.21267   0.43491   0.51964   0.00000  Uiso   1.00
C146   C     0.43643   0.28957   0.47895   0.00000  Uiso   1.00
C147   C     0.06118   0.20109   0.52139   0.00000  Uiso   1.00
C148   C     0.21002   0.43674   0.47879   0.00000  Uiso   1.00
C149   C     0.29865   0.06138   0.52154   0.00000  Uiso   1.00
C150   C     0.18373   0.46474   0.98019   0.00000  Uiso   1.00
C151   C     0.30929   0.05404   0.01891   0.00000  Uiso   1.00
C152   C     0.02952   0.17928   0.97985   0.00000  Uiso   1.00
H153   H     0.03135   0.34521   0.40862   0.00000  Uiso   1.00
H154   H     0.06067   0.18652   0.62706   0.00000  Uiso   1.00
H155   H     0.35242   0.34402   0.47308   0.00000  Uiso   1.00
H156   H     0.11915   0.16985   0.52970   0.00000  Uiso   1.00
H157   H     0.15198   0.22063   0.56859   0.00000  Uiso   1.00
H158   H     0.10425   0.25089   0.57090   0.00000  Uiso   1.00
H159   H     0.13341   0.24756   0.52576   0.00000  Uiso   1.00
H160   H     0.22160   0.37660   0.45737   0.00000  Uiso   1.00
H161   H     0.14332   0.38144   0.42925   0.00000  Uiso   1.00
H162   H     0.13542   0.40665   0.47564   0.00000  Uiso   1.00
H163   H     0.15503   0.35309   0.47273   0.00000  Uiso   1.00
H164   H     0.32977   0.11944   0.52992   0.00000  Uiso   1.00
H165   H     0.15463   0.03198   0.40891   0.00000  Uiso   1.00
H166   H     0.27917   0.15204   0.56910   0.00000  Uiso   1.00
H167   H     0.24904   0.10421   0.57142   0.00000  Uiso   1.00
H168   H     0.25201   0.13347   0.52635   0.00000  Uiso   1.00
H169   H     0.12598   0.43445   0.96984   0.00000  Uiso   1.00
H170   H     0.09435   0.48814   0.93253   0.00000  Uiso   1.00
H171   H     0.14278   0.01757   0.93265   0.00000  Uiso   1.00
H172   H     0.11218   0.01271   0.97686   0.00000  Uiso   1.00
H173   H     0.36996   0.07022   0.03535   0.00000  Uiso   1.00
H174   H     0.35465   0.14365   0.04942   0.00000  Uiso   1.00
H175   H     0.30141   0.13543   0.03293   0.00000  Uiso   1.00
H176   H     0.17090   0.02090   0.35966   0.00000  Uiso   1.00
H177   H     0.34437   0.13294   0.99904   0.00000  Uiso   1.00
H178   H     0.05133   0.11790   0.96932   0.00000  Uiso   1.00
H179   H     0.49364   0.09418   0.93200   0.00000  Uiso   1.00
H180   H     0.47127   0.14624   0.93234   0.00000  Uiso   1.00
H181   H     0.47204   0.11516   0.97645   0.00000  Uiso   1.00
H182   H     0.48682   0.37783   0.04169   0.00000  Uiso   1.00
H183   H     0.40858   0.38403   0.06981   0.00000  Uiso   1.00
H184   H     0.39742   0.35941   0.02371   0.00000  Uiso   1.00
H185   H     0.42408   0.40985   0.02601   0.00000  Uiso   1.00
H186   H     0.37128   0.07697   0.97012   0.00000  Uiso   1.00
H187   H     0.12296   0.49907   0.37786   0.00000  Uiso   1.00
H188   H     0.40277   0.02537   0.93125   0.00000  Uiso   1.00
H189   H     0.35429   0.49626   0.92907   0.00000  Uiso   1.00
H190   H     0.38363   0.49896   0.97415   0.00000  Uiso   1.00
H191   H     0.12564   0.47600   0.04242   0.00000  Uiso   1.00
H192   H     0.12757   0.39767   0.07053   0.00000  Uiso   1.00
H193   H     0.15259   0.38872   0.02423   0.00000  Uiso   1.00
H194   H     0.09977   0.41027   0.02693   0.00000  Uiso   1.00
H195   H     0.44881   0.38209   0.96983   0.00000  Uiso   1.00
H196   H     0.00665   0.40593   0.93281   0.00000  Uiso   1.00
H197   H     0.02900   0.35387   0.93297   0.00000  Uiso   1.00
H198   H     0.18310   0.44526   0.37651   0.00000  Uiso   1.00
H199   H     0.02806   0.38479   0.97724   0.00000  Uiso   1.00
H200   H     0.01307   0.12200   0.04119   0.00000  Uiso   1.00
H201   H     0.09128   0.11558   0.06932   0.00000  Uiso   1.00
H202   H     0.10251   0.14030   0.02334   0.00000  Uiso   1.00
H203   H     0.07576   0.08990   0.02541   0.00000  Uiso   1.00
H204   H     0.15697   0.45454   0.42167   0.00000  Uiso   1.00
H205   H     0.33129   0.48598   0.64443   0.00000  Uiso   1.00
H206   H     0.35448   0.47832   0.59705   0.00000  Uiso   1.00
H207   H     0.37820   0.01385   0.63153   0.00000  Uiso   1.00
H208   H     0.34420   0.05512   0.58441   0.00000  Uiso   1.00
H209   H     0.01984   0.32922   0.35936   0.00000  Uiso   1.00
H210   H     0.31341   0.06077   0.62714   0.00000  Uiso   1.00
H211   H     0.10335   0.15423   0.38329   0.00000  Uiso   1.00
H212   H     0.08717   0.19383   0.34976   0.00000  Uiso   1.00
H213   H     0.10251   0.20885   0.39798   0.00000  Uiso   1.00
H214   H     0.03639   0.14876   0.41029   0.00000  Uiso   1.00
H215   H     0.02021   0.17262   0.36816   0.00000  Uiso   1.00
H216   H     0.01137   0.33158   0.63927   0.00000  Uiso   1.00
H217   H     0.01722   0.35229   0.59074   0.00000  Uiso   1.00
H218   H     0.48141   0.37658   0.62460   0.00000  Uiso   1.00
H219   H     0.44090   0.33799   0.57944   0.00000  Uiso   1.00
H220   H     0.49805   0.37695   0.37807   0.00000  Uiso   1.00
H221   H     0.43683   0.31018   0.62402   0.00000  Uiso   1.00
H222   H     0.34558   0.10356   0.38352   0.00000  Uiso   1.00
H223   H     0.30604   0.08729   0.34991   0.00000  Uiso   1.00
H224   H     0.29095   0.10266   0.39811   0.00000  Uiso   1.00
H225   H     0.35107   0.03664   0.41055   0.00000  Uiso   1.00
H226   H     0.32731   0.02038   0.36835   0.00000  Uiso   1.00
H227   H     0.16841   0.01137   0.63921   0.00000  Uiso   1.00
H228   H     0.14760   0.01714   0.59070   0.00000  Uiso   1.00
H229   H     0.12341   0.48133   0.62457   0.00000  Uiso   1.00
H230   H     0.16195   0.44083   0.57937   0.00000  Uiso   1.00
H231   H     0.44453   0.31643   0.37678   0.00000  Uiso   1.00
H232   H     0.18982   0.43681   0.62394   0.00000  Uiso   1.00
H233   H     0.23822   0.08152   0.85538   0.00000  Uiso   1.00
H234   H     0.23076   0.10493   0.90271   0.00000  Uiso   1.00
H235   H     0.26701   0.12782   0.86848   0.00000  Uiso   1.00
H236   H     0.30721   0.09300   0.91588   0.00000  Uiso   1.00
H237   H     0.31252   0.06207   0.87318   0.00000  Uiso   1.00
H238   H     0.27874   0.40414   0.09180   0.00000  Uiso   1.00
H239   H     0.26719   0.42037   0.14099   0.00000  Uiso   1.00
H240   H     0.24435   0.37322   0.12207   0.00000  Uiso   1.00
H241   H     0.19240   0.43511   0.12300   0.00000  Uiso   1.00
H242   H     0.45390   0.34264   0.42190   0.00000  Uiso   1.00
H243   H     0.20146   0.40866   0.07795   0.00000  Uiso   1.00
H244   H     0.41802   0.25409   0.85737   0.00000  Uiso   1.00
H245   H     0.39558   0.24862   0.90530   0.00000  Uiso   1.00
H246   H     0.37741   0.28931   0.87296   0.00000  Uiso   1.00
H247   H     0.42006   0.32170   0.92021   0.00000  Uiso   1.00
H248   H     0.44966   0.32384   0.87661   0.00000  Uiso   1.00
H249   H     0.10076   0.26494   0.09640   0.00000  Uiso   1.00
H250   H     0.08162   0.25333   0.14466   0.00000  Uiso   1.00
H251   H     0.12623   0.22572   0.12596   0.00000  Uiso   1.00
H252   H     0.05834   0.18182   0.12324   0.00000  Uiso   1.00
H253   H     0.48584   0.16871   0.64437   0.00000  Uiso   1.00
H254   H     0.08734   0.18935   0.07934   0.00000  Uiso   1.00
H255   H     0.22818   0.37391   0.87550   0.00000  Uiso   1.00
H256   H     0.25901   0.41822   0.86053   0.00000  Uiso   1.00
H257   H     0.26478   0.39751   0.90907   0.00000  Uiso   1.00
H258   H     0.18884   0.41346   0.92079   0.00000  Uiso   1.00
H259   H     0.18509   0.44130   0.87622   0.00000  Uiso   1.00
H260   H     0.35617   0.09291   0.11617   0.00000  Uiso   1.00
H261   H     0.33900   0.05423   0.15018   0.00000  Uiso   1.00
H262   H     0.35364   0.03816   0.10204   0.00000  Uiso   1.00
H263   H     0.28921   0.10020   0.08963   0.00000  Uiso   1.00
H264   H     0.47822   0.14544   0.59700   0.00000  Uiso   1.00
H265   H     0.27251   0.07682   0.13181   0.00000  Uiso   1.00
H266   H     0.08201   0.24603   0.85724   0.00000  Uiso   1.00
H267   H     0.10448   0.25161   0.90516   0.00000  Uiso   1.00
H268   H     0.12270   0.21091   0.87278   0.00000  Uiso   1.00
H269   H     0.08014   0.17851   0.92002   0.00000  Uiso   1.00
H270   H     0.05050   0.17627   0.87643   0.00000  Uiso   1.00
H271   H     0.39914   0.23459   0.09602   0.00000  Uiso   1.00
H272   H     0.41833   0.24592   0.14435   0.00000  Uiso   1.00
H273   H     0.37364   0.27357   0.12591   0.00000  Uiso   1.00
H274   H     0.44131   0.31769   0.12342   0.00000  Uiso   1.00
H275   H     0.01369   0.12177   0.63148   0.00000  Uiso   1.00
H276   H     0.41246   0.31021   0.07941   0.00000  Uiso   1.00
H277   H     0.11782   0.17640   0.46450   0.00000  Uiso   1.00
H278   H     0.10047   0.10341   0.45060   0.00000  Uiso   1.00
H279   H     0.04747   0.11314   0.46703   0.00000  Uiso   1.00
H280   H     0.09044   0.11451   0.50096   0.00000  Uiso   1.00
H281   H     0.37761   0.31856   0.53002   0.00000  Uiso   1.00
H282   H     0.34494   0.26583   0.56771   0.00000  Uiso   1.00
H283   H     0.39276   0.23544   0.56777   0.00000  Uiso   1.00
H284   H     0.36224   0.24055   0.52354   0.00000  Uiso   1.00
H285   H     0.32330   0.11808   0.46473   0.00000  Uiso   1.00
H286   H     0.05502   0.15569   0.58433   0.00000  Uiso   1.00
H287   H     0.39632   0.10083   0.45102   0.00000  Uiso   1.00
H288   H     0.38663   0.04781   0.46737   0.00000  Uiso   1.00
H289   H     0.38516   0.09079   0.50134   0.00000  Uiso   1.00
H290   H     0.18129   0.37769   0.52960   0.00000  Uiso   1.00
H291   H     0.23415   0.34497   0.56710   0.00000  Uiso   1.00
H292   H     0.26446   0.39284   0.56737   0.00000  Uiso   1.00
H293   H     0.25929   0.36251   0.52299   0.00000  Uiso   1.00
H294   H     0.37633   0.27756   0.45769   0.00000  Uiso   1.00
H295   H     0.38061   0.35580   0.42951   0.00000  Uiso   1.00
H296   H     0.40587   0.36399   0.47581   0.00000  Uiso   1.00
N297   N     0.08688   0.16676   0.46271   0.00000  Uiso   1.00
N298   N     0.33930   0.08072   0.03722   0.00000  Uiso   1.00
N299   N     0.03060   0.14020   0.95937   0.00000  Uiso   1.00
N300   N     0.46136   0.35770   0.04243   0.00000  Uiso   1.00
N301   N     0.35152   0.05451   0.95876   0.00000  Uiso   1.00
N302   N     0.14816   0.45263   0.04270   0.00000  Uiso   1.00
N303   N     0.46956   0.35982   0.95981   0.00000  Uiso   1.00
N304   N     0.03856   0.14208   0.04202   0.00000  Uiso   1.00
N305   N     0.39627   0.29459   0.54012   0.00000  Uiso   1.00
N306   N     0.33297   0.08715   0.46295   0.00000  Uiso   1.00
N307   N     0.20524   0.39637   0.53979   0.00000  Uiso   1.00
N308   N     0.39955   0.30025   0.45732   0.00000  Uiso   1.00
N309   N     0.09998   0.19278   0.54112   0.00000  Uiso   1.00
N310   N     0.19907   0.39997   0.45705   0.00000  Uiso   1.00
N311   N     0.30697   0.10017   0.54137   0.00000  Uiso   1.00
N312   N     0.14511   0.45814   0.95988   0.00000  Uiso   1.00
O313   O     0.25000   0.00000   0.25000   0.00000  Uiso   1.00
O314   O     0.25000   0.46539   0.66251   0.00000  Uiso   1.00
O315   O     0.46539   0.25000   0.33749   0.00000  Uiso   1.00
O316   O     0.03462   0.25000   0.66251   0.00000  Uiso   1.00
O317   O     0.00000   0.21539   0.83749   0.00000  Uiso   1.00
O318   O     0.00000   0.28462   0.16251   0.00000  Uiso   1.00
O319   O     0.28462   0.00000   0.83749   0.00000  Uiso   1.00
O320   O     0.21539   0.00000   0.16251   0.00000  Uiso   1.00
O321   O     0.00000   0.28462   0.83749   0.00000  Uiso   1.00
O322   O     0.00000   0.21539   0.16251   0.00000  Uiso   1.00
O323   O     0.21539   0.00000   0.83749   0.00000  Uiso   1.00
O324   O     0.25000   0.00000   0.75000   0.00000  Uiso   1.00
O325   O     0.28462   0.00000   0.16251   0.00000  Uiso   1.00
O326   O     0.20127   0.08332   0.27298   0.00000  Uiso   1.00
O327   O     0.29874   0.41668   0.72702   0.00000  Uiso   1.00
O328   O     0.41668   0.20127   0.27298   0.00000  Uiso   1.00
O329   O     0.08332   0.29874   0.72702   0.00000  Uiso   1.00
O330   O     0.29874   0.41668   0.27298   0.00000  Uiso   1.00
O331   O     0.20127   0.08332   0.72702   0.00000  Uiso   1.00
O332   O     0.08332   0.29874   0.27298   0.00000  Uiso   1.00
O333   O     0.41668   0.20127   0.72702   0.00000  Uiso   1.00
O334   O     0.20127   0.41668   0.72702   0.00000  Uiso   1.00
O335   O     0.00000   0.25000   0.25000   0.00000  Uiso   1.00
O336   O     0.29874   0.08332   0.27298   0.00000  Uiso   1.00
O337   O     0.41668   0.29874   0.72702   0.00000  Uiso   1.00
O338   O     0.08332   0.20127   0.27298   0.00000  Uiso   1.00
O339   O     0.29874   0.08332   0.72702   0.00000  Uiso   1.00
O340   O     0.20127   0.41668   0.27298   0.00000  Uiso   1.00
O341   O     0.08332   0.20127   0.72702   0.00000  Uiso   1.00
O342   O     0.41668   0.29874   0.27298   0.00000  Uiso   1.00
O343   O     0.45127   0.33332   0.77298   0.00000  Uiso   1.00
O344   O     0.04874   0.16668   0.22702   0.00000  Uiso   1.00
O345   O     0.16668   0.45127   0.77298   0.00000  Uiso   1.00
O346   O     0.00000   0.25000   0.75000   0.00000  Uiso   1.00
O347   O     0.33332   0.04874   0.22702   0.00000  Uiso   1.00
O348   O     0.04874   0.16668   0.77298   0.00000  Uiso   1.00
O349   O     0.45127   0.33332   0.22702   0.00000  Uiso   1.00
O350   O     0.33332   0.04874   0.77298   0.00000  Uiso   1.00
O351   O     0.16668   0.45127   0.22702   0.00000  Uiso   1.00
O352   O     0.45127   0.16668   0.22702   0.00000  Uiso   1.00
O353   O     0.04874   0.33332   0.77298   0.00000  Uiso   1.00
O354   O     0.16668   0.04874   0.22702   0.00000  Uiso   1.00
O355   O     0.33332   0.45127   0.77298   0.00000  Uiso   1.00
O356   O     0.04874   0.33332   0.22702   0.00000  Uiso   1.00
O357   O     0.25000   0.46539   0.33749   0.00000  Uiso   1.00
O358   O     0.45127   0.16668   0.77298   0.00000  Uiso   1.00
O359   O     0.33332   0.45127   0.22702   0.00000  Uiso   1.00
O360   O     0.16668   0.04874   0.77298   0.00000  Uiso   1.00
O361   O     0.25000   0.03462   0.66251   0.00000  Uiso   1.00
O362   O     0.03462   0.25000   0.33749   0.00000  Uiso   1.00
O363   O     0.46539   0.25000   0.66251   0.00000  Uiso   1.00
O364   O     0.25000   0.03462   0.33749   0.00000  Uiso   1.00
Zn365  Zn    0.20053   0.00000   0.21730   0.00000  Uiso   1.00
Zn366  Zn    0.04948   0.25000   0.28270   0.00000  Uiso   1.00
Zn367  Zn    0.25000   0.45053   0.71730   0.00000  Uiso   1.00
Zn368  Zn    0.25000   0.04948   0.28270   0.00000  Uiso   1.00
Zn369  Zn    0.04948   0.25000   0.71730   0.00000  Uiso   1.00
Zn370  Zn    0.45053   0.25000   0.28270   0.00000  Uiso   1.00
Zn371  Zn    0.25000   0.04948   0.71730   0.00000  Uiso   1.00
Zn372  Zn    0.25000   0.45053   0.28270   0.00000  Uiso   1.00
Zn373  Zn    0.29948   0.00000   0.78270   0.00000  Uiso   1.00
Zn374  Zn    0.00000   0.20053   0.21730   0.00000  Uiso   1.00
Zn375  Zn    0.00000   0.29948   0.78270   0.00000  Uiso   1.00
Zn376  Zn    0.29948   0.00000   0.21730   0.00000  Uiso   1.00
Zn377  Zn    0.20053   0.00000   0.78270   0.00000  Uiso   1.00
Zn378  Zn    0.00000   0.29948   0.21730   0.00000  Uiso   1.00
Zn379  Zn    0.00000   0.20053   0.78270   0.00000  Uiso   1.00
Zn380  Zn    0.45053   0.25000   0.71730   0.00000  Uiso   1.00
C381   C     0.75062   0.00014   0.35593   0.00000  Uiso   1.00
C382   C     0.83002   0.41997   0.74999   0.00000  Uiso   1.00
C383   C     0.96709   0.31956   0.02102   0.00000  Uiso   1.00
C384   C     0.81255   0.04718   0.97856   0.00000  Uiso   1.00
C385   C     0.68534   0.46225   0.02106   0.00000  Uiso   1.00
C386   C     0.97056   0.32068   0.98011   0.00000  Uiso   1.00
C387   C     0.53290   0.18029   0.02078   0.00000  Uiso   1.00
C388   C     0.96767   0.32080   0.40056   0.00000  Uiso   1.00
C389   C     0.50672   0.34412   0.38575   0.00000  Uiso   1.00
C390   C     0.53830   0.17789   0.60366   0.00000  Uiso   1.00
C391   C     0.50165   0.15219   0.62012   0.00000  Uiso   1.00
C392   C     0.67887   0.46830   0.40042   0.00000  Uiso   1.00
C393   C     0.91998   0.16998   0.24999   0.00000  Uiso   1.00
C394   C     0.65578   0.00756   0.38583   0.00000  Uiso   1.00
C395   C     0.82202   0.03839   0.60373   0.00000  Uiso   1.00
C396   C     0.84777   0.00177   0.62018   0.00000  Uiso   1.00
C397   C     0.54023   0.17844   0.39403   0.00000  Uiso   1.00
C398   C     0.58597   0.18443   0.38064   0.00000  Uiso   1.00
C399   C     0.95865   0.31794   0.59994   0.00000  Uiso   1.00
C400   C     0.99449   0.34603   0.61453   0.00000  Uiso   1.00
C401   C     0.82143   0.04041   0.39421   0.00000  Uiso   1.00
C402   C     0.81540   0.08613   0.38081   0.00000  Uiso   1.00
C403   C     0.68202   0.45861   0.59988   0.00000  Uiso   1.00
C404   C     0.58002   0.33003   0.75000   0.00000  Uiso   1.00
C405   C     0.65393   0.49444   0.61449   0.00000  Uiso   1.00
C406   C     0.79015   0.07117   0.89643   0.00000  Uiso   1.00
C407   C     0.75420   0.09768   0.87974   0.00000  Uiso   1.00
C408   C     0.71563   0.43015   0.09939   0.00000  Uiso   1.00
C409   C     0.75394   0.40583   0.11448   0.00000  Uiso   1.00
C410   C     0.93808   0.30216   0.89942   0.00000  Uiso   1.00
C411   C     0.90556   0.27149   0.88274   0.00000  Uiso   1.00
C412   C     0.56702   0.20522   0.10074   0.00000  Uiso   1.00
C413   C     0.59530   0.23956   0.11798   0.00000  Uiso   1.00
C414   C     0.70690   0.43310   0.90017   0.00000  Uiso   1.00
C415   C     0.83002   0.41998   0.24999   0.00000  Uiso   1.00
C416   C     0.74200   0.40420   0.88541   0.00000  Uiso   1.00
C417   C     0.79230   0.07045   0.10590   0.00000  Uiso   1.00
C418   C     0.83791   0.06326   0.11919   0.00000  Uiso   1.00
C419   C     0.56207   0.19798   0.89926   0.00000  Uiso   1.00
C420   C     0.59452   0.22869   0.88259   0.00000  Uiso   1.00
C421   C     0.93278   0.29434   0.10078   0.00000  Uiso   1.00
C422   C     0.90458   0.25983   0.11779   0.00000  Uiso   1.00
C423   C     0.58097   0.12231   0.47088   0.00000  Uiso   1.00
C424   C     0.87295   0.25704   0.55021   0.00000  Uiso   1.00
C425   C     0.87741   0.08130   0.47123   0.00000  Uiso   1.00
C426   C     0.66998   0.08002   0.75001   0.00000  Uiso   1.00
C427   C     0.74285   0.37307   0.54973   0.00000  Uiso   1.00
C428   C     0.88405   0.34321   0.45934   0.00000  Uiso   1.00
C429   C     0.62347   0.23001   0.55208   0.00000  Uiso   1.00
C430   C     0.65601   0.38474   0.45907   0.00000  Uiso   1.00
C431   C     0.76976   0.12353   0.55256   0.00000  Uiso   1.00
C432   C     0.62254   0.49623   0.95007   0.00000  Uiso   1.00
C433   C     0.83465   0.12533   0.02909   0.00000  Uiso   1.00
C434   C     0.98968   0.12319   0.94964   0.00000  Uiso   1.00
C435   C     0.92076   0.37857   0.04007   0.00000  Uiso   1.00
C436   C     0.87407   0.01671   0.94782   0.00000  Uiso   1.00
C437   C     0.58002   0.33001   0.25001   0.00000  Uiso   1.00
C438   C     0.63139   0.41014   0.04069   0.00000  Uiso   1.00
C439   C     0.51053   0.37686   0.95032   0.00000  Uiso   1.00
C440   C     0.57912   0.12114   0.03960   0.00000  Uiso   1.00
C441   C     0.91998   0.16998   0.74999   0.00000  Uiso   1.00
C442   C     0.66998   0.41997   0.74999   0.00000  Uiso   1.00
C443   C     0.83002   0.08003   0.25000   0.00000  Uiso   1.00
C444   C     0.91998   0.33002   0.75001   0.00000  Uiso   1.00
C445   C     0.74999   0.49994   0.64407   0.00000  Uiso   1.00
C446   C     0.58001   0.16997   0.25000   0.00000  Uiso   1.00
C447   C     0.83002   0.08001   0.75000   0.00000  Uiso   1.00
C448   C     0.66998   0.41999   0.25000   0.00000  Uiso   1.00
C449   C     0.58002   0.16999   0.75000   0.00000  Uiso   1.00
C450   C     0.91997   0.33001   0.25000   0.00000  Uiso   1.00
C451   C     0.63833   0.38834   0.25000   0.00000  Uiso   1.00
C452   C     0.86167   0.11166   0.75000   0.00000  Uiso   1.00
C453   C     0.61165   0.13832   0.25002   0.00000  Uiso   1.00
C454   C     0.88834   0.36167   0.75001   0.00000  Uiso   1.00
C455   C     0.86165   0.11167   0.25000   0.00000  Uiso   1.00
C456   C     0.50011   0.24935   0.35592   0.00000  Uiso   1.00
C457   C     0.63834   0.38833   0.74999   0.00000  Uiso   1.00
C458   C     0.88832   0.36165   0.24999   0.00000  Uiso   1.00
C459   C     0.61167   0.13834   0.75000   0.00000  Uiso   1.00
C460   C     0.63833   0.11167   0.75001   0.00000  Uiso   1.00
C461   C     0.86166   0.38833   0.24998   0.00000  Uiso   1.00
C462   C     0.61166   0.36167   0.75000   0.00000  Uiso   1.00
C463   C     0.88833   0.13833   0.24998   0.00000  Uiso   1.00
C464   C     0.86166   0.38833   0.74999   0.00000  Uiso   1.00
C465   C     0.63832   0.11166   0.25003   0.00000  Uiso   1.00
C466   C     0.88833   0.13833   0.74999   0.00000  Uiso   1.00
C467   C     0.99996   0.25000   0.64407   0.00000  Uiso   1.00
C468   C     0.61167   0.36166   0.25001   0.00000  Uiso   1.00
C469   C     0.97862   0.27866   0.41941   0.00000  Uiso   1.00
C470   C     0.52303   0.21719   0.58207   0.00000  Uiso   1.00
C471   C     0.72108   0.47894   0.41934   0.00000  Uiso   1.00
C472   C     0.78271   0.02308   0.58212   0.00000  Uiso   1.00
C473   C     0.52345   0.21547   0.41780   0.00000  Uiso   1.00
C474   C     0.97515   0.27780   0.58057   0.00000  Uiso   1.00
C475   C     0.78437   0.02362   0.41789   0.00000  Uiso   1.00
C476   C     0.72212   0.47515   0.58052   0.00000  Uiso   1.00
C477   C     0.77388   0.03221   0.91794   0.00000  Uiso   1.00
C478   C     0.50001   0.25002   0.85603   0.00000  Uiso   1.00
C479   C     0.72781   0.47198   0.08058   0.00000  Uiso   1.00
C480   C     0.97469   0.27928   0.91922   0.00000  Uiso   1.00
C481   C     0.52782   0.22313   0.08113   0.00000  Uiso   1.00
C482   C     0.72440   0.47287   0.91946   0.00000  Uiso   1.00
C483   C     0.77447   0.03386   0.08217   0.00000  Uiso   1.00
C484   C     0.52544   0.22083   0.91913   0.00000  Uiso   1.00
C485   C     0.97208   0.27661   0.08118   0.00000  Uiso   1.00
C486   C     0.50067   0.24768   0.39841   0.00000  Uiso   1.00
C487   C     0.99969   0.24858   0.60166   0.00000  Uiso   1.00
C488   C     0.75220   0.00081   0.39841   0.00000  Uiso   1.00
C489   C     0.99999   0.24997   0.14405   0.00000  Uiso   1.00
C490   C     0.75138   0.49966   0.60166   0.00000  Uiso   1.00
C491   C     0.74970   0.00144   0.89834   0.00000  Uiso   1.00
C492   C     0.75072   0.00233   0.10158   0.00000  Uiso   1.00
C493   C     0.50006   0.25006   0.89863   0.00000  Uiso   1.00
C494   C     0.99997   0.24990   0.10160   0.00000  Uiso   1.00
C495   C     0.52712   0.21742   0.45915   0.00000  Uiso   1.00
C496   C     0.96963   0.27091   0.54035   0.00000  Uiso   1.00
C497   C     0.78235   0.02734   0.45923   0.00000  Uiso   1.00
C498   C     0.72890   0.46974   0.54027   0.00000  Uiso   1.00
C499   C     0.97158   0.27198   0.45924   0.00000  Uiso   1.00
C500   C     0.74996   0.00000   0.85593   0.00000  Uiso   1.00
C501   C     0.52802   0.22096   0.54142   0.00000  Uiso   1.00
C502   C     0.72770   0.47187   0.45917   0.00000  Uiso   1.00
C503   C     0.77885   0.02816   0.54149   0.00000  Uiso   1.00
C504   C     0.71905   0.47994   0.95966   0.00000  Uiso   1.00
C505   C     0.77808   0.03179   0.04082   0.00000  Uiso   1.00
C506   C     0.51897   0.21650   0.95951   0.00000  Uiso   1.00
C507   C     0.97885   0.28228   0.04100   0.00000  Uiso   1.00
C508   C     0.77882   0.02826   0.95857   0.00000  Uiso   1.00
C509   C     0.72096   0.47886   0.04076   0.00000  Uiso   1.00
C510   C     0.98114   0.28352   0.95962   0.00000  Uiso   1.00
C511   C     0.75012   0.00069   0.14407   0.00000  Uiso   1.00
C512   C     0.52110   0.21752   0.04091   0.00000  Uiso   1.00
C513   C     0.99942   0.24500   0.47953   0.00000  Uiso   1.00
C514   C     0.99897   0.24547   0.52040   0.00000  Uiso   1.00
C515   C     0.75474   0.49965   0.47953   0.00000  Uiso   1.00
C516   C     0.75431   0.49914   0.52040   0.00000  Uiso   1.00
C517   C     0.74911   0.00456   0.97960   0.00000  Uiso   1.00
C518   C     0.74958   0.00502   0.02046   0.00000  Uiso   1.00
C519   C     0.50003   0.24998   0.97990   0.00000  Uiso   1.00
C520   C     0.50000   0.24993   0.02058   0.00000  Uiso   1.00
C521   C     0.55767   0.19429   0.48104   0.00000  Uiso   1.00
C522   C     0.66997   0.08002   0.25002   0.00000  Uiso   1.00
C523   C     0.93473   0.28706   0.51982   0.00000  Uiso   1.00
C524   C     0.80545   0.05791   0.48120   0.00000  Uiso   1.00
C525   C     0.71267   0.43491   0.51964   0.00000  Uiso   1.00
C526   C     0.93643   0.28957   0.47895   0.00000  Uiso   1.00
C527   C     0.56118   0.20109   0.52139   0.00000  Uiso   1.00
C528   C     0.71002   0.43674   0.47879   0.00000  Uiso   1.00
C529   C     0.79865   0.06138   0.52154   0.00000  Uiso   1.00
C530   C     0.68373   0.46474   0.98019   0.00000  Uiso   1.00
C531   C     0.80929   0.05404   0.01891   0.00000  Uiso   1.00
C532   C     0.52952   0.17928   0.97985   0.00000  Uiso   1.00
H533   H     0.53135   0.34521   0.40862   0.00000  Uiso   1.00
H534   H     0.56067   0.18652   0.62706   0.00000  Uiso   1.00
H535   H     0.85242   0.34402   0.47308   0.00000  Uiso   1.00
H536   H     0.61915   0.16985   0.52970   0.00000  Uiso   1.00
H537   H     0.65198   0.22063   0.56859   0.00000  Uiso   1.00
H538   H     0.60425   0.25089   0.57090   0.00000  Uiso   1.00
H539   H     0.63341   0.24756   0.52576   0.00000  Uiso   1.00
H540   H     0.72160   0.37660   0.45737   0.00000  Uiso   1.00
H541   H     0.64332   0.38144   0.42925   0.00000  Uiso   1.00
H542   H     0.63542   0.40665   0.47564   0.00000  Uiso   1.00
H543   H     0.65503   0.35309   0.47273   0.00000  Uiso   1.00
H544   H     0.82977   0.11944   0.52992   0.00000  Uiso   1.00
H545   H     0.65463   0.03198   0.40891   0.00000  Uiso   1.00
H546   H     0.77917   0.15204   0.56910   0.00000  Uiso   1.00
H547   H     0.74904   0.10421   0.57142   0.00000  Uiso   1.00
H548   H     0.75201   0.13347   0.52635   0.00000  Uiso   1.00
H549   H     0.62598   0.43445   0.96984   0.00000  Uiso   1.00
H550   H     0.59435   0.48814   0.93253   0.00000  Uiso   1.00
H551   H     0.64278   0.01757   0.93265   0.00000  Uiso   1.00
H552   H     0.61218   0.01271   0.97686   0.00000  Uiso   1.00
H553   H     0.86996   0.07022   0.03535   0.00000  Uiso   1.00
H554   H     0.85465   0.14365   0.04942   0.00000  Uiso   1.00
H555   H     0.80141   0.13543   0.03293   0.00000  Uiso   1.00
H556   H     0.67090   0.02090   0.35966   0.00000  Uiso   1.00
H557   H     0.84437   0.13294   0.99904   0.00000  Uiso   1.00
H558   H     0.55133   0.11790   0.96932   0.00000  Uiso   1.00
H559   H     0.99364   0.09418   0.93200   0.00000  Uiso   1.00
H560   H     0.97127   0.14624   0.93234   0.00000  Uiso   1.00
H561   H     0.97204   0.11516   0.97645   0.00000  Uiso   1.00
H562   H     0.98682   0.37783   0.04169   0.00000  Uiso   1.00
H563   H     0.90858   0.38403   0.06981   0.00000  Uiso   1.00
H564   H     0.89742   0.35941   0.02371   0.00000  Uiso   1.00
H565   H     0.92408   0.40985   0.02601   0.00000  Uiso   1.00
H566   H     0.87128   0.07697   0.97012   0.00000  Uiso   1.00
H567   H     0.62296   0.49907   0.37786   0.00000  Uiso   1.00
H568   H     0.90277   0.02537   0.93125   0.00000  Uiso   1.00
H569   H     0.85429   0.49626   0.92907   0.00000  Uiso   1.00
H570   H     0.88363   0.49896   0.97415   0.00000  Uiso   1.00
H571   H     0.62564   0.47600   0.04242   0.00000  Uiso   1.00
H572   H     0.62757   0.39767   0.07053   0.00000  Uiso   1.00
H573   H     0.65259   0.38872   0.02423   0.00000  Uiso   1.00
H574   H     0.59977   0.41027   0.02693   0.00000  Uiso   1.00
H575   H     0.94881   0.38209   0.96983   0.00000  Uiso   1.00
H576   H     0.50665   0.40593   0.93281   0.00000  Uiso   1.00
H577   H     0.52900   0.35387   0.93297   0.00000  Uiso   1.00
H578   H     0.68310   0.44526   0.37651   0.00000  Uiso   1.00
H579   H     0.52806   0.38479   0.97724   0.00000  Uiso   1.00
H580   H     0.51307   0.12200   0.04119   0.00000  Uiso   1.00
H581   H     0.59128   0.11558   0.06932   0.00000  Uiso   1.00
H582   H     0.60251   0.14030   0.02334   0.00000  Uiso   1.00
H583   H     0.57576   0.08990   0.02541   0.00000  Uiso   1.00
H584   H     0.65697   0.45454   0.42167   0.00000  Uiso   1.00
H585   H     0.83129   0.48598   0.64443   0.00000  Uiso   1.00
H586   H     0.85448   0.47832   0.59705   0.00000  Uiso   1.00
H587   H     0.87820   0.01385   0.63153   0.00000  Uiso   1.00
H588   H     0.84420   0.05512   0.58441   0.00000  Uiso   1.00
H589   H     0.51984   0.32922   0.35936   0.00000  Uiso   1.00
H590   H     0.81341   0.06077   0.62714   0.00000  Uiso   1.00
H591   H     0.60335   0.15423   0.38329   0.00000  Uiso   1.00
H592   H     0.58717   0.19383   0.34976   0.00000  Uiso   1.00
H593   H     0.60251   0.20885   0.39798   0.00000  Uiso   1.00
H594   H     0.53639   0.14876   0.41029   0.00000  Uiso   1.00
H595   H     0.52021   0.17262   0.36816   0.00000  Uiso   1.00
H596   H     0.51137   0.33158   0.63927   0.00000  Uiso   1.00
H597   H     0.51722   0.35229   0.59074   0.00000  Uiso   1.00
H598   H     0.98141   0.37658   0.62460   0.00000  Uiso   1.00
H599   H     0.94090   0.33799   0.57944   0.00000  Uiso   1.00
H600   H     0.99805   0.37695   0.37807   0.00000  Uiso   1.00
H601   H     0.93683   0.31018   0.62402   0.00000  Uiso   1.00
H602   H     0.84558   0.10356   0.38352   0.00000  Uiso   1.00
H603   H     0.80604   0.08729   0.34991   0.00000  Uiso   1.00
H604   H     0.79095   0.10266   0.39811   0.00000  Uiso   1.00
H605   H     0.85107   0.03664   0.41055   0.00000  Uiso   1.00
H606   H     0.82731   0.02038   0.36835   0.00000  Uiso   1.00
H607   H     0.66841   0.01137   0.63921   0.00000  Uiso   1.00
H608   H     0.64760   0.01714   0.59070   0.00000  Uiso   1.00
H609   H     0.62341   0.48133   0.62457   0.00000  Uiso   1.00
H610   H     0.66195   0.44083   0.57937   0.00000  Uiso   1.00
H611   H     0.94453   0.31643   0.37678   0.00000  Uiso   1.00
H612   H     0.68982   0.43681   0.62394   0.00000  Uiso   1.00
H613   H     0.73822   0.08152   0.85538   0.00000  Uiso   1.00
H614   H     0.73076   0.10493   0.90271   0.00000  Uiso   1.00
H615   H     0.76701   0.12782   0.86848   0.00000  Uiso   1.00
H616   H     0.80721   0.09300   0.91588   0.00000  Uiso   1.00
H617   H     0.81252   0.06207   0.87318   0.00000  Uiso   1.00
H618   H     0.77874   0.40414   0.09180   0.00000  Uiso   1.00
H619   H     0.76719   0.42037   0.14099   0.00000  Uiso   1.00
H620   H     0.74435   0.37322   0.12207   0.00000  Uiso   1.00
H621   H     0.69240   0.43511   0.12300   0.00000  Uiso   1.00
H622   H     0.95390   0.34264   0.42190   0.00000  Uiso   1.00
H623   H     0.70146   0.40866   0.07795   0.00000  Uiso   1.00
H624   H     0.91802   0.25409   0.85737   0.00000  Uiso   1.00
H625   H     0.89558   0.24862   0.90530   0.00000  Uiso   1.00
H626   H     0.87741   0.28931   0.87296   0.00000  Uiso   1.00
H627   H     0.92006   0.32170   0.92021   0.00000  Uiso   1.00
H628   H     0.94966   0.32384   0.87661   0.00000  Uiso   1.00
H629   H     0.60076   0.26494   0.09640   0.00000  Uiso   1.00
H630   H     0.58162   0.25333   0.14466   0.00000  Uiso   1.00
H631   H     0.62623   0.22572   0.12596   0.00000  Uiso   1.00
H632   H     0.55834   0.18182   0.12324   0.00000  Uiso   1.00
H633   H     0.98584   0.16871   0.64437   0.00000  Uiso   1.00
H634   H     0.58734   0.18935   0.07934   0.00000  Uiso   1.00
H635   H     0.72818   0.37391   0.87550   0.00000  Uiso   1.00
H636   H     0.75901   0.41822   0.86053   0.00000  Uiso   1.00
H637   H     0.76478   0.39751   0.90907   0.00000  Uiso   1.00
H638   H     0.68884   0.41346   0.92079   0.00000  Uiso   1.00
H639   H     0.68509   0.44130   0.87622   0.00000  Uiso   1.00
H640   H     0.85617   0.09291   0.11617   0.00000  Uiso   1.00
H641   H     0.83900   0.05423   0.15018   0.00000  Uiso   1.00
H642   H     0.85364   0.03816   0.10204   0.00000  Uiso   1.00
H643   H     0.78921   0.10020   0.08963   0.00000  Uiso   1.00
H644   H     0.97822   0.14544   0.59700   0.00000  Uiso   1.00
H645   H     0.77251   0.07682   0.13181   0.00000  Uiso   1.00
H646   H     0.58201   0.24603   0.85724   0.00000  Uiso   1.00
H647   H     0.60448   0.25161   0.90516   0.00000  Uiso   1.00
H648   H     0.62270   0.21091   0.87278   0.00000  Uiso   1.00
H649   H     0.58014   0.17851   0.92002   0.00000  Uiso   1.00
H650   H     0.55050   0.17627   0.87643   0.00000  Uiso   1.00
H651   H     0.89914   0.23459   0.09602   0.00000  Uiso   1.00
H652   H     0.91833   0.24592   0.14435   0.00000  Uiso   1.00
H653   H     0.87364   0.27357   0.12591   0.00000  Uiso   1.00
H654   H     0.94131   0.31769   0.12342   0.00000  Uiso   1.00
H655   H     0.51369   0.12177   0.63148   0.00000  Uiso   1.00
H656   H     0.91246   0.31021   0.07941   0.00000  Uiso   1.00
H657   H     0.61782   0.17640   0.46450   0.00000  Uiso   1.00
H658   H     0.60047   0.10341   0.45060   0.00000  Uiso   1.00
H659   H     0.54747   0.11314   0.46703   0.00000  Uiso   1.00
H660   H     0.59044   0.11451   0.50096   0.00000  Uiso   1.00
H661   H     0.87761   0.31856   0.53002   0.00000  Uiso   1.00
H662   H     0.84494   0.26583   0.56771   0.00000  Uiso   1.00
H663   H     0.89276   0.23544   0.56777   0.00000  Uiso   1.00
H664   H     0.86224   0.24055   0.52354   0.00000  Uiso   1.00
H665   H     0.82330   0.11808   0.46473   0.00000  Uiso   1.00
H666   H     0.55502   0.15569   0.58433   0.00000  Uiso   1.00
H667   H     0.89632   0.10083   0.45102   0.00000  Uiso   1.00
H668   H     0.88663   0.04781   0.46737   0.00000  Uiso   1.00
H669   H     0.88516   0.09079   0.50134   0.00000  Uiso   1.00
H670   H     0.68129   0.37769   0.52960   0.00000  Uiso   1.00
H671   H     0.73415   0.34497   0.56710   0.00000  Uiso   1.00
H672   H     0.76446   0.39284   0.56737   0.00000  Uiso   1.00
H673   H     0.75929   0.36251   0.52299   0.00000  Uiso   1.00
H674   H     0.87633   0.27756   0.45769   0.00000  Uiso   1.00
H675   H     0.88061   0.35580   0.42951   0.00000  Uiso   1.00
H676   H     0.90587   0.36399   0.47581   0.00000  Uiso   1.00
N677   N     0.58688   0.16676   0.46271   0.00000  Uiso   1.00
N678   N     0.83930   0.08072   0.03722   0.00000  Uiso   1.00
N679   N     0.53060   0.14020   0.95937   0.00000  Uiso   1.00
N680   N     0.96136   0.35770   0.04243   0.00000  Uiso   1.00
N681   N     0.85152   0.05451   0.95876   0.00000  Uiso   1.00
N682   N     0.64816   0.45263   0.04270   0.00000  Uiso   1.00
N683   N     0.96956   0.35982   0.95981   0.00000  Uiso   1.00
N684   N     0.53856   0.14208   0.04202   0.00000  Uiso   1.00
N685   N     0.89627   0.29459   0.54012   0.00000  Uiso   1.00
N686   N     0.83297   0.08715   0.46295   0.00000  Uiso   1.00
N687   N     0.70524   0.39637   0.53979   0.00000  Uiso   1.00
N688   N     0.89955   0.30025   0.45732   0.00000  Uiso   1.00
N689   N     0.59998   0.19278   0.54112   0.00000  Uiso   1.00
N690   N     0.69907   0.39997   0.45705   0.00000  Uiso   1.00
N691   N     0.80697   0.10017   0.54137   0.00000  Uiso   1.00
N692   N     0.64511   0.45814   0.95988   0.00000  Uiso   1.00
O693   O     0.75000   0.00000   0.25000   0.00000  Uiso   1.00
O694   O     0.75000   0.46539   0.66251   0.00000  Uiso   1.00
O695   O     0.96539   0.25000   0.33749   0.00000  Uiso   1.00
O696   O     0.53462   0.25000   0.66251   0.00000  Uiso   1.00
O697   O     0.50000   0.21539   0.83749   0.00000  Uiso   1.00
O698   O     0.50000   0.28462   0.16251   0.00000  Uiso   1.00
O699   O     0.78462   0.00000   0.83749   0.00000  Uiso   1.00
O700   O     0.71539   0.00000   0.16251   0.00000  Uiso   1.00
O701   O     0.50000   0.28462   0.83749   0.00000  Uiso   1.00
O702   O     0.50000   0.21539   0.16251   0.00000  Uiso   1.00
O703   O     0.71539   0.00000   0.83749   0.00000  Uiso   1.00
O704   O     0.75000   0.00000   0.75000   0.00000  Uiso   1.00
O705   O     0.78462   0.00000   0.16251   0.00000  Uiso   1.00
O706   O     0.70127   0.08332   0.27298   0.00000  Uiso   1.00
O707   O     0.79874   0.41668   0.72702   0.00000  Uiso   1.00
O708   O     0.91668   0.20127   0.27298   0.00000  Uiso   1.00
O709   O     0.58332   0.29874   0.72702   0.00000  Uiso   1.00
O710   O     0.79874   0.41668   0.27298   0.00000  Uiso   1.00
O711   O     0.70127   0.08332   0.72702   0.00000  Uiso   1.00
O712   O     0.58332   0.29874   0.27298   0.00000  Uiso   1.00
O713   O     0.91668   0.20127   0.72702   0.00000  Uiso   1.00
O714   O     0.70127   0.41668   0.72702   0.00000  Uiso   1.00
O715   O     0.50000   0.25000   0.25000   0.00000  Uiso   1.00
O716   O     0.79874   0.08332   0.27298   0.00000  Uiso   1.00
O717   O     0.91668   0.29874   0.72702   0.00000  Uiso   1.00
O718   O     0.58332   0.20127   0.27298   0.00000  Uiso   1.00
O719   O     0.79874   0.08332   0.72702   0.00000  Uiso   1.00
O720   O     0.70127   0.41668   0.27298   0.00000  Uiso   1.00
O721   O     0.58332   0.20127   0.72702   0.00000  Uiso   1.00
O722   O     0.91668   0.29874   0.27298   0.00000  Uiso   1.00
O723   O     0.95127   0.33332   0.77298   0.00000  Uiso   1.00
O724   O     0.54874   0.16668   0.22702   0.00000  Uiso   1.00
O725   O     0.66668   0.45127   0.77298   0.00000  Uiso   1.00
O726   O     0.50000   0.25000   0.75000   0.00000  Uiso   1.00
O727   O     0.83332   0.04874   0.22702   0.00000  Uiso   1.00
O728   O     0.54874   0.16668   0.77298   0.00000  Uiso   1.00
O729   O     0.95127   0.33332   0.22702   0.00000  Uiso   1.00
O730   O     0.83332   0.04874   0.77298   0.00000  Uiso   1.00
O731   O     0.66668   0.45127   0.22702   0.00000  Uiso   1.00
O732   O     0.95127   0.16668   0.22702   0.00000  Uiso   1.00
O733   O     0.54874   0.33332   0.77298   0.00000  Uiso   1.00
O734   O     0.66668   0.04874   0.22702   0.00000  Uiso   1.00
O735   O     0.83332   0.45127   0.77298   0.00000  Uiso   1.00
O736   O     0.54874   0.33332   0.22702   0.00000  Uiso   1.00
O737   O     0.75000   0.46539   0.33749   0.00000  Uiso   1.00
O738   O     0.95127   0.16668   0.77298   0.00000  Uiso   1.00
O739   O     0.83332   0.45127   0.22702   0.00000  Uiso   1.00
O740   O     0.66668   0.04874   0.77298   0.00000  Uiso   1.00
O741   O     0.75000   0.03462   0.66251   0.00000  Uiso   1.00
O742   O     0.53462   0.25000   0.33749   0.00000  Uiso   1.00
O743   O     0.96539   0.25000   0.66251   0.00000  Uiso   1.00
O744   O     0.75000   0.03462   0.33749   0.00000  Uiso   1.00
Zn745  Zn    0.70053   0.00000   0.21730   0.00000  Uiso   1.00
Zn746  Zn    0.54948   0.25000   0.28270   0.00000  Uiso   1.00
Zn747  Zn    0.75000   0.45053   0.71730   0.00000  Uiso   1.00
Zn748  Zn    0.75000   0.04948   0.28270   0.00000  Uiso   1.00
Zn749  Zn    0.54948   0.25000   0.71730   0.00000  Uiso   1.00
Zn750  Zn    0.95053   0.25000   0.28270   0.00000  Uiso   1.00
Zn751  Zn    0.75000   0.04948   0.71730   0.00000  Uiso   1.00
Zn752  Zn    0.75000   0.45053   0.28270   0.00000  Uiso   1.00
Zn753  Zn    0.79948   0.00000   0.78270   0.00000  Uiso   1.00
Zn754  Zn    0.50000   0.20053   0.21730   0.00000  Uiso   1.00
Zn755  Zn    0.50000   0.29948   0.78270   0.00000  Uiso   1.00
Zn756  Zn    0.79948   0.00000   0.21730   0.00000  Uiso   1.00
Zn757  Zn    0.70053   0.00000   0.78270   0.00000  Uiso   1.00
Zn758  Zn    0.50000   0.29948   0.21730   0.00000  Uiso   1.00
Zn759  Zn    0.50000   0.20053   0.78270   0.00000  Uiso   1.00
Zn760  Zn    0.95053   0.25000   0.71730   0.00000  Uiso   1.00
C761   C     0.25062   0.50014   0.35593   0.00000  Uiso   1.00
C762   C     0.33002   0.91997   0.74999   0.00000  Uiso   1.00
C763   C     0.46709   0.81956   0.02102   0.00000  Uiso   1.00
C764   C     0.31255   0.54718   0.97856   0.00000  Uiso   1.00
C765   C     0.18534   0.96225   0.02106   0.00000  Uiso   1.00
C766   C     0.47056   0.82068   0.98011   0.00000  Uiso   1.00
C767   C     0.03290   0.68029   0.02078   0.00000  Uiso   1.00
C768   C     0.46767   0.82080   0.40056   0.00000  Uiso   1.00
C769   C     0.00672   0.84412   0.38575   0.00000  Uiso   1.00
C770   C     0.03830   0.67789   0.60366   0.00000  Uiso   1.00
C771   C     0.00165   0.65219   0.62012   0.00000  Uiso   1.00
C772   C     0.17887   0.96830   0.40042   0.00000  Uiso   1.00
C773   C     0.41998   0.66998   0.24999   0.00000  Uiso   1.00
C774   C     0.15578   0.50756   0.38583   0.00000  Uiso   1.00
C775   C     0.32202   0.53839   0.60373   0.00000  Uiso   1.00
C776   C     0.34777   0.50177   0.62018   0.00000  Uiso   1.00
C777   C     0.04023   0.67844   0.39403   0.00000  Uiso   1.00
C778   C     0.08597   0.68443   0.38064   0.00000  Uiso   1.00
C779   C     0.45865   0.81794   0.59994   0.00000  Uiso   1.00
C780   C     0.49449   0.84603   0.61453   0.00000  Uiso   1.00
C781   C     0.32143   0.54041   0.39421   0.00000  Uiso   1.00
C782   C     0.31540   0.58613   0.38081   0.00000  Uiso   1.00
C783   C     0.18202   0.95861   0.59988   0.00000  Uiso   1.00
C784   C     0.08002   0.83003   0.75000   0.00000  Uiso   1.00
C785   C     0.15393   0.99444   0.61449   0.00000  Uiso   1.00
C786   C     0.29015   0.57117   0.89643   0.00000  Uiso   1.00
C787   C     0.25420   0.59768   0.87974   0.00000  Uiso   1.00
C788   C     0.21563   0.93015   0.09939   0.00000  Uiso   1.00
C789   C     0.25394   0.90583   0.11448   0.00000  Uiso   1.00
C790   C     0.43808   0.80216   0.89942   0.00000  Uiso   1.00
C791   C     0.40556   0.77149   0.88274   0.00000  Uiso   1.00
C792   C     0.06702   0.70522   0.10074   0.00000  Uiso   1.00
C793   C     0.09530   0.73956   0.11798   0.00000  Uiso   1.00
C794   C     0.20690   0.93310   0.90017   0.00000  Uiso   1.00
C795   C     0.33002   0.91998   0.24999   0.00000  Uiso   1.00
C796   C     0.24200   0.90420   0.88541   0.00000  Uiso   1.00
C797   C     0.29230   0.57045   0.10590   0.00000  Uiso   1.00
C798   C     0.33791   0.56326   0.11919   0.00000  Uiso   1.00
C799   C     0.06207   0.69798   0.89926   0.00000  Uiso   1.00
C800   C     0.09452   0.72869   0.88259   0.00000  Uiso   1.00
C801   C     0.43278   0.79434   0.10078   0.00000  Uiso   1.00
C802   C     0.40458   0.75983   0.11779   0.00000  Uiso   1.00
C803   C     0.08097   0.62231   0.47088   0.00000  Uiso   1.00
C804   C     0.37295   0.75704   0.55021   0.00000  Uiso   1.00
C805   C     0.37741   0.58130   0.47123   0.00000  Uiso   1.00
C806   C     0.16998   0.58002   0.75001   0.00000  Uiso   1.00
C807   C     0.24285   0.87307   0.54973   0.00000  Uiso   1.00
C808   C     0.38405   0.84321   0.45934   0.00000  Uiso   1.00
C809   C     0.12347   0.73001   0.55208   0.00000  Uiso   1.00
C810   C     0.15601   0.88474   0.45907   0.00000  Uiso   1.00
C811   C     0.26976   0.62353   0.55256   0.00000  Uiso   1.00
C812   C     0.12254   0.99623   0.95007   0.00000  Uiso   1.00
C813   C     0.33465   0.62533   0.02909   0.00000  Uiso   1.00
C814   C     0.48968   0.62319   0.94964   0.00000  Uiso   1.00
C815   C     0.42076   0.87857   0.04007   0.00000  Uiso   1.00
C816   C     0.37407   0.51671   0.94782   0.00000  Uiso   1.00
C817   C     0.08002   0.83001   0.25001   0.00000  Uiso   1.00
C818   C     0.13139   0.91014   0.04069   0.00000  Uiso   1.00
C819   C     0.01053   0.87686   0.95032   0.00000  Uiso   1.00
C820   C     0.07912   0.62114   0.03960   0.00000  Uiso   1.00
C821   C     0.41998   0.66998   0.74999   0.00000  Uiso   1.00
C822   C     0.16998   0.91997   0.74999   0.00000  Uiso   1.00
C823   C     0.33002   0.58003   0.25000   0.00000  Uiso   1.00
C824   C     0.41998   0.83002   0.75001   0.00000  Uiso   1.00
C825   C     0.24999   0.99994   0.64407   0.00000  Uiso   1.00
C826   C     0.08001   0.66997   0.25000   0.00000  Uiso   1.00
C827   C     0.33002   0.58001   0.75000   0.00000  Uiso   1.00
C828   C     0.16998   0.91999   0.25000   0.00000  Uiso   1.00
C829   C     0.08002   0.66999   0.75000   0.00000  Uiso   1.00
C830   C     0.41997   0.83001   0.25000   0.00000  Uiso   1.00
C831   C     0.13833   0.88834   0.25000   0.00000  Uiso   1.00
C832   C     0.36167   0.61166   0.75000   0.00000  Uiso   1.00
C833   C     0.11165   0.63832   0.25002   0.00000  Uiso   1.00
C834   C     0.38834   0.86167   0.75001   0.00000  Uiso   1.00
C835   C     0.36165   0.61167   0.25000   0.00000  Uiso   1.00
C836   C     0.00011   0.74935   0.35592   0.00000  Uiso   1.00
C837   C     0.13834   0.88833   0.74999   0.00000  Uiso   1.00
C838   C     0.38832   0.86165   0.24999   0.00000  Uiso   1.00
C839   C     0.11167   0.63834   0.75000   0.00000  Uiso   1.00
C840   C     0.13833   0.61167   0.75001   0.00000  Uiso   1.00
C841   C     0.36166   0.88833   0.24998   0.00000  Uiso   1.00
C842   C     0.11166   0.86167   0.75000   0.00000  Uiso   1.00
C843   C     0.38833   0.63833   0.24998   0.00000  Uiso   1.00
C844   C     0.36166   0.88833   0.74999   0.00000  Uiso   1.00
C845   C     0.13832   0.61166   0.25003   0.00000  Uiso   1.00
C846   C     0.38833   0.63833   0.74999   0.00000  Uiso   1.00
C847   C     0.49996   0.75000   0.64407   0.00000  Uiso   1.00
C848   C     0.11167   0.86166   0.25001   0.00000  Uiso   1.00
C849   C     0.47862   0.77866   0.41941   0.00000  Uiso   1.00
C850   C     0.02303   0.71719   0.58207   0.00000  Uiso   1.00
C851   C     0.22108   0.97894   0.41934   0.00000  Uiso   1.00
C852   C     0.28271   0.52308   0.58212   0.00000  Uiso   1.00
C853   C     0.02345   0.71547   0.41780   0.00000  Uiso   1.00
C854   C     0.47515   0.77780   0.58057   0.00000  Uiso   1.00
C855   C     0.28437   0.52362   0.41789   0.00000  Uiso   1.00
C856   C     0.22212   0.97515   0.58052   0.00000  Uiso   1.00
C857   C     0.27388   0.53221   0.91794   0.00000  Uiso   1.00
C858   C     0.00001   0.75002   0.85603   0.00000  Uiso   1.00
C859   C     0.22781   0.97198   0.08058   0.00000  Uiso   1.00
C860   C     0.47469   0.77928   0.91922   0.00000  Uiso   1.00
C861   C     0.02782   0.72313   0.08113   0.00000  Uiso   1.00
C862   C     0.22440   0.97287   0.91946   0.00000  Uiso   1.00
C863   C     0.27447   0.53386   0.08217   0.00000  Uiso   1.00
C864   C     0.02544   0.72083   0.91913   0.00000  Uiso   1.00
C865   C     0.47208   0.77661   0.08118   0.00000  Uiso   1.00
C866   C     0.00067   0.74768   0.39841   0.00000  Uiso   1.00
C867   C     0.49969   0.74858   0.60166   0.00000  Uiso   1.00
C868   C     0.25220   0.50081   0.39841   0.00000  Uiso   1.00
C869   C     0.49999   0.74997   0.14405   0.00000  Uiso   1.00
C870   C     0.25138   0.99966   0.60166   0.00000  Uiso   1.00
C871   C     0.24970   0.50144   0.89834   0.00000  Uiso   1.00
C872   C     0.25072   0.50233   0.10158   0.00000  Uiso   1.00
C873   C     0.00006   0.75006   0.89863   0.00000  Uiso   1.00
C874   C     0.49997   0.74990   0.10160   0.00000  Uiso   1.00
C875   C     0.02712   0.71742   0.45915   0.00000  Uiso   1.00
C876   C     0.46963   0.77091   0.54035   0.00000  Uiso   1.00
C877   C     0.28235   0.52734   0.45923   0.00000  Uiso   1.00
C878   C     0.22890   0.96974   0.54027   0.00000  Uiso   1.00
C879   C     0.47158   0.77198   0.45924   0.00000  Uiso   1.00
C880   C     0.24996   0.50000   0.85593   0.00000  Uiso   1.00
C881   C     0.02802   0.72096   0.54142   0.00000  Uiso   1.00
C882   C     0.22770   0.97187   0.45917   0.00000  Uiso   1.00
C883   C     0.27885   0.52816   0.54149   0.00000  Uiso   1.00
C884   C     0.21905   0.97994   0.95966   0.00000  Uiso   1.00
C885   C     0.27808   0.53179   0.04082   0.00000  Uiso   1.00
C886   C     0.01897   0.71650   0.95951   0.00000  Uiso   1.00
C887   C     0.47885   0.78228   0.04100   0.00000  Uiso   1.00
C888   C     0.27882   0.52826   0.95857   0.00000  Uiso   1.00
C889   C     0.22096   0.97886   0.04076   0.00000  Uiso   1.00
C890   C     0.48114   0.78352   0.95962   0.00000  Uiso   1.00
C891   C     0.25012   0.50069   0.14407   0.00000  Uiso   1.00
C892   C     0.02110   0.71752   0.04091   0.00000  Uiso   1.00
C893   C     0.49942   0.74500   0.47953   0.00000  Uiso   1.00
C894   C     0.49897   0.74547   0.52040   0.00000  Uiso   1.00
C895   C     0.25474   0.99965   0.47953   0.00000  Uiso   1.00
C896   C     0.25431   0.99914   0.52040   0.00000  Uiso   1.00
C897   C     0.24911   0.50456   0.97960   0.00000  Uiso   1.00
C898   C     0.24958   0.50502   0.02046   0.00000  Uiso   1.00
C899   C     0.00003   0.74998   0.97990   0.00000  Uiso   1.00
C900   C    -0.00000   0.74993   0.02058   0.00000  Uiso   1.00
C901   C     0.05767   0.69429   0.48104   0.00000  Uiso   1.00
C902   C     0.16997   0.58002   0.25002   0.00000  Uiso   1.00
C903   C     0.43473   0.78706   0.51982   0.00000  Uiso   1.00
C904   C     0.30545   0.55791   0.48120   0.00000  Uiso   1.00
C905   C     0.21267   0.93491   0.51964   0.00000  Uiso   1.00
C906   C     0.43643   0.78957   0.47895   0.00000  Uiso   1.00
C907   C     0.06118   0.70109   0.52139   0.00000  Uiso   1.00
C908   C     0.21002   0.93674   0.47879   0.00000  Uiso   1.00
C909   C     0.29865   0.56138   0.52154   0.00000  Uiso   1.00
C910   C     0.18373   0.96474   0.98019   0.00000  Uiso   1.00
C911   C     0.30929   0.55404   0.01891   0.00000  Uiso   1.00
C912   C     0.02952   0.67928   0.97985   0.00000  Uiso   1.00
H913   H     0.03135   0.84521   0.40862   0.00000  Uiso   1.00
H914   H     0.06067   0.68652   0.62706   0.00000  Uiso   1.00
H915   H     0.35242   0.84402   0.47308   0.00000  Uiso   1.00
H916   H     0.11915   0.66985   0.52970   0.00000  Uiso   1.00
H917   H     0.15198   0.72063   0.56859   0.00000  Uiso   1.00
H918   H     0.10425   0.75089   0.57090   0.00000  Uiso   1.00
H919   H     0.13341   0.74756   0.52576   0.00000  Uiso   1.00
H920   H     0.22160   0.87660   0.45737   0.00000  Uiso   1.00
H921   H     0.14332   0.88144   0.42925   0.00000  Uiso   1.00
H922   H     0.13542   0.90665   0.47564   0.00000  Uiso   1.00
H923   H     0.15503   0.85309   0.47273   0.00000  Uiso   1.00
H924   H     0.32977   0.61944   0.52992   0.00000  Uiso   1.00
H925   H     0.15463   0.53198   0.40891   0.00000  Uiso   1.00
H926   H     0.27917   0.65204   0.56910   0.00000  Uiso   1.00
H927   H     0.24904   0.60421   0.57142   0.00000  Uiso   1.00
H928   H     0.25201   0.63347   0.52635   0.00000  Uiso   1.00
H929   H     0.12598   0.93445   0.96984   0.00000  Uiso   1.00
H930   H     0.09435   0.98814   0.93253   0.00000  Uiso   1.00
H931   H     0.14278   0.51757   0.93265   0.00000  Uiso   1.00
H932   H     0.11218   0.51271   0.97686   0.00000  Uiso   1.00
H933   H     0.36996   0.57022   0.03535   0.00000  Uiso   1.00
H934   H     0.35465   0.64365   0.04942   0.00000  Uiso   1.00
H935   H     0.30141   0.63543   0.03293   0.00000  Uiso   1.00
H936   H     0.17090   0.52090   0.35966   0.00000  Uiso   1.00
H937   H     0.34437   0.63294   0.99904   0.00000  Uiso   1.00
H938   H     0.05133   0.61790   0.96932   0.00000  Uiso   1.00
H939   H     0.49364   0.59418   0.93200   0.00000  Uiso   1.00
H940   H     0.47127   0.64624   0.93234   0.00000  Uiso   1.00
H941   H     0.47204   0.61516   0.97645   0.00000  Uiso   1.00
H942   H     0.48682   0.87783   0.04169   0.00000  Uiso   1.00
H943   H     0.40858   0.88403   0.06981   0.00000  Uiso   1.00
H944   H     0.39742   0.85941   0.02371   0.00000  Uiso   1.00
H945   H     0.42408   0.90985   0.02601   0.00000  Uiso   1.00
H946   H     0.37128   0.57697   0.97012   0.00000  Uiso   1.00
H947   H     0.12296   0.99907   0.37786   0.00000  Uiso   1.00
H948   H     0.40277   0.52537   0.93125   0.00000  Uiso   1.00
H949   H     0.35429   0.99626   0.92907   0.00000  Uiso   1.00
H950   H     0.38363   0.99896   0.97415   0.00000  Uiso   1.00
H951   H     0.12564   0.97600   0.04242   0.00000  Uiso   1.00
H952   H     0.12757   0.89767   0.07053   0.00000  Uiso   1.00
H953   H     0.15259   0.88872   0.02423   0.00000  Uiso   1.00
H954   H     0.09977   0.91027   0.02693   0.00000  Uiso   1.00
H955   H     0.44881   0.88209   0.96983   0.00000  Uiso   1.00
H956   H     0.00665   0.90593   0.93281   0.00000  Uiso   1.00
H957   H     0.02900   0.85387   0.93297   0.00000  Uiso   1.00
H958   H     0.18310   0.94526   0.37651   0.00000  Uiso   1.00
H959   H     0.02806   0.88479   0.97724   0.00000  Uiso   1.00
H960   H     0.01307   0.62200   0.04119   0.00000  Uiso   1.00
H961   H     0.09128   0.61558   0.06932   0.00000  Uiso   1.00
H962   H     0.10251   0.64030   0.02334   0.00000  Uiso   1.00
H963   H     0.07576   0.58990   0.02541   0.00000  Uiso   1.00
H964   H     0.15697   0.95454   0.42167   0.00000  Uiso   1.00
H965   H     0.33129   0.98598   0.64443   0.00000  Uiso   1.00
H966   H     0.35448   0.97832   0.59705   0.00000  Uiso   1.00
H967   H     0.37820   0.51385   0.63153   0.00000  Uiso   1.00
H968   H     0.34420   0.55512   0.58441   0.00000  Uiso   1.00
H969   H     0.01984   0.82922   0.35936   0.00000  Uiso   1.00
H970   H     0.31341   0.56077   0.62714   0.00000  Uiso   1.00
H971   H     0.10335   0.65423   0.38329   0.00000  Uiso   1.00
H972   H     0.08717   0.69383   0.34976   0.00000  Uiso   1.00
H973   H     0.10251   0.70885   0.39798   0.00000  Uiso   1.00
H974   H     0.03639   0.64876   0.41029   0.00000  Uiso   1.00
H975   H     0.02021   0.67262   0.36816   0.00000  Uiso   1.00
H976   H     0.01137   0.83158   0.63927   0.00000  Uiso   1.00
H977   H     0.01722   0.85229   0.59074   0.00000  Uiso   1.00
H978   H     0.48141   0.87658   0.62460   0.00000  Uiso   1.00
H979   H     0.44090   0.83799   0.57944   0.00000  Uiso   1.00
H980   H     0.49805   0.87695   0.37807   0.00000  Uiso   1.00
H981   H     0.43683   0.81018   0.62402   0.00000  Uiso   1.00
H982   H     0.34558   0.60356   0.38352   0.00000  Uiso   1.00
H983   H     0.30604   0.58729   0.34991   0.00000  Uiso   1.00
H984   H     0.29095   0.60266   0.39811   0.00000  Uiso   1.00
H985   H     0.35107   0.53664   0.41055   0.00000  Uiso   1.00
H986   H     0.32731   0.52038   0.36835   0.00000  Uiso   1.00
H987   H     0.16841   0.51137   0.63921   0.00000  Uiso   1.00
H988   H     0.14760   0.51714   0.59070   0.00000  Uiso   1.00
H989   H     0.12341   0.98133   0.62457   0.00000  Uiso   1.00
H990   H     0.16195   0.94083   0.57937   0.00000  Uiso   1.00
H991   H     0.44453   0.81643   0.37678   0.00000  Uiso   1.00
H992   H     0.18982   0.93681   0.62394   0.00000  Uiso   1.00
H993   H     0.23822   0.58152   0.85538   0.00000  Uiso   1.00
H994   H     0.23076   0.60493   0.90271   0.00000  Uiso   1.00
H995   H     0.26701   0.62782   0.86848   0.00000  Uiso   1.00
H996   H     0.30721   0.59300   0.91588   0.00000  Uiso   1.00
H997   H     0.31252   0.56207   0.87318   0.00000  Uiso   1.00
H998   H     0.27874   0.90414   0.09180   0.00000  Uiso   1.00
H999   H     0.26719   0.92037   0.14099   0.00000  Uiso   1.00
H1000  H     0.24435   0.87322   0.12207   0.00000  Uiso   1.00
H1001  H     0.19240   0.93511   0.12300   0.00000  Uiso   1.00
H1002  H     0.45390   0.84264   0.42190   0.00000  Uiso   1.00
H1003  H     0.20146   0.90866   0.07795   0.00000  Uiso   1.00
H1004  H     0.41802   0.75409   0.85737   0.00000  Uiso   1.00
H1005  H     0.39558   0.74862   0.90530   0.00000  Uiso   1.00
H1006  H     0.37741   0.78931   0.87296   0.00000  Uiso   1.00
H1007  H     0.42006   0.82170   0.92021   0.00000  Uiso   1.00
H1008  H     0.44966   0.82384   0.87661   0.00000  Uiso   1.00
H1009  H     0.10076   0.76494   0.09640   0.00000  Uiso   1.00
H1010  H     0.08162   0.75333   0.14466   0.00000  Uiso   1.00
H1011  H     0.12623   0.72572   0.12596   0.00000  Uiso   1.00
H1012  H     0.05834   0.68182   0.12324   0.00000  Uiso   1.00
H1013  H     0.48584   0.66871   0.64437   0.00000  Uiso   1.00
H1014  H     0.08734   0.68935   0.07934   0.00000  Uiso   1.00
H1015  H     0.22818   0.87391   0.87550   0.00000  Uiso   1.00
H1016  H     0.25901   0.91822   0.86053   0.00000  Uiso   1.00
H1017  H     0.26478   0.89751   0.90907   0.00000  Uiso   1.00
H1018  H     0.18884   0.91346   0.92079   0.00000  Uiso   1.00
H1019  H     0.18509   0.94130   0.87622   0.00000  Uiso   1.00
H1020  H     0.35617   0.59291   0.11617   0.00000  Uiso   1.00
H1021  H     0.33900   0.55423   0.15018   0.00000  Uiso   1.00
H1022  H     0.35364   0.53816   0.10204   0.00000  Uiso   1.00
H1023  H     0.28921   0.60020   0.08963   0.00000  Uiso   1.00
H1024  H     0.47822   0.64544   0.59700   0.00000  Uiso   1.00
H1025  H     0.27251   0.57682   0.13181   0.00000  Uiso   1.00
H1026  H     0.08201   0.74603   0.85724   0.00000  Uiso   1.00
H1027  H     0.10448   0.75161   0.90516   0.00000  Uiso   1.00
H1028  H     0.12270   0.71091   0.87278   0.00000  Uiso   1.00
H1029  H     0.08014   0.67851   0.92002   0.00000  Uiso   1.00
H1030  H     0.05050   0.67627   0.87643   0.00000  Uiso   1.00
H1031  H     0.39914   0.73459   0.09602   0.00000  Uiso   1.00
H1032  H     0.41833   0.74592   0.14435   0.00000  Uiso   1.00
H1033  H     0.37364   0.77357   0.12591   0.00000  Uiso   1.00
H1034  H     0.44131   0.81769   0.12342   0.00000  Uiso   1.00
H1035  H     0.01369   0.62177   0.63148   0.00000  Uiso   1.00
H1036  H     0.41246   0.81021   0.07941   0.00000  Uiso   1.00
H1037  H     0.11782   0.67640   0.46450   0.00000  Uiso   1.00
H1038  H     0.10047   0.60341   0.45060   0.00000  Uiso   1.00
H1039  H     0.04747   0.61314   0.46703   0.00000  Uiso   1.00
H1040  H     0.09044   0.61451   0.50096   0.00000  Uiso   1.00
H1041  H     0.37761   0.81856   0.53002   0.00000  Uiso   1.00
H1042  H     0.34494   0.76583   0.56771   0.00000  Uiso   1.00
H1043  H     0.39276   0.73544   0.56777   0.00000  Uiso   1.00
H1044  H     0.36224   0.74055   0.52354   0.00000  Uiso   1.00
H1045  H     0.32330   0.61808   0.46473   0.00000  Uiso   1.00
H1046  H     0.05502   0.65569   0.58433   0.00000  Uiso   1.00
H1047  H     0.39632   0.60083   0.45102   0.00000  Uiso   1.00
H1048  H     0.38663   0.54781   0.46737   0.00000  Uiso   1.00
H1049  H     0.38516   0.59079   0.50134   0.00000  Uiso   1.00
H1050  H     0.18129   0.87769   0.52960   0.00000  Uiso   1.00
H1051  H     0.23415   0.84497   0.56710   0.00000  Uiso   1.00
H1052  H     0.26446   0.89284   0.56737   0.00000  Uiso   1.00
H1053  H     0.25929   0.86251   0.52299   0.00000  Uiso   1.00
H1054  H     0.37633   0.77756   0.45769   0.00000  Uiso   1.00
H1055  H     0.38061   0.85580   0.42951   0.00000  Uiso   1.00
H1056  H     0.40587   0.86399   0.47581   0.00000  Uiso   1.00
N1057  N     0.08688   0.66676   0.46271   0.00000  Uiso   1.00
N1058  N     0.33930   0.58072   0.03722   0.00000  Uiso   1.00
N1059  N     0.03060   0.64020   0.95937   0.00000  Uiso   1.00
N1060  N     0.46136   0.85770   0.04243   0.00000  Uiso   1.00
N1061  N     0.35152   0.55451   0.95876   0.00000  Uiso   1.00
N1062  N     0.14816   0.95263   0.04270   0.00000  Uiso   1.00
N1063  N     0.46956   0.85982   0.95981   0.00000  Uiso   1.00
N1064  N     0.03856   0.64208   0.04202   0.00000  Uiso   1.00
N1065  N     0.39627   0.79459   0.54012   0.00000  Uiso   1.00
N1066  N     0.33297   0.58715   0.46295   0.00000  Uiso   1.00
N1067  N     0.20524   0.89637   0.53979   0.00000  Uiso   1.00
N1068  N     0.39955   0.80025   0.45732   0.00000  Uiso   1.00
N1069  N     0.09998   0.69278   0.54112   0.00000  Uiso   1.00
N1070  N     0.19907   0.89997   0.45705   0.00000  Uiso   1.00
N1071  N     0.30697   0.60017   0.54137   0.00000  Uiso   1.00
N1072  N     0.14511   0.95814   0.95988   0.00000  Uiso   1.00
O1073  O     0.25000   0.50000   0.25000   0.00000  Uiso   1.00
O1074  O     0.25000   0.96539   0.66251   0.00000  Uiso   1.00
O1075  O     0.46539   0.75000   0.33749   0.00000  Uiso   1.00
O1076  O     0.03462   0.75000   0.66251   0.00000  Uiso   1.00
O1077  O     0.00000   0.71539   0.83749   0.00000  Uiso   1.00
O1078  O     0.00000   0.78462   0.16251   0.00000  Uiso   1.00
O1079  O     0.28462   0.50000   0.83749   0.00000  Uiso   1.00
O1080  O     0.21539   0.50000   0.16251   0.00000  Uiso   1.00
O1081  O     0.00000   0.78462   0.83749   0.00000  Uiso   1.00
O1082  O     0.00000   0.71539   0.16251   0.00000  Uiso   1.00
O1083  O     0.21539   0.50000   0.83749   0.00000  Uiso   1.00
O1084  O     0.25000   0.50000   0.75000   0.00000  Uiso   1.00
O1085  O     0.28462   0.50000   0.16251   0.00000  Uiso   1.00
O1086  O     0.20127   0.58332   0.27298   0.00000  Uiso   1.00
O1087  O     0.29874   0.91668   0.72702   0.00000  Uiso   1.00
O1088  O     0.41668   0.70127   0.27298   0.00000  Uiso   1.00
O1089  O     0.08332   0.79874   0.72702   0.00000  Uiso   1.00
O1090  O     0.29874   0.91668   0.27298   0.00000  Uiso   1.00
O1091  O     0.20127   0.58332   0.72702   0.00000  Uiso   1.00
O1092  O     0.08332   0.79874   0.27298   0.00000  Uiso   1.00
O1093  O     0.41668   0.70127   0.72702   0.00000  Uiso   1.00
O1094  O     0.20127   0.91668   0.72702   0.00000  Uiso   1.00
O1095  O     0.00000   0.75000   0.25000   0.00000  Uiso   1.00
O1096  O     0.29874   0.58332   0.27298   0.00000  Uiso   1.00
O1097  O     0.41668   0.79874   0.72702   0.00000  Uiso   1.00
O1098  O     0.08332   0.70127   0.27298   0.00000  Uiso   1.00
O1099  O     0.29874   0.58332   0.72702   0.00000  Uiso   1.00
O1100  O     0.20127   0.91668   0.27298   0.00000  Uiso   1.00
O1101  O     0.08332   0.70127   0.72702   0.00000  Uiso   1.00
O1102  O     0.41668   0.79874   0.27298   0.00000  Uiso   1.00
O1103  O     0.45127   0.83332   0.77298   0.00000  Uiso   1.00
O1104  O     0.04874   0.66668   0.22702   0.00000  Uiso   1.00
O1105  O     0.16668   0.95127   0.77298   0.00000  Uiso   1.00
O1106  O     0.00000   0.75000   0.75000   0.00000  Uiso   1.00
O1107  O     0.33332   0.54874   0.22702   0.00000  Uiso   1.00
O1108  O     0.04874   0.66668   0.77298   0.00000  Uiso   1.00
O1109  O     0.45127   0.83332   0.22702   0.00000  Uiso   1.00
O1110  O     0.33332   0.54874   0.77298   0.00000  Uiso   1.00
O1111  O     0.16668   0.95127   0.22702   0.00000  Uiso   1.00
O1112  O     0.45127   0.66668   0.22702   0.00000  Uiso   1.00
O1113  O     0.04874   0.83332   0.77298   0.00000  Uiso   1.00
O1114  O     0.16668   0.54874   0.22702   0.00000  Uiso   1.00
O1115  O     0.33332   0.95127   0.77298   0.00000  Uiso   1.00
O1116  O     0.04874   0.83332   0.22702   0.00000  Uiso   1.00
O1117  O     0.25000   0.96539   0.33749   0.00000  Uiso   1.00
O1118  O     0.45127   0.66668   0.77298   0.00000  Uiso   1.00
O1119  O     0.33332   0.95127   0.22702   0.00000  Uiso   1.00
O1120  O     0.16668   0.54874   0.77298   0.00000  Uiso   1.00
O1121  O     0.25000   0.53462   0.66251   0.00000  Uiso   1.00
O1122  O     0.03462   0.75000   0.33749   0.00000  Uiso   1.00
O1123  O     0.46539   0.75000   0.66251   0.00000  Uiso   1.00
O1124  O     0.25000   0.53462   0.33749   0.00000  Uiso   1.00
Zn1125 Zn    0.20053   0.50000   0.21730   0.00000  Uiso   1.00
Zn1126 Zn    0.04948   0.75000   0.28270   0.00000  Uiso   1.00
Zn1127 Zn    0.25000   0.95053   0.71730   0.00000  Uiso   1.00
Zn1128 Zn    0.25000   0.54948   0.28270   0.00000  Uiso   1.00
Zn1129 Zn    0.04948   0.75000   0.71730   0.00000  Uiso   1.00
Zn1130 Zn    0.45053   0.75000   0.28270   0.00000  Uiso   1.00
Zn1131 Zn    0.25000   0.54948   0.71730   0.00000  Uiso   1.00
Zn1132 Zn    0.25000   0.95053   0.28270   0.00000  Uiso   1.00
Zn1133 Zn    0.29948   0.50000   0.78270   0.00000  Uiso   1.00
Zn1134 Zn    0.00000   0.70053   0.21730   0.00000  Uiso   1.00
Zn1135 Zn    0.00000   0.79948   0.78270   0.00000  Uiso   1.00
Zn1136 Zn    0.29948   0.50000   0.21730   0.00000  Uiso   1.00
Zn1137 Zn    0.20053   0.50000   0.78270   0.00000  Uiso   1.00
Zn1138 Zn    0.00000   0.79948   0.21730   0.00000  Uiso   1.00
Zn1139 Zn    0.00000   0.70053   0.78270   0.00000  Uiso   1.00
Zn1140 Zn    0.45053   0.75000   0.71730   0.00000  Uiso   1.00
C1141  C     0.75062   0.50014   0.35593   0.00000  Uiso   1.00
C1142  C     0.83002   0.91997   0.74999   0.00000  Uiso   1.00
C1143  C     0.96709   0.81956   0.02102   0.00000  Uiso   1.00
C1144  C     0.81255   0.54718   0.97856   0.00000  Uiso   1.00
C1145  C     0.68534   0.96225   0.02106   0.00000  Uiso   1.00
C1146  C     0.97056   0.82068   0.98011   0.00000  Uiso   1.00
C1147  C     0.53290   0.68029   0.02078   0.00000  Uiso   1.00
C1148  C     0.96767   0.82080   0.40056   0.00000  Uiso   1.00
C1149  C     0.50672   0.84412   0.38575   0.00000  Uiso   1.00
C1150  C     0.53830   0.67789   0.60366   0.00000  Uiso   1.00
C1151  C     0.50165   0.65219   0.62012   0.00000  Uiso   1.00
C1152  C     0.67887   0.96830   0.40042   0.00000  Uiso   1.00
C1153  C     0.91998   0.66998   0.24999   0.00000  Uiso   1.00
C1154  C     0.65578   0.50756   0.38583   0.00000  Uiso   1.00
C1155  C     0.82202   0.53839   0.60373   0.00000  Uiso   1.00
C1156  C     0.84777   0.50177   0.62018   0.00000  Uiso   1.00
C1157  C     0.54023   0.67844   0.39403   0.00000  Uiso   1.00
C1158  C     0.58597   0.68443   0.38064   0.00000  Uiso   1.00
C1159  C     0.95865   0.81794   0.59994   0.00000  Uiso   1.00
C1160  C     0.99449   0.84603   0.61453   0.00000  Uiso   1.00
C1161  C     0.82143   0.54041   0.39421   0.00000  Uiso   1.00
C1162  C     0.81540   0.58613   0.38081   0.00000  Uiso   1.00
C1163  C     0.68202   0.95861   0.59988   0.00000  Uiso   1.00
C1164  C     0.58002   0.83003   0.75000   0.00000  Uiso   1.00
C1165  C     0.65393   0.99444   0.61449   0.00000  Uiso   1.00
C1166  C     0.79015   0.57117   0.89643   0.00000  Uiso   1.00
C1167  C     0.75420   0.59768   0.87974   0.00000  Uiso   1.00
C1168  C     0.71563   0.93015   0.09939   0.00000  Uiso   1.00
C1169  C     0.75394   0.90583   0.11448   0.00000  Uiso   1.00
C1170  C     0.93808   0.80216   0.89942   0.00000  Uiso   1.00
C1171  C     0.90556   0.77149   0.88274   0.00000  Uiso   1.00
C1172  C     0.56702   0.70522   0.10074   0.00000  Uiso   1.00
C1173  C     0.59530   0.73956   0.11798   0.00000  Uiso   1.00
C1174  C     0.70690   0.93310   0.90017   0.00000  Uiso   1.00
C1175  C     0.83002   0.91998   0.24999   0.00000  Uiso   1.00
C1176  C     0.74200   0.90420   0.88541   0.00000  Uiso   1.00
C1177  C     0.79230   0.57045   0.10590   0.00000  Uiso   1.00
C1178  C     0.83791   0.56326   0.11919   0.00000  Uiso   1.00
C1179  C     0.56207   0.69798   0.89926   0.00000  Uiso   1.00
C1180  C     0.59452   0.72869   0.88259   0.00000  Uiso   1.00
C1181  C     0.93278   0.79434   0.10078   0.00000  Uiso   1.00
C1182  C     0.90458   0.75983   0.11779   0.00000  Uiso   1.00
C1183  C     0.58097   0.62231   0.47088   0.00000  Uiso   1.00
C1184  C     0.87295   0.75704   0.55021   0.00000  Uiso   1.00
C1185  C     0.87741   0.58130   0.47123   0.00000  Uiso   1.00
C1186  C     0.66998   0.58002   0.75001   0.00000  Uiso   1.00
C1187  C     0.74285   0.87307   0.54973   0.00000  Uiso   1.00
C1188  C     0.88405   0.84321   0.45934   0.00000  Uiso   1.00
C1189  C     0.62347   0.73001   0.55208   0.00000  Uiso   1.00
C1190  C     0.65601   0.88474   0.45907   0.00000  Uiso   1.00
C1191  C     0.76976   0.62353   0.55256   0.00000  Uiso   1.00
C1192  C     0.62254   0.99623   0.95007   0.00000  Uiso   1.00
C1193  C     0.83465   0.62533   0.02909   0.00000  Uiso   1.00
C1194  C     0.98968   0.62319   0.94964   0.00000  Uiso   1.00
C1195  C     0.92076   0.87857   0.04007   0.00000  Uiso   1.00
C1196  C     0.87407   0.51671   0.94782   0.00000  Uiso   1.00
C1197  C     0.58002   0.83001   0.25001   0.00000  Uiso   1.00
C1198  C     0.63139   0.91014   0.04069   0.00000  Uiso   1.00
C1199  C     0.51053   0.87686   0.95032   0.00000  Uiso   1.00
C1200  C     0.57912   0.62114   0.03960   0.00000  Uiso   1.00
C1201  C     0.91998   0.66998   0.74999   0.00000  Uiso   1.00
C1202  C     0.66998   0.91997   0.74999   0.00000  Uiso   1.00
C1203  C     0.83002   0.58003   0.25000   0.00000  Uiso   1.00
C1204  C     0.91998   0.83002   0.75001   0.00000  Uiso   1.00
C1205  C     0.74999   0.99994   0.64407   0.00000  Uiso   1.00
C1206  C     0.58001   0.66997   0.25000   0.00000  Uiso   1.00
C1207  C     0.83002   0.58001   0.75000   0.00000  Uiso   1.00
C1208  C     0.66998   0.91999   0.25000   0.00000  Uiso   1.00
C1209  C     0.58002   0.66999   0.75000   0.00000  Uiso   1.00
C1210  C     0.91997   0.83001   0.25000   0.00000  Uiso   1.00
C1211  C     0.63833   0.88834   0.25000   0.00000  Uiso   1.00
C1212  C     0.86167   0.61166   0.75000   0.00000  Uiso   1.00
C1213  C     0.61165   0.63832   0.25002   0.00000  Uiso   1.00
C1214  C     0.88834   0.86167   0.75001   0.00000  Uiso   1.00
C1215  C     0.86165   0.61167   0.25000   0.00000  Uiso   1.00
C1216  C     0.50011   0.74935   0.35592   0.00000  Uiso   1.00
C1217  C     0.63834   0.88833   0.74999   0.00000  Uiso   1.00
C1218  C     0.88832   0.86165   0.24999   0.00000  Uiso   1.00
C1219  C     0.61167   0.63834   0.75000   0.00000  Uiso   1.00
C1220  C     0.63833   0.61167   0.75001   0.00000  Uiso   1.00
C1221  C     0.86166   0.88833   0.24998   0.00000  Uiso   1.00
C1222  C     0.61166   0.86167   0.75000   0.00000  Uiso   1.00
C1223  C     0.88833   0.63833   0.24998   0.00000  Uiso   1.00
C1224  C     0.86166   0.88833   0.74999   0.00000  Uiso   1.00
C1225  C     0.63832   0.61166   0.25003   0.00000  Uiso   1.00
C1226  C     0.88833   0.63833   0.74999   0.00000  Uiso   1.00
C1227  C     0.99996   0.75000   0.64407   0.00000  Uiso   1.00
C1228  C     0.61167   0.86166   0.25001   0.00000  Uiso   1.00
C1229  C     0.97862   0.77866   0.41941   0.00000  Uiso   1.00
C1230  C     0.52303   0.71719   0.58207   0.00000  Uiso   1.00
C1231  C     0.72108   0.97894   0.41934   0.00000  Uiso   1.00
C1232  C     0.78271   0.52308   0.58212   0.00000  Uiso   1.00
C1233  C     0.52345   0.71547   0.41780   0.00000  Uiso   1.00
C1234  C     0.97515   0.77780   0.58057   0.00000  Uiso   1.00
C1235  C     0.78437   0.52362   0.41789   0.00000  Uiso   1.00
C1236  C     0.72212   0.97515   0.58052   0.00000  Uiso   1.00
C1237  C     0.77388   0.53221   0.91794   0.00000  Uiso   1.00
C1238  C     0.50001   0.75002   0.85603   0.00000  Uiso   1.00
C1239  C     0.72781   0.97198   0.08058   0.00000  Uiso   1.00
C1240  C     0.97469   0.77928   0.91922   0.00000  Uiso   1.00
C1241  C     0.52782   0.72313   0.08113   0.00000  Uiso   1.00
C1242  C     0.72440   0.97287   0.91946   0.00000  Uiso   1.00
C1243  C     0.77447   0.53386   0.08217   0.00000  Uiso   1.00
C1244  C     0.52544   0.72083   0.91913   0.00000  Uiso   1.00
C1245  C     0.97208   0.77661   0.08118   0.00000  Uiso   1.00
C1246  C     0.50067   0.74768   0.39841   0.00000  Uiso   1.00
C1247  C     0.99969   0.74858   0.60166   0.00000  Uiso   1.00
C1248  C     0.75220   0.50081   0.39841   0.00000  Uiso   1.00
C1249  C     0.99999   0.74997   0.14405   0.00000  Uiso   1.00
C1250  C     0.75138   0.99966   0.60166   0.00000  Uiso   1.00
C1251  C     0.74970   0.50144   0.89834   0.00000  Uiso   1.00
C1252  C     0.75072   0.50233   0.10158   0.00000  Uiso   1.00
C1253  C     0.50006   0.75006   0.89863   0.00000  Uiso   1.00
C1254  C     0.99997   0.74990   0.10160   0.00000  Uiso   1.00
C1255  C     0.52712   0.71742   0.45915   0.00000  Uiso   1.00
C1256  C     0.96963   0.77091   0.54035   0.00000  Uiso   1.00
C1257  C     0.78235   0.52734   0.45923   0.00000  Uiso   1.00
C1258  C     0.72890   0.96974   0.54027   0.00000  Uiso   1.00
C1259  C     0.97158   0.77198   0.45924   0.00000  Uiso   1.00
C1260  C     0.74996   0.50000   0.85593   0.00000  Uiso   1.00
C1261  C     0.52802   0.72096   0.54142   0.00000  Uiso   1.00
C1262  C     0.72770   0.97187   0.45917   0.00000  Uiso   1.00
C1263  C     0.77885   0.52816   0.54149   0.00000  Uiso   1.00
C1264  C     0.71905   0.97994   0.95966   0.00000  Uiso   1.00
C1265  C     0.77808   0.53179   0.04082   0.00000  Uiso   1.00
C1266  C     0.51897   0.71650   0.95951   0.00000  Uiso   1.00
C1267  C     0.97885   0.78228   0.04100   0.00000  Uiso   1.00
C1268  C     0.77882   0.52826   0.95857   0.00000  Uiso   1.00
C1269  C     0.72096   0.97886   0.04076   0.00000  Uiso   1.00
C1270  C     0.98114   0.78352   0.95962   0.00000  Uiso   1.00
C1271  C     0.75012   0.50069   0.14407   0.00000  Uiso   1.00
C1272  C     0.52110   0.71752   0.04091   0.00000  Uiso   1.00
C1273  C     0.99942   0.74500   0.47953   0.00000  Uiso   1.00
C1274  C     0.99897   0.74547   0.52040   0.00000  Uiso   1.00
C1275  C     0.75474   0.99965   0.47953   0.00000  Uiso   1.00
C1276  C     0.75431   0.99914   0.52040   0.00000  Uiso   1.00
C1277  C     0.74911   0.50456   0.97960   0.00000  Uiso   1.00
C1278  C     0.74958   0.50502   0.02046   0.00000  Uiso   1.00
C1279  C     0.50003   0.74998   0.97990   0.00000  Uiso   1.00
C1280  C     0.50000   0.74993   0.02058   0.00000  Uiso   1.00
C1281  C     0.55767   0.69429   0.48104   0.00000  Uiso   1.00
C1282  C     0.66997   0.58002   0.25002   0.00000  Uiso   1.00
C1283  C     0.93473   0.78706   0.51982   0.00000  Uiso   1.00
C1284  C     0.80545   0.55791   0.48120   0.00000  Uiso   1.00
C1285  C     0.71267   0.93491   0.51964   0.00000  Uiso   1.00
C1286  C     0.93643   0.78957   0.47895   0.00000  Uiso   1.00
C1287  C     0.56118   0.70109   0.52139   0.00000  Uiso   1.00
C1288  C     0.71002   0.93674   0.47879   0.00000  Uiso   1.00
C1289  C     0.79865   0.56138   0.52154   0.00000  Uiso   1.00
C1290  C     0.68373   0.96474   0.98019   0.00000  Uiso   1.00
C1291  C     0.80929   0.55404   0.01891   0.00000  Uiso   1.00
C1292  C     0.52952   0.67928   0.97985   0.00000  Uiso   1.00
H1293  H     0.53135   0.84521   0.40862   0.00000  Uiso   1.00
H1294  H     0.56067   0.68652   0.62706   0.00000  Uiso   1.00
H1295  H     0.85242   0.84402   0.47308   0.00000  Uiso   1.00
H1296  H     0.61915   0.66985   0.52970   0.00000  Uiso   1.00
H1297  H     0.65198   0.72063   0.56859   0.00000  Uiso   1.00
H1298  H     0.60425   0.75089   0.57090   0.00000  Uiso   1.00
H1299  H     0.63341   0.74756   0.52576   0.00000  Uiso   1.00
H1300  H     0.72160   0.87660   0.45737   0.00000  Uiso   1.00
H1301  H     0.64332   0.88144   0.42925   0.00000  Uiso   1.00
H1302  H     0.63542   0.90665   0.47564   0.00000  Uiso   1.00
H1303  H     0.65503   0.85309   0.47273   0.00000  Uiso   1.00
H1304  H     0.82977   0.61944   0.52992   0.00000  Uiso   1.00
H1305  H     0.65463   0.53198   0.40891   0.00000  Uiso   1.00
H1306  H     0.77917   0.65204   0.56910   0.00000  Uiso   1.00
H1307  H     0.74904   0.60421   0.57142   0.00000  Uiso   1.00
H1308  H     0.75201   0.63347   0.52635   0.00000  Uiso   1.00
H1309  H     0.62598   0.93445   0.96984   0.00000  Uiso   1.00
H1310  H     0.59435   0.98814   0.93253   0.00000  Uiso   1.00
H1311  H     0.64278   0.51757   0.93265   0.00000  Uiso   1.00
H1312  H     0.61218   0.51271   0.97686   0.00000  Uiso   1.00
H1313  H     0.86996   0.57022   0.03535   0.00000  Uiso   1.00
H1314  H     0.85465   0.64365   0.04942   0.00000  Uiso   1.00
H1315  H     0.80141   0.63543   0.03293   0.00000  Uiso   1.00
H1316  H     0.67090   0.52090   0.35966   0.00000  Uiso   1.00
H1317  H     0.84437   0.63294   0.99904   0.00000  Uiso   1.00
H1318  H     0.55133   0.61790   0.96932   0.00000  Uiso   1.00
H1319  H     0.99364   0.59418   0.93200   0.00000  Uiso   1.00
H1320  H     0.97127   0.64624   0.93234   0.00000  Uiso   1.00
H1321  H     0.97204   0.61516   0.97645   0.00000  Uiso   1.00
H1322  H     0.98682   0.87783   0.04169   0.00000  Uiso   1.00
H1323  H     0.90858   0.88403   0.06981   0.00000  Uiso   1.00
H1324  H     0.89742   0.85941   0.02371   0.00000  Uiso   1.00
H1325  H     0.92408   0.90985   0.02601   0.00000  Uiso   1.00
H1326  H     0.87128   0.57697   0.97012   0.00000  Uiso   1.00
H1327  H     0.62296   0.99907   0.37786   0.00000  Uiso   1.00
H1328  H     0.90277   0.52537   0.93125   0.00000  Uiso   1.00
H1329  H     0.85429   0.99626   0.92907   0.00000  Uiso   1.00
H1330  H     0.88363   0.99896   0.97415   0.00000  Uiso   1.00
H1331  H     0.62564   0.97600   0.04242   0.00000  Uiso   1.00
H1332  H     0.62757   0.89767   0.07053   0.00000  Uiso   1.00
H1333  H     0.65259   0.88872   0.02423   0.00000  Uiso   1.00
H1334  H     0.59977   0.91027   0.02693   0.00000  Uiso   1.00
H1335  H     0.94881   0.88209   0.96983   0.00000  Uiso   1.00
H1336  H     0.50665   0.90593   0.93281   0.00000  Uiso   1.00
H1337  H     0.52900   0.85387   0.93297   0.00000  Uiso   1.00
H1338  H     0.68310   0.94526   0.37651   0.00000  Uiso   1.00
H1339  H     0.52806   0.88479   0.97724   0.00000  Uiso   1.00
H1340  H     0.51307   0.62200   0.04119   0.00000  Uiso   1.00
H1341  H     0.59128   0.61558   0.06932   0.00000  Uiso   1.00
H1342  H     0.60251   0.64030   0.02334   0.00000  Uiso   1.00
H1343  H     0.57576   0.58990   0.02541   0.00000  Uiso   1.00
H1344  H     0.65697   0.95454   0.42167   0.00000  Uiso   1.00
H1345  H     0.83129   0.98598   0.64443   0.00000  Uiso   1.00
H1346  H     0.85448   0.97832   0.59705   0.00000  Uiso   1.00
H1347  H     0.87820   0.51385   0.63153   0.00000  Uiso   1.00
H1348  H     0.84420   0.55512   0.58441   0.00000  Uiso   1.00
H1349  H     0.51984   0.82922   0.35936   0.00000  Uiso   1.00
H1350  H     0.81341   0.56077   0.62714   0.00000  Uiso   1.00
H1351  H     0.60335   0.65423   0.38329   0.00000  Uiso   1.00
H1352  H     0.58717   0.69383   0.34976   0.00000  Uiso   1.00
H1353  H     0.60251   0.70885   0.39798   0.00000  Uiso   1.00
H1354  H     0.53639   0.64876   0.41029   0.00000  Uiso   1.00
H1355  H     0.52021   0.67262   0.36816   0.00000  Uiso   1.00
H1356  H     0.51137   0.83158   0.63927   0.00000  Uiso   1.00
H1357  H     0.51722   0.85229   0.59074   0.00000  Uiso   1.00
H1358  H     0.98141   0.87658   0.62460   0.00000  Uiso   1.00
H1359  H     0.94090   0.83799   0.57944   0.00000  Uiso   1.00
H1360  H     0.99805   0.87695   0.37807   0.00000  Uiso   1.00
H1361  H     0.93683   0.81018   0.62402   0.00000  Uiso   1.00
H1362  H     0.84558   0.60356   0.38352   0.00000  Uiso   1.00
H1363  H     0.80604   0.58729   0.34991   0.00000  Uiso   1.00
H1364  H     0.79095   0.60266   0.39811   0.00000  Uiso   1.00
H1365  H     0.85107   0.53664   0.41055   0.00000  Uiso   1.00
H1366  H     0.82731   0.52038   0.36835   0.00000  Uiso   1.00
H1367  H     0.66841   0.51137   0.63921   0.00000  Uiso   1.00
H1368  H     0.64760   0.51714   0.59070   0.00000  Uiso   1.00
H1369  H     0.62341   0.98133   0.62457   0.00000  Uiso   1.00
H1370  H     0.66195   0.94083   0.57937   0.00000  Uiso   1.00
H1371  H     0.94453   0.81643   0.37678   0.00000  Uiso   1.00
H1372  H     0.68982   0.93681   0.62394   0.00000  Uiso   1.00
H1373  H     0.73822   0.58152   0.85538   0.00000  Uiso   1.00
H1374  H     0.73076   0.60493   0.90271   0.00000  Uiso   1.00
H1375  H     0.76701   0.62782   0.86848   0.00000  Uiso   1.00
H1376  H     0.80721   0.59300   0.91588   0.00000  Uiso   1.00
H1377  H     0.81252   0.56207   0.87318   0.00000  Uiso   1.00
H1378  H     0.77874   0.90414   0.09180   0.00000  Uiso   1.00
H1379  H     0.76719   0.92037   0.14099   0.00000  Uiso   1.00
H1380  H     0.74435   0.87322   0.12207   0.00000  Uiso   1.00
H1381  H     0.69240   0.93511   0.12300   0.00000  Uiso   1.00
H1382  H     0.95390   0.84264   0.42190   0.00000  Uiso   1.00
H1383  H     0.70146   0.90866   0.07795   0.00000  Uiso   1.00
H1384  H     0.91802   0.75409   0.85737   0.00000  Uiso   1.00
H1385  H     0.89558   0.74862   0.90530   0.00000  Uiso   1.00
H1386  H     0.87741   0.78931   0.87296   0.00000  Uiso   1.00
H1387  H     0.92006   0.82170   0.92021   0.00000  Uiso   1.00
H1388  H     0.94966   0.82384   0.87661   0.00000  Uiso   1.00
H1389  H     0.60076   0.76494   0.09640   0.00000  Uiso   1.00
H1390  H     0.58162   0.75333   0.14466   0.00000  Uiso   1.00
H1391  H     0.62623   0.72572   0.12596   0.00000  Uiso   1.00
H1392  H     0.55834   0.68182   0.12324   0.00000  Uiso   1.00
H1393  H     0.98584   0.66871   0.64437   0.00000  Uiso   1.00
H1394  H     0.58734   0.68935   0.07934   0.00000  Uiso   1.00
H1395  H     0.72818   0.87391   0.87550   0.00000  Uiso   1.00
H1396  H     0.75901   0.91822   0.86053   0.00000  Uiso   1.00
H1397  H     0.76478   0.89751   0.90907   0.00000  Uiso   1.00
H1398  H     0.68884   0.91346   0.92079   0.00000  Uiso   1.00
H1399  H     0.68509   0.94130   0.87622   0.00000  Uiso   1.00
H1400  H     0.85617   0.59291   0.11617   0.00000  Uiso   1.00
H1401  H     0.83900   0.55423   0.15018   0.00000  Uiso   1.00
H1402  H     0.85364   0.53816   0.10204   0.00000  Uiso   1.00
H1403  H     0.78921   0.60020   0.08963   0.00000  Uiso   1.00
H1404  H     0.97822   0.64544   0.59700   0.00000  Uiso   1.00
H1405  H     0.77251   0.57682   0.13181   0.00000  Uiso   1.00
H1406  H     0.58201   0.74603   0.85724   0.00000  Uiso   1.00
H1407  H     0.60448   0.75161   0.90516   0.00000  Uiso   1.00
H1408  H     0.62270   0.71091   0.87278   0.00000  Uiso   1.00
H1409  H     0.58014   0.67851   0.92002   0.00000  Uiso   1.00
H1410  H     0.55050   0.67627   0.87643   0.00000  Uiso   1.00
H1411  H     0.89914   0.73459   0.09602   0.00000  Uiso   1.00
H1412  H     0.91833   0.74592   0.14435   0.00000  Uiso   1.00
H1413  H     0.87364   0.77357   0.12591   0.00000  Uiso   1.00
H1414  H     0.94131   0.81769   0.12342   0.00000  Uiso   1.00
H1415  H     0.51369   0.62177   0.63148   0.00000  Uiso   1.00
H1416  H     0.91246   0.81021   0.07941   0.00000  Uiso   1.00
H1417  H     0.61782   0.67640   0.46450   0.00000  Uiso   1.00
H1418  H     0.60047   0.60341   0.45060   0.00000  Uiso   1.00
H1419  H     0.54747   0.61314   0.46703   0.00000  Uiso   1.00
H1420  H     0.59044   0.61451   0.50096   0.00000  Uiso   1.00
H1421  H     0.87761   0.81856   0.53002   0.00000  Uiso   1.00
H1422  H     0.84494   0.76583   0.56771   0.00000  Uiso   1.00
H1423  H     0.89276   0.73544   0.56777   0.00000  Uiso   1.00
H1424  H     0.86224   0.74055   0.52354   0.00000  Uiso   1.00
H1425  H     0.82330   0.61808   0.46473   0.00000  Uiso   1.00
H1426  H     0.55502   0.65569   0.58433   0.00000  Uiso   1.00
H1427  H     0.89632   0.60083   0.45102   0.00000  Uiso   1.00
H1428  H     0.88663   0.54781   0.46737   0.00000  Uiso   1.00
H1429  H     0.88516   0.59079   0.50134   0.00000  Uiso   1.00
H1430  H     0.68129   0.87769   0.52960   0.00000  Uiso   1.00
H1431  H     0.73415   0.84497   0.56710   0.00000  Uiso   1.00
H1432  H     0.76446   0.89284   0.56737   0.00000  Uiso   1.00
H1433  H     0.75929   0.86251   0.52299   0.00000  Uiso   1.00
H1434  H     0.87633   0.77756   0.45769   0.00000  Uiso   1.00
H1435  H     0.88061   0.85580   0.42951   0.00000  Uiso   1.00
H1436  H     0.90587   0.86399   0.47581   0.00000  Uiso   1.00
N1437  N     0.58688   0.66676   0.46271   0.00000  Uiso   1.00
N1438  N     0.83930   0.58072   0.03722   0.00000  Uiso   1.00
N1439  N     0.53060   0.64020   0.95937   0.00000  Uiso   1.00
N1440  N     0.96136   0.85770   0.04243   0.00000  Uiso   1.00
N1441  N     0.85152   0.55451   0.95876   0.00000  Uiso   1.00
N1442  N     0.64816   0.95263   0.04270   0.00000  Uiso   1.00
N1443  N     0.96956   0.85982   0.95981   0.00000  Uiso   1.00
N1444  N     0.53856   0.64208   0.04202   0.00000  Uiso   1.00
N1445  N     0.89627   0.79459   0.54012   0.00000  Uiso   1.00
N1446  N     0.83297   0.58715   0.46295   0.00000  Uiso   1.00
N1447  N     0.70524   0.89637   0.53979   0.00000  Uiso   1.00
N1448  N     0.89955   0.80025   0.45732   0.00000  Uiso   1.00
N1449  N     0.59998   0.69278   0.54112   0.00000  Uiso   1.00
N1450  N     0.69907   0.89997   0.45705   0.00000  Uiso   1.00
N1451  N     0.80697   0.60017   0.54137   0.00000  Uiso   1.00
N1452  N     0.64511   0.95814   0.95988   0.00000  Uiso   1.00
O1453  O     0.75000   0.50000   0.25000   0.00000  Uiso   1.00
O1454  O     0.75000   0.96539   0.66251   0.00000  Uiso   1.00
O1455  O     0.96539   0.75000   0.33749   0.00000  Uiso   1.00
O1456  O     0.53462   0.75000   0.66251   0.00000  Uiso   1.00
O1457  O     0.50000   0.71539   0.83749   0.00000  Uiso   1.00
O1458  O     0.50000   0.78462   0.16251   0.00000  Uiso   1.00
O1459  O     0.78462   0.50000   0.83749   0.00000  Uiso   1.00
O1460  O     0.71539   0.50000   0.16251   0.00000  Uiso   1.00
O1461  O     0.50000   0.78462   0.83749   0.00000  Uiso   1.00
O1462  O     0.50000   0.71539   0.16251   0.00000  Uiso   1.00
O1463  O     0.71539   0.50000   0.83749   0.00000  Uiso   1.00
O1464  O     0.75000   0.50000   0.75000   0.00000  Uiso   1.00
O1465  O     0.78462   0.50000   0.16251   0.00000  Uiso   1.00
O1466  O     0.70127   0.58332   0.27298   0.00000  Uiso   1.00
O1467  O     0.79874   0.91668   0.72702   0.00000  Uiso   1.00
O1468  O     0.91668   0.70127   0.27298   0.00000  Uiso   1.00
O1469  O     0.58332   0.79874   0.72702   0.00000  Uiso   1.00
O1470  O     0.79874   0.91668   0.27298   0.00000  Uiso   1.00
O1471  O     0.70127   0.58332   0.72702   0.00000  Uiso   1.00
O1472  O     0.58332   0.79874   0.27298   0.00000  Uiso   1.00
O1473  O     0.91668   0.70127   0.72702   0.00000  Uiso   1.00
O1474  O     0.70127   0.91668   0.72702   0.00000  Uiso   1.00
O1475  O     0.50000   0.75000   0.25000   0.00000  Uiso   1.00
O1476  O     0.79874   0.58332   0.27298   0.00000  Uiso   1.00
O1477  O     0.91668   0.79874   0.72702   0.00000  Uiso   1.00
O1478  O     0.58332   0.70127   0.27298   0.00000  Uiso   1.00
O1479  O     0.79874   0.58332   0.72702   0.00000  Uiso   1.00
O1480  O     0.70127   0.91668   0.27298   0.00000  Uiso   1.00
O1481  O     0.58332   0.70127   0.72702   0.00000  Uiso   1.00
O1482  O     0.91668   0.79874   0.27298   0.00000  Uiso   1.00
O1483  O     0.95127   0.83332   0.77298   0.00000  Uiso   1.00
O1484  O     0.54874   0.66668   0.22702   0.00000  Uiso   1.00
O1485  O     0.66668   0.95127   0.77298   0.00000  Uiso   1.00
O1486  O     0.50000   0.75000   0.75000   0.00000  Uiso   1.00
O1487  O     0.83332   0.54874   0.22702   0.00000  Uiso   1.00
O1488  O     0.54874   0.66668   0.77298   0.00000  Uiso   1.00
O1489  O     0.95127   0.83332   0.22702   0.00000  Uiso   1.00
O1490  O     0.83332   0.54874   0.77298   0.00000  Uiso   1.00
O1491  O     0.66668   0.95127   0.22702   0.00000  Uiso   1.00
O1492  O     0.95127   0.66668   0.22702   0.00000  Uiso   1.00
O1493  O     0.54874   0.83332   0.77298   0.00000  Uiso   1.00
O1494  O     0.66668   0.54874   0.22702   0.00000  Uiso   1.00
O1495  O     0.83332   0.95127   0.77298   0.00000  Uiso   1.00
O1496  O     0.54874   0.83332   0.22702   0.00000  Uiso   1.00
O1497  O     0.75000   0.96539   0.33749   0.00000  Uiso   1.00
O1498  O     0.95127   0.66668   0.77298   0.00000  Uiso   1.00
O1499  O     0.83332   0.95127   0.22702   0.00000  Uiso   1.00
O1500  O     0.66668   0.54874   0.77298   0.00000  Uiso   1.00
O1501  O     0.75000   0.53462   0.66251   0.00000  Uiso   1.00
O1502  O     0.53462   0.75000   0.33749   0.00000  Uiso   1.00
O1503  O     0.96539   0.75000   0.66251   0.00000  Uiso   1.00
O1504  O     0.75000   0.53462   0.33749   0.00000  Uiso   1.00
Zn1505 Zn    0.70053   0.50000   0.21730   0.00000  Uiso   1.00
Zn1506 Zn    0.54948   0.75000   0.28270   0.00000  Uiso   1.00
Zn1507 Zn    0.75000   0.95053   0.71730   0.00000  Uiso   1.00
Zn1508 Zn    0.75000   0.54948   0.28270   0.00000  Uiso   1.00
Zn1509 Zn    0.54948   0.75000   0.71730   0.00000  Uiso   1.00
Zn1510 Zn    0.95053   0.75000   0.28270   0.00000  Uiso   1.00
Zn1511 Zn    0.75000   0.54948   0.71730   0.00000  Uiso   1.00
Zn1512 Zn    0.75000   0.95053   0.28270   0.00000  Uiso   1.00
Zn1513 Zn    0.79948   0.50000   0.78270   0.00000  Uiso   1.00
Zn1514 Zn    0.50000   0.70053   0.21730   0.00000  Uiso   1.00
Zn1515 Zn    0.50000   0.79948   0.78270   0.00000  Uiso   1.00
Zn1516 Zn    0.79948   0.50000   0.21730   0.00000  Uiso   1.00
Zn1517 Zn    0.70053   0.50000   0.78270   0.00000  Uiso   1.00
Zn1518 Zn    0.50000   0.79948   0.21730   0.00000  Uiso   1.00
Zn1519 Zn    0.50000   0.70053   0.78270   0.00000  Uiso   1.00
Zn1520 Zn    0.95053   0.75000   0.71730   0.00000  Uiso   1.00
loop_
_geom_bond_atom_site_label_1
_geom_bond_atom_site_label_2
_geom_bond_distance
_geom_bond_site_symmetry_2
_ccdc_geom_bond_type
C1     O364    1.267   .     A
C1     C108    1.466   .     S
C1     O1117   1.273   1_545 S
C2     C84     1.421   .     S
C2     O327    1.275   .     A
C2     O355    1.275   .     A
C3     N300    1.429   .     S
C3     C127    1.421   .     A
C3     C6      1.416   1_554 S
C4     C128    1.408   .     A
C4     N301    1.433   .     S
C4     C151    1.412   1_556 S
C5     C129    1.421   .     A
C5     N302    1.430   .     S
C5     C150    1.413   1_554 S
C6     C130    1.415   .     A
C6     N303    1.428   .     S
C6     C3      1.416   1_556 S
C7     C132    1.421   .     A
C7     N304    1.429   .     S
C7     C152    1.416   1_554 S
C8     C89     1.529   .     S
C8     H231    1.110   .     S
C8     H242    1.101   .     S
C8     C389    1.532   .     S
C9     H153    1.111   .     S
C9     H209    1.107   .     S
C9     C388    1.532   1_455 S
C9     H600    1.111   1_455 S
C10    H154    1.109   .     S
C10    C11     1.531   .     S
C10    H286    1.106   .     S
C10    C90     1.533   .     S
C11    H275    1.111   .     S
C11    H633    1.107   1_455 S
C11    H644    1.111   1_455 S
C12    C91     1.528   .     S
C12    H198    1.110   .     S
C12    H204    1.101   .     S
C12    C774    1.532   .     S
C13    C83     1.421   .     S
C13    O352    1.275   .     A
C13    O328    1.275   .     A
C14    H176    1.107   .     S
C14    H165    1.111   .     S
C14    C772    1.532   1_545 S
C14    H947    1.111   1_545 S
C15    H208    1.106   .     S
C15    H210    1.109   .     S
C15    C16     1.531   .     S
C15    C92     1.533   .     S
C16    H207    1.111   .     S
C16    H965    1.107   1_545 S
C16    H966    1.111   1_545 S
C17    C18     1.536   .     S
C17    C93     1.529   .     S
C17    H214    1.104   .     S
C17    H215    1.111   .     S
C18    H211    1.111   .     S
C18    H213    1.111   .     S
C18    H212    1.107   .     S
C19    C20     1.531   .     S
C19    C94     1.531   .     S
C19    H221    1.109   .     S
C19    H219    1.106   .     S
C20    H218    1.111   .     S
C20    H596    1.108   .     S
C20    H597    1.111   .     S
C21    C95     1.529   .     S
C21    C22     1.536   .     S
C21    H226    1.111   .     S
C21    H225    1.104   .     S
C22    H224    1.111   .     S
C22    H222    1.111   .     S
C22    H223    1.107   .     S
C23    C96     1.531   .     S
C23    H232    1.109   .     S
C23    C25     1.531   .     S
C23    H230    1.106   .     S
C24    O329    1.275   .     A
C24    C82     1.421   .     S
C24    O353    1.275   .     A
C25    H229    1.111   .     S
C25    H987    1.108   .     S
C25    H988    1.111   .     S
C26    H236    1.106   .     S
C26    H237    1.109   .     S
C26    C97     1.533   .     S
C26    C27     1.531   .     S
C27    H234    1.111   .     S
C27    H235    1.111   .     S
C27    H233    1.107   .     S
C28    C99     1.529   .     S
C28    C29     1.532   .     S
C28    H241    1.110   .     S
C28    H243    1.102   .     S
C29    H238    1.111   .     S
C29    H240    1.111   .     S
C29    H239    1.107   .     S
C30    H248    1.109   .     S
C30    C100    1.532   .     S
C30    C31     1.531   .     S
C30    H247    1.107   .     S
C31    H246    1.111   .     S
C31    H244    1.108   .     S
C31    H245    1.111   .     S
C32    H254    1.102   .     S
C32    C101    1.527   .     S
C32    C33     1.532   .     S
C32    H252    1.110   .     S
C33    H250    1.107   .     S
C33    H249    1.111   .     S
C33    H251    1.111   .     S
C34    C102    1.531   .     S
C34    C36     1.531   .     S
C34    H258    1.107   .     S
C34    H259    1.109   .     S
C35    C81     1.421   .     S
C35    O330    1.275   .     A
C35    O359    1.276   .     A
C36    H255    1.111   .     S
C36    H256    1.108   .     S
C36    H257    1.111   .     S
C37    C38     1.537   .     S
C37    C103    1.529   .     S
C37    H265    1.111   .     S
C37    H263    1.104   .     S
C38    H262    1.111   .     S
C38    H260    1.111   .     S
C38    H261    1.107   .     S
C39    H270    1.109   .     S
C39    C104    1.532   .     S
C39    C40     1.531   .     S
C39    H269    1.107   .     S
C40    H267    1.111   .     S
C40    H266    1.108   .     S
C40    H268    1.111   .     S
C41    C105    1.527   .     S
C41    H276    1.102   .     S
C41    C42     1.532   .     S
C41    H274    1.110   .     S
C42    H272    1.107   .     S
C42    H271    1.111   .     S
C42    H273    1.111   .     S
C43    N297    1.452   .     S
C43    H279    1.111   .     S
C43    H280    1.108   .     S
C43    H278    1.110   .     S
C44    H283    1.111   .     S
C44    N305    1.446   .     S
C44    H282    1.110   .     S
C44    H284    1.111   .     S
C45    H288    1.111   .     S
C45    H289    1.108   .     S
C45    N306    1.452   .     S
C45    H287    1.110   .     S
C46    O360    1.276   .     A
C46    C80     1.422   .     S
C46    O331    1.275   .     A
C47    H291    1.110   .     S
C47    N307    1.446   .     S
C47    H292    1.111   .     S
C47    H293    1.111   .     S
C48    H155    1.111   .     S
C48    H296    1.112   .     S
C48    N308    1.452   .     S
C48    H295    1.110   .     S
C49    H157    1.110   .     S
C49    H159    1.111   .     S
C49    N309    1.448   .     S
C49    H158    1.111   .     S
C50    H162    1.112   .     S
C50    H163    1.111   .     S
C50    H161    1.110   .     S
C50    N310    1.452   .     S
C51    H167    1.110   .     S
C51    N311    1.448   .     S
C51    H168    1.111   .     S
C51    H166    1.111   .     S
C52    H170    1.110   .     S
C52    N312    1.446   .     S
C52    H931    1.111   .     S
C52    H932    1.111   .     S
C53    H175    1.111   .     S
C53    N298    1.452   .     S
C53    H174    1.110   .     S
C53    H177    1.108   1_554 S
C54    H181    1.111   .     S
C54    H179    1.110   .     S
C54    H180    1.111   .     S
C54    N679    1.447   .     S
C55    H184    1.112   .     S
C55    H183    1.110   .     S
C55    H185    1.111   .     S
C55    N300    1.452   .     S
C56    N301    1.447   .     S
C56    H188    1.111   .     S
C56    H949    1.111   1_545 S
C56    H950    1.112   1_545 S
C57    O356    1.275   .     A
C57    O332    1.276   .     A
C57    C88     1.421   .     S
C58    H192    1.110   .     S
C58    H193    1.112   .     S
C58    H194    1.111   .     S
C58    N302    1.452   .     S
C59    H196    1.110   .     S
C59    H199    1.111   .     S
C59    H197    1.111   .     S
C59    N683    1.447   1_455 S
C60    H202    1.112   .     S
C60    N304    1.452   .     S
C60    H201    1.110   .     S
C60    H203    1.111   .     S
C61    O358    1.275   .     A
C61    O333    1.276   .     A
C61    C86     1.421   .     S
C62    C77     1.421   .     S
C62    O334    1.275   .     A
C62    O345    1.275   .     A
C63    O347    1.275   .     A
C63    C75     1.421   .     S
C63    O336    1.275   .     A
C64    O337    1.275   .     A
C64    C74     1.421   .     S
C64    O343    1.275   .     A
C65    C110    1.463   .     S
C65    O314    1.269   .     A
C65    O1121   1.271   .     S
C66    O338    1.275   .     A
C66    C73     1.421   .     S
C66    O344    1.275   .     A
C67    C72     1.421   .     S
C67    O350    1.276   .     A
C67    O339    1.275   .     A
C68    O351    1.276   .     A
C68    C71     1.421   .     S
C68    O340    1.275   .     A
C69    C79     1.421   .     S
C69    O348    1.275   .     A
C69    O341    1.276   .     A
C70    O342    1.276   .     A
C70    O349    1.275   .     A
C70    C78     1.421   .     S
C71    C88     1.198   .     T
C72    C86     1.198   .     T
C73    C85     1.198   .     T
C74    C84     1.198   .     T
C75    C83     1.198   .     T
C76    C106    1.466   .     S
C76    O362    1.267   .     A
C76    O695    1.273   1_455 S
C77    C82     1.198   .     T
C78    C81     1.198   .     T
C79    C80     1.198   .     T
C85    C142    1.421   .     S
C87    C107    1.463   .     S
C87    O363    1.269   .     A
C87    O696    1.271   .     S
C89    C119    1.408   .     A
C89    C486    1.408   .     S
C90    C121    1.416   .     A
C90    C487    1.414   1_455 S
C91    C122    1.408   .     A
C91    C868    1.407   .     S
C92    C123    1.416   .     A
C92    C870    1.414   1_545 S
C93    C106    1.421   .     A
C93    C115    1.432   .     A
C94    C107    1.414   .     A
C94    C116    1.415   .     A
C95    C108    1.421   .     A
C95    C117    1.432   .     A
C96    C110    1.414   .     A
C96    C118    1.415   .     A
C97    C128    1.416   .     A
C97    C111    1.414   .     A
C98    C113    1.469   .     S
C98    O317    1.272   .     S
C98    O321    1.272   .     S
C99    C129    1.408   .     A
C99    C872    1.408   .     S
C100   C130    1.415   .     A
C100   C493    1.419   .     S
C101   C132    1.415   .     A
C101   C494    1.415   1_455 S
C102   C124    1.415   .     A
C102   C871    1.414   .     S
C103   C112    1.421   .     A
C103   C125    1.432   .     A
C104   C113    1.419   .     A
C104   C126    1.415   .     A
C105   C127    1.414   .     A
C105   C114    1.415   .     A
C106   C469    1.408   1_455 S
C107   C470    1.414   .     S
C108   C851    1.407   1_545 S
C109   C114    1.464   .     S
C109   O702    1.270   .     A
C109   O698    1.270   .     A
C110   C852    1.414   .     S
C111   C862    1.414   1_545 S
C111   C120    1.463   .     S
C112   C131    1.466   .     S
C112   C859    1.408   1_545 S
C113   C480    1.419   1_455 S
C114   C481    1.415   .     S
C115   C141    1.433   .     A
C115   C513    1.426   1_455 S
C116   C134    1.412   .     A
C116   C143    1.412   .     A
C117   C144    1.433   .     A
C117   C895    1.426   1_545 S
C118   C136    1.412   .     A
C118   C145    1.412   .     A
C119   C146    1.421   .     A
C119   C133    1.417   .     A
C120   O319    1.271   .     A
C120   O323    1.269   .     A
C121   C147    1.408   .     A
C121   C514    1.409   1_455 S
C122   C148    1.421   .     A
C122   C135    1.417   .     A
C123   C149    1.408   .     A
C123   C896    1.409   1_545 S
C124   C150    1.412   .     A
C124   C897    1.412   .     S
C125   C138    1.426   .     A
C125   C151    1.433   .     A
C126   C152    1.415   .     A
C126   C139    1.409   .     A
C127   C520    1.415   .     A
C128   C137    1.408   .     A
C129   C898    1.417   .     S
C130   C519    1.409   .     S
C131   O320    1.273   .     A
C131   O325    1.267   .     A
C132   C140    1.415   .     S
C133   C134    1.410   .     A
C133   C495    1.426   .     S
C134   C501    1.409   .     S
C135   C136    1.410   .     A
C135   C877    1.426   .     S
C136   C883    1.409   .     S
C137   C884    1.412   1_545 S
C137   C138    1.409   1_556 S
C138   C889    1.417   1_545 S
C138   C137    1.409   1_554 S
C139   C510    1.409   1_455 S
C139   C140    1.403   1_556 S
C140   C507    1.415   1_455 A
C140   C139    1.403   1_554 S
C141   C147    1.412   .     A
C141   N297    1.422   .     S
C142   O354    1.275   .     A
C142   O326    1.275   .     A
C143   N305    1.428   .     S
C143   C146    1.413   .     A
C144   N306    1.422   .     S
C144   C149    1.412   .     A
C145   C148    1.413   .     A
C145   N307    1.428   .     S
C146   N308    1.430   .     S
C147   N309    1.432   .     S
C148   N310    1.430   .     S
C149   N311    1.433   .     S
C150   N312    1.428   .     S
C150   C5      1.413   1_556 S
C151   N298    1.422   .     S
C151   C4      1.412   1_554 S
C152   N299    1.428   .     S
C152   C7      1.416   1_556 S
H156   N309    1.027   .     S
H160   N310    1.031   .     S
H164   N311    1.027   .     S
H169   N312    1.026   .     S
H171   C812    1.111   1_545 S
H172   C812    1.111   1_545 S
H173   N298    1.031   .     S
H177   C53     1.108   1_556 S
H178   N299    1.026   .     S
H182   N300    1.031   .     S
H186   N301    1.028   .     S
H187   C774    1.111   .     S
H189   C816    1.111   .     S
H190   C816    1.112   .     S
H191   N302    1.031   .     S
H195   N303    1.026   .     S
H200   N304    1.031   .     S
H205   C776    1.107   .     S
H206   C776    1.111   .     S
H216   C400    1.108   1_455 S
H217   C400    1.111   1_455 S
H220   C389    1.111   .     S
H227   C785    1.108   1_545 S
H228   C785    1.111   1_545 S
H253   C391    1.107   .     S
H264   C391    1.111   .     S
H277   N297    1.031   .     S
H281   N305    1.026   .     S
H285   N306    1.031   .     S
H290   N307    1.026   .     S
H294   N308    1.031   .     S
N299   C434    1.447   1_455 S
N303   C439    1.447   .     S
O313   Zn368   1.933   .     S
O313   Zn365   1.934   .     S
O313   Zn376   1.934   .     S
O313   Zn1132  1.935   1_545 S
O314   Zn367   1.948   .     S
O315   Zn370   1.948   .     S
O315   C456    1.273   .     S
O316   Zn369   1.948   .     S
O316   C467    1.271   1_455 S
O317   Zn379   1.947   .     S
O318   Zn378   1.947   .     S
O318   C489    1.270   1_455 A
O319   Zn373   1.948   .     S
O320   Zn365   1.948   .     S
O321   Zn375   1.948   .     S
O322   Zn374   1.948   .     S
O322   C489    1.270   1_455 A
O323   Zn377   1.948   .     S
O324   Zn371   1.935   .     S
O324   Zn373   1.934   .     S
O324   Zn377   1.934   .     S
O324   Zn1127  1.933   1_545 S
O325   Zn376   1.948   .     S
O326   Zn368   1.914   .     S
O327   Zn367   1.914   .     S
O328   Zn370   1.913   .     S
O329   Zn369   1.913   .     S
O330   Zn372   1.914   .     S
O331   Zn371   1.914   .     S
O332   Zn366   1.914   .     S
O333   Zn380   1.914   .     S
O334   Zn367   1.914   .     S
O335   Zn750   1.934   1_455 S
O335   Zn374   1.933   .     S
O335   Zn378   1.935   .     S
O335   Zn366   1.934   .     S
O336   Zn368   1.914   .     S
O337   Zn380   1.914   .     S
O338   Zn366   1.914   .     S
O339   Zn371   1.914   .     S
O340   Zn372   1.914   .     S
O341   Zn369   1.914   .     S
O342   Zn370   1.914   .     S
O343   Zn755   1.914   .     S
O344   Zn374   1.914   .     S
O345   Zn1137  1.913   .     S
O346   Zn379   1.935   .     S
O346   Zn375   1.933   .     S
O346   Zn760   1.934   1_455 S
O346   Zn369   1.934   .     S
O347   Zn376   1.913   .     S
O348   Zn379   1.914   .     S
O349   Zn758   1.914   .     S
O350   Zn373   1.914   .     S
O351   Zn1125  1.914   .     S
O352   Zn754   1.914   .     S
O353   Zn375   1.914   .     S
O354   Zn365   1.914   .     S
O355   Zn1133  1.914   .     S
O356   Zn378   1.914   .     S
O357   Zn372   1.947   .     S
O357   C761    1.273   .     S
O358   Zn759   1.914   .     S
O359   Zn1136  1.914   .     S
O360   Zn377   1.914   .     S
O361   Zn371   1.947   .     S
O361   C825    1.271   1_545 S
O362   Zn366   1.948   .     S
O363   Zn380   1.948   .     S
O364   Zn368   1.948   .     S
Zn365  O1111   1.914   1_545 S
Zn367  O1084   1.933   .     S
Zn370  O715    1.934   .     S
Zn372  O1073   1.935   .     S
Zn373  O1115   1.914   1_545 S
Zn374  O732    1.914   1_455 S
Zn375  O723    1.914   1_455 S
Zn376  O1119   1.914   1_545 S
Zn377  O1105   1.913   1_545 S
Zn378  O729    1.914   1_455 S
Zn379  O738    1.914   1_455 S
Zn380  O726    1.934   .     S
C381   O744    1.267   .     A
C381   C488    1.466   .     S
C381   O1497   1.273   1_545 S
C382   C464    1.421   .     S
C382   O707    1.275   .     A
C382   O735    1.275   .     A
C383   N680    1.429   .     S
C383   C507    1.421   .     A
C383   C386    1.416   1_554 S
C384   C508    1.408   .     A
C384   N681    1.433   .     S
C384   C531    1.412   1_556 S
C385   C509    1.421   .     A
C385   N682    1.430   .     S
C385   C530    1.413   1_554 S
C386   C510    1.415   .     A
C386   N683    1.428   .     S
C386   C383    1.416   1_556 S
C387   C512    1.421   .     A
C387   N684    1.429   .     S
C387   C532    1.416   1_554 S
C388   C469    1.529   .     S
C388   H611    1.110   .     S
C388   H622    1.101   .     S
C388   C9      1.532   1_655 S
C389   H533    1.111   .     S
C389   H589    1.107   .     S
C390   H534    1.109   .     S
C390   C391    1.531   .     S
C390   H666    1.106   .     S
C390   C470    1.533   .     S
C391   H655    1.111   .     S
C392   C471    1.528   .     S
C392   H578    1.110   .     S
C392   H584    1.101   .     S
C392   C1154   1.532   .     S
C393   C463    1.421   .     S
C393   O732    1.275   .     A
C393   O708    1.275   .     A
C394   H556    1.107   .     S
C394   H545    1.111   .     S
C394   C1152   1.532   1_545 S
C394   H1327   1.111   1_545 S
C395   H588    1.106   .     S
C395   H590    1.109   .     S
C395   C396    1.531   .     S
C395   C472    1.533   .     S
C396   H587    1.111   .     S
C396   H1345   1.107   1_545 S
C396   H1346   1.111   1_545 S
C397   C398    1.536   .     S
C397   C473    1.529   .     S
C397   H594    1.104   .     S
C397   H595    1.111   .     S
C398   H591    1.111   .     S
C398   H593    1.111   .     S
C398   H592    1.107   .     S
C399   C400    1.531   .     S
C399   C474    1.531   .     S
C399   H601    1.109   .     S
C399   H599    1.106   .     S
C400   H598    1.111   .     S
C400   H216    1.108   1_655 S
C400   H217    1.111   1_655 S
C401   C475    1.529   .     S
C401   C402    1.536   .     S
C401   H606    1.111   .     S
C401   H605    1.104   .     S
C402   H604    1.111   .     S
C402   H602    1.111   .     S
C402   H603    1.107   .     S
C403   C476    1.531   .     S
C403   H612    1.109   .     S
C403   C405    1.531   .     S
C403   H610    1.106   .     S
C404   O709    1.275   .     A
C404   C462    1.421   .     S
C404   O733    1.275   .     A
C405   H609    1.111   .     S
C405   H1367   1.108   .     S
C405   H1368   1.111   .     S
C406   H616    1.106   .     S
C406   H617    1.109   .     S
C406   C477    1.533   .     S
C406   C407    1.531   .     S
C407   H614    1.111   .     S
C407   H615    1.111   .     S
C407   H613    1.107   .     S
C408   C479    1.529   .     S
C408   C409    1.532   .     S
C408   H621    1.110   .     S
C408   H623    1.102   .     S
C409   H618    1.111   .     S
C409   H620    1.111   .     S
C409   H619    1.107   .     S
C410   H628    1.109   .     S
C410   C480    1.532   .     S
C410   C411    1.531   .     S
C410   H627    1.107   .     S
C411   H626    1.111   .     S
C411   H624    1.108   .     S
C411   H625    1.111   .     S
C412   H634    1.102   .     S
C412   C481    1.527   .     S
C412   C413    1.532   .     S
C412   H632    1.110   .     S
C413   H630    1.107   .     S
C413   H629    1.111   .     S
C413   H631    1.111   .     S
C414   C482    1.531   .     S
C414   C416    1.531   .     S
C414   H638    1.107   .     S
C414   H639    1.109   .     S
C415   C461    1.421   .     S
C415   O710    1.275   .     A
C415   O739    1.276   .     A
C416   H635    1.111   .     S
C416   H636    1.108   .     S
C416   H637    1.111   .     S
C417   C418    1.537   .     S
C417   C483    1.529   .     S
C417   H645    1.111   .     S
C417   H643    1.104   .     S
C418   H642    1.111   .     S
C418   H640    1.111   .     S
C418   H641    1.107   .     S
C419   H650    1.109   .     S
C419   C484    1.532   .     S
C419   C420    1.531   .     S
C419   H649    1.107   .     S
C420   H647    1.111   .     S
C420   H646    1.108   .     S
C420   H648    1.111   .     S
C421   C485    1.527   .     S
C421   H656    1.102   .     S
C421   C422    1.532   .     S
C421   H654    1.110   .     S
C422   H652    1.107   .     S
C422   H651    1.111   .     S
C422   H653    1.111   .     S
C423   N677    1.452   .     S
C423   H659    1.111   .     S
C423   H660    1.108   .     S
C423   H658    1.110   .     S
C424   H663    1.111   .     S
C424   N685    1.446   .     S
C424   H662    1.110   .     S
C424   H664    1.111   .     S
C425   H668    1.111   .     S
C425   H669    1.108   .     S
C425   N686    1.452   .     S
C425   H667    1.110   .     S
C426   O740    1.276   .     A
C426   C460    1.422   .     S
C426   O711    1.275   .     A
C427   H671    1.110   .     S
C427   N687    1.446   .     S
C427   H672    1.111   .     S
C427   H673    1.111   .     S
C428   H535    1.111   .     S
C428   H676    1.112   .     S
C428   N688    1.452   .     S
C428   H675    1.110   .     S
C429   H537    1.110   .     S
C429   H539    1.111   .     S
C429   N689    1.448   .     S
C429   H538    1.111   .     S
C430   H542    1.112   .     S
C430   H543    1.111   .     S
C430   H541    1.110   .     S
C430   N690    1.452   .     S
C431   H547    1.110   .     S
C431   N691    1.448   .     S
C431   H548    1.111   .     S
C431   H546    1.111   .     S
C432   H550    1.110   .     S
C432   N692    1.446   .     S
C432   H1311   1.111   .     S
C432   H1312   1.111   .     S
C433   H555    1.111   .     S
C433   N678    1.452   .     S
C433   H554    1.110   .     S
C433   H557    1.108   1_554 S
C434   H561    1.111   .     S
C434   H559    1.110   .     S
C434   H560    1.111   .     S
C434   N299    1.447   1_655 S
C435   H564    1.112   .     S
C435   H563    1.110   .     S
C435   H565    1.111   .     S
C435   N680    1.452   .     S
C436   N681    1.447   .     S
C436   H568    1.111   .     S
C436   H1329   1.111   1_545 S
C436   H1330   1.112   1_545 S
C437   O736    1.275   .     A
C437   O712    1.276   .     A
C437   C468    1.421   .     S
C438   H572    1.110   .     S
C438   H573    1.112   .     S
C438   H574    1.111   .     S
C438   N682    1.452   .     S
C439   H576    1.110   .     S
C439   H579    1.111   .     S
C439   H577    1.111   .     S
C440   H582    1.112   .     S
C440   N684    1.452   .     S
C440   H581    1.110   .     S
C440   H583    1.111   .     S
C441   O738    1.275   .     A
C441   O713    1.276   .     A
C441   C466    1.421   .     S
C442   C457    1.421   .     S
C442   O714    1.275   .     A
C442   O725    1.275   .     A
C443   O727    1.275   .     A
C443   C455    1.421   .     S
C443   O716    1.275   .     A
C444   O717    1.275   .     A
C444   C454    1.421   .     S
C444   O723    1.275   .     A
C445   C490    1.463   .     S
C445   O694    1.269   .     A
C445   O1501   1.271   .     S
C446   O718    1.275   .     A
C446   C453    1.421   .     S
C446   O724    1.275   .     A
C447   C452    1.421   .     S
C447   O730    1.276   .     A
C447   O719    1.275   .     A
C448   O731    1.276   .     A
C448   C451    1.421   .     S
C448   O720    1.275   .     A
C449   C459    1.421   .     S
C449   O728    1.275   .     A
C449   O721    1.276   .     A
C450   O722    1.276   .     A
C450   O729    1.275   .     A
C450   C458    1.421   .     S
C451   C468    1.198   .     T
C452   C466    1.198   .     T
C453   C465    1.198   .     T
C454   C464    1.198   .     T
C455   C463    1.198   .     T
C456   C486    1.466   .     S
C456   O742    1.267   .     A
C457   C462    1.198   .     T
C458   C461    1.198   .     T
C459   C460    1.198   .     T
C465   C522    1.421   .     S
C467   C487    1.463   .     S
C467   O743    1.269   .     A
C467   O316    1.271   1_655 S
C469   C499    1.408   .     A
C469   C106    1.408   1_655 S
C470   C501    1.416   .     A
C471   C502    1.408   .     A
C471   C1248   1.407   .     S
C472   C503    1.416   .     A
C472   C1250   1.414   1_545 S
C473   C486    1.421   .     A
C473   C495    1.432   .     A
C474   C487    1.414   .     A
C474   C496    1.415   .     A
C475   C488    1.421   .     A
C475   C497    1.432   .     A
C476   C490    1.414   .     A
C476   C498    1.415   .     A
C477   C508    1.416   .     A
C477   C491    1.414   .     A
C478   C493    1.469   .     S
C478   O697    1.272   .     S
C478   O701    1.272   .     S
C479   C509    1.408   .     A
C479   C1252   1.408   .     S
C480   C510    1.415   .     A
C480   C113    1.419   1_655 S
C481   C512    1.415   .     A
C482   C504    1.415   .     A
C482   C1251   1.414   .     S
C483   C492    1.421   .     A
C483   C505    1.432   .     A
C484   C493    1.419   .     A
C484   C506    1.415   .     A
C485   C507    1.414   .     A
C485   C494    1.415   .     A
C487   C90     1.414   1_655 S
C488   C1231   1.407   1_545 S
C489   C494    1.464   .     S
C489   O322    1.270   1_655 A
C489   O318    1.270   1_655 A
C490   C1232   1.414   .     S
C491   C1242   1.414   1_545 S
C491   C500    1.463   .     S
C492   C511    1.466   .     S
C492   C1239   1.408   1_545 S
C494   C101    1.415   1_655 S
C495   C521    1.433   .     A
C496   C514    1.412   .     A
C496   C523    1.412   .     A
C497   C524    1.433   .     A
C497   C1275   1.426   1_545 S
C498   C516    1.412   .     A
C498   C525    1.412   .     A
C499   C526    1.421   .     A
C499   C513    1.417   .     A
C500   O699    1.271   .     A
C500   O703    1.269   .     A
C501   C527    1.408   .     A
C502   C528    1.421   .     A
C502   C515    1.417   .     A
C503   C529    1.408   .     A
C503   C1276   1.409   1_545 S
C504   C530    1.412   .     A
C504   C1277   1.412   .     S
C505   C518    1.426   .     A
C505   C531    1.433   .     A
C506   C532    1.415   .     A
C506   C519    1.409   .     A
C507   C140    1.415   1_655 A
C508   C517    1.408   .     A
C509   C1278   1.417   .     S
C510   C139    1.409   1_655 S
C511   O700    1.273   .     A
C511   O705    1.267   .     A
C512   C520    1.415   .     S
C513   C514    1.410   .     A
C513   C115    1.426   1_655 S
C514   C121    1.409   1_655 S
C515   C516    1.410   .     A
C515   C1257   1.426   .     S
C516   C1263   1.409   .     S
C517   C1264   1.412   1_545 S
C517   C518    1.409   1_556 S
C518   C1269   1.417   1_545 S
C518   C517    1.409   1_554 S
C519   C520    1.403   1_556 S
C520   C519    1.403   1_554 S
C521   C527    1.412   .     A
C521   N677    1.422   .     S
C522   O734    1.275   .     A
C522   O706    1.275   .     A
C523   N685    1.428   .     S
C523   C526    1.413   .     A
C524   N686    1.422   .     S
C524   C529    1.412   .     A
C525   C528    1.413   .     A
C525   N687    1.428   .     S
C526   N688    1.430   .     S
C527   N689    1.432   .     S
C528   N690    1.430   .     S
C529   N691    1.433   .     S
C530   N692    1.428   .     S
C530   C385    1.413   1_556 S
C531   N678    1.422   .     S
C531   C384    1.412   1_554 S
C532   N679    1.428   .     S
C532   C387    1.416   1_556 S
H536   N689    1.027   .     S
H540   N690    1.031   .     S
H544   N691    1.027   .     S
H549   N692    1.026   .     S
H551   C1192   1.111   1_545 S
H552   C1192   1.111   1_545 S
H553   N678    1.031   .     S
H557   C433    1.108   1_556 S
H558   N679    1.026   .     S
H562   N680    1.031   .     S
H566   N681    1.028   .     S
H567   C1154   1.111   .     S
H569   C1196   1.111   .     S
H570   C1196   1.112   .     S
H571   N682    1.031   .     S
H575   N683    1.026   .     S
H580   N684    1.031   .     S
H585   C1156   1.107   .     S
H586   C1156   1.111   .     S
H600   C9      1.111   1_655 S
H607   C1165   1.108   1_545 S
H608   C1165   1.111   1_545 S
H633   C11     1.107   1_655 S
H644   C11     1.111   1_655 S
H657   N677    1.031   .     S
H661   N685    1.026   .     S
H665   N686    1.031   .     S
H670   N687    1.026   .     S
H674   N688    1.031   .     S
N683   C59     1.447   1_655 S
O693   Zn748   1.933   .     S
O693   Zn745   1.934   .     S
O693   Zn756   1.934   .     S
O693   Zn1512  1.935   1_545 S
O694   Zn747   1.948   .     S
O695   Zn750   1.948   .     S
O695   C76     1.273   1_655 S
O696   Zn749   1.948   .     S
O697   Zn759   1.947   .     S
O698   Zn758   1.947   .     S
O699   Zn753   1.948   .     S
O700   Zn745   1.948   .     S
O701   Zn755   1.948   .     S
O702   Zn754   1.948   .     S
O703   Zn757   1.948   .     S
O704   Zn751   1.935   .     S
O704   Zn753   1.934   .     S
O704   Zn757   1.934   .     S
O704   Zn1507  1.933   1_545 S
O705   Zn756   1.948   .     S
O706   Zn748   1.914   .     S
O707   Zn747   1.914   .     S
O708   Zn750   1.913   .     S
O709   Zn749   1.913   .     S
O710   Zn752   1.914   .     S
O711   Zn751   1.914   .     S
O712   Zn746   1.914   .     S
O713   Zn760   1.914   .     S
O714   Zn747   1.914   .     S
O715   Zn754   1.933   .     S
O715   Zn758   1.935   .     S
O715   Zn746   1.934   .     S
O716   Zn748   1.914   .     S
O717   Zn760   1.914   .     S
O718   Zn746   1.914   .     S
O719   Zn751   1.914   .     S
O720   Zn752   1.914   .     S
O721   Zn749   1.914   .     S
O722   Zn750   1.914   .     S
O723   Zn375   1.914   1_655 S
O724   Zn754   1.914   .     S
O725   Zn1517  1.913   .     S
O726   Zn759   1.935   .     S
O726   Zn755   1.933   .     S
O726   Zn749   1.934   .     S
O727   Zn756   1.913   .     S
O728   Zn759   1.914   .     S
O729   Zn378   1.914   1_655 S
O730   Zn753   1.914   .     S
O731   Zn1505  1.914   .     S
O732   Zn374   1.914   1_655 S
O733   Zn755   1.914   .     S
O734   Zn745   1.914   .     S
O735   Zn1513  1.914   .     S
O736   Zn758   1.914   .     S
O737   Zn752   1.947   .     S
O737   C1141   1.273   .     S
O738   Zn379   1.914   1_655 S
O739   Zn1516  1.914   .     S
O740   Zn757   1.914   .     S
O741   Zn751   1.947   .     S
O741   C1205   1.271   1_545 S
O742   Zn746   1.948   .     S
O743   Zn760   1.948   .     S
O744   Zn748   1.948   .     S
Zn745  O1491   1.914   1_545 S
Zn747  O1464   1.933   .     S
Zn750  O335    1.934   1_655 S
Zn752  O1453   1.935   .     S
Zn753  O1495   1.914   1_545 S
Zn756  O1499   1.914   1_545 S
Zn757  O1485   1.913   1_545 S
Zn760  O346    1.934   1_655 S
C761   O1124   1.267   .     A
C761   C868    1.466   .     S
C762   C844    1.421   .     S
C762   O1087   1.275   .     A
C762   O1115   1.275   .     A
C763   N1060   1.429   .     S
C763   C887    1.421   .     A
C763   C766    1.416   1_554 S
C764   C888    1.408   .     A
C764   N1061   1.433   .     S
C764   C911    1.412   1_556 S
C765   C889    1.421   .     A
C765   N1062   1.430   .     S
C765   C910    1.413   1_554 S
C766   C890    1.415   .     A
C766   N1063   1.428   .     S
C766   C763    1.416   1_556 S
C767   C892    1.421   .     A
C767   N1064   1.429   .     S
C767   C912    1.416   1_554 S
C768   C849    1.529   .     S
C768   H991    1.110   .     S
C768   H1002   1.101   .     S
C768   C1149   1.532   .     S
C769   H913    1.111   .     S
C769   H969    1.107   .     S
C769   C1148   1.532   1_455 S
C769   H1360   1.111   1_455 S
C770   H914    1.109   .     S
C770   C771    1.531   .     S
C770   H1046   1.106   .     S
C770   C850    1.533   .     S
C771   H1035   1.111   .     S
C771   H1393   1.107   1_455 S
C771   H1404   1.111   1_455 S
C772   C851    1.528   .     S
C772   H958    1.110   .     S
C772   H964    1.101   .     S
C772   C14     1.532   1_565 S
C773   C843    1.421   .     S
C773   O1112   1.275   .     A
C773   O1088   1.275   .     A
C774   H936    1.107   .     S
C774   H925    1.111   .     S
C775   H968    1.106   .     S
C775   H970    1.109   .     S
C775   C776    1.531   .     S
C775   C852    1.533   .     S
C776   H967    1.111   .     S
C777   C778    1.536   .     S
C777   C853    1.529   .     S
C777   H974    1.104   .     S
C777   H975    1.111   .     S
C778   H971    1.111   .     S
C778   H973    1.111   .     S
C778   H972    1.107   .     S
C779   C780    1.531   .     S
C779   C854    1.531   .     S
C779   H981    1.109   .     S
C779   H979    1.106   .     S
C780   H978    1.111   .     S
C780   H1356   1.108   .     S
C780   H1357   1.111   .     S
C781   C855    1.529   .     S
C781   C782    1.536   .     S
C781   H986    1.111   .     S
C781   H985    1.104   .     S
C782   H984    1.111   .     S
C782   H982    1.111   .     S
C782   H983    1.107   .     S
C783   C856    1.531   .     S
C783   H992    1.109   .     S
C783   C785    1.531   .     S
C783   H990    1.106   .     S
C784   O1089   1.275   .     A
C784   C842    1.421   .     S
C784   O1113   1.275   .     A
C785   H989    1.111   .     S
C785   H227    1.108   1_565 S
C785   H228    1.111   1_565 S
C786   H996    1.106   .     S
C786   H997    1.109   .     S
C786   C857    1.533   .     S
C786   C787    1.531   .     S
C787   H994    1.111   .     S
C787   H995    1.111   .     S
C787   H993    1.107   .     S
C788   C859    1.529   .     S
C788   C789    1.532   .     S
C788   H1001   1.110   .     S
C788   H1003   1.102   .     S
C789   H998    1.111   .     S
C789   H1000   1.111   .     S
C789   H999    1.107   .     S
C790   H1008   1.109   .     S
C790   C860    1.532   .     S
C790   C791    1.531   .     S
C790   H1007   1.107   .     S
C791   H1006   1.111   .     S
C791   H1004   1.108   .     S
C791   H1005   1.111   .     S
C792   H1014   1.102   .     S
C792   C861    1.527   .     S
C792   C793    1.532   .     S
C792   H1012   1.110   .     S
C793   H1010   1.107   .     S
C793   H1009   1.111   .     S
C793   H1011   1.111   .     S
C794   C862    1.531   .     S
C794   C796    1.531   .     S
C794   H1018   1.107   .     S
C794   H1019   1.109   .     S
C795   C841    1.421   .     S
C795   O1090   1.275   .     A
C795   O1119   1.276   .     A
C796   H1015   1.111   .     S
C796   H1016   1.108   .     S
C796   H1017   1.111   .     S
C797   C798    1.537   .     S
C797   C863    1.529   .     S
C797   H1025   1.111   .     S
C797   H1023   1.104   .     S
C798   H1022   1.111   .     S
C798   H1020   1.111   .     S
C798   H1021   1.107   .     S
C799   H1030   1.109   .     S
C799   C864    1.532   .     S
C799   C800    1.531   .     S
C799   H1029   1.107   .     S
C800   H1027   1.111   .     S
C800   H1026   1.108   .     S
C800   H1028   1.111   .     S
C801   C865    1.527   .     S
C801   H1036   1.102   .     S
C801   C802    1.532   .     S
C801   H1034   1.110   .     S
C802   H1032   1.107   .     S
C802   H1031   1.111   .     S
C802   H1033   1.111   .     S
C803   N1057   1.452   .     S
C803   H1039   1.111   .     S
C803   H1040   1.108   .     S
C803   H1038   1.110   .     S
C804   H1043   1.111   .     S
C804   N1065   1.446   .     S
C804   H1042   1.110   .     S
C804   H1044   1.111   .     S
C805   H1048   1.111   .     S
C805   H1049   1.108   .     S
C805   N1066   1.452   .     S
C805   H1047   1.110   .     S
C806   O1120   1.276   .     A
C806   C840    1.422   .     S
C806   O1091   1.275   .     A
C807   H1051   1.110   .     S
C807   N1067   1.446   .     S
C807   H1052   1.111   .     S
C807   H1053   1.111   .     S
C808   H915    1.111   .     S
C808   H1056   1.112   .     S
C808   N1068   1.452   .     S
C808   H1055   1.110   .     S
C809   H917    1.110   .     S
C809   H919    1.111   .     S
C809   N1069   1.448   .     S
C809   H918    1.111   .     S
C810   H922    1.112   .     S
C810   H923    1.111   .     S
C810   H921    1.110   .     S
C810   N1070   1.452   .     S
C811   H927    1.110   .     S
C811   N1071   1.448   .     S
C811   H928    1.111   .     S
C811   H926    1.111   .     S
C812   H930    1.110   .     S
C812   N1072   1.446   .     S
C812   H171    1.111   1_565 S
C812   H172    1.111   1_565 S
C813   H935    1.111   .     S
C813   N1058   1.452   .     S
C813   H934    1.110   .     S
C813   H937    1.108   1_554 S
C814   H941    1.111   .     S
C814   H939    1.110   .     S
C814   H940    1.111   .     S
C814   N1439   1.447   .     S
C815   H944    1.112   .     S
C815   H943    1.110   .     S
C815   H945    1.111   .     S
C815   N1060   1.452   .     S
C816   N1061   1.447   .     S
C816   H948    1.111   .     S
C817   O1116   1.275   .     A
C817   O1092   1.276   .     A
C817   C848    1.421   .     S
C818   H952    1.110   .     S
C818   H953    1.112   .     S
C818   H954    1.111   .     S
C818   N1062   1.452   .     S
C819   H956    1.110   .     S
C819   H959    1.111   .     S
C819   H957    1.111   .     S
C819   N1443   1.447   1_455 S
C820   H962    1.112   .     S
C820   N1064   1.452   .     S
C820   H961    1.110   .     S
C820   H963    1.111   .     S
C821   O1118   1.275   .     A
C821   O1093   1.276   .     A
C821   C846    1.421   .     S
C822   C837    1.421   .     S
C822   O1094   1.275   .     A
C822   O1105   1.275   .     A
C823   O1107   1.275   .     A
C823   C835    1.421   .     S
C823   O1096   1.275   .     A
C824   O1097   1.275   .     A
C824   C834    1.421   .     S
C824   O1103   1.275   .     A
C825   C870    1.463   .     S
C825   O1074   1.269   .     A
C825   O361    1.271   1_565 S
C826   O1098   1.275   .     A
C826   C833    1.421   .     S
C826   O1104   1.275   .     A
C827   C832    1.421   .     S
C827   O1110   1.276   .     A
C827   O1099   1.275   .     A
C828   O1111   1.276   .     A
C828   C831    1.421   .     S
C828   O1100   1.275   .     A
C829   C839    1.421   .     S
C829   O1108   1.275   .     A
C829   O1101   1.276   .     A
C830   O1102   1.276   .     A
C830   O1109   1.275   .     A
C830   C838    1.421   .     S
C831   C848    1.198   .     T
C832   C846    1.198   .     T
C833   C845    1.198   .     T
C834   C844    1.198   .     T
C835   C843    1.198   .     T
C836   C866    1.466   .     S
C836   O1122   1.267   .     A
C836   O1455   1.273   1_455 S
C837   C842    1.198   .     T
C838   C841    1.198   .     T
C839   C840    1.198   .     T
C845   C902    1.421   .     S
C847   C867    1.463   .     S
C847   O1123   1.269   .     A
C847   O1456   1.271   .     S
C849   C879    1.408   .     A
C849   C1246   1.408   .     S
C850   C881    1.416   .     A
C850   C1247   1.414   1_455 S
C851   C882    1.408   .     A
C851   C108    1.407   1_565 S
C852   C883    1.416   .     A
C853   C866    1.421   .     A
C853   C875    1.432   .     A
C854   C867    1.414   .     A
C854   C876    1.415   .     A
C855   C868    1.421   .     A
C855   C877    1.432   .     A
C856   C870    1.414   .     A
C856   C878    1.415   .     A
C857   C888    1.416   .     A
C857   C871    1.414   .     A
C858   C873    1.469   .     S
C858   O1077   1.272   .     S
C858   O1081   1.272   .     S
C859   C889    1.408   .     A
C859   C112    1.408   1_565 S
C860   C890    1.415   .     A
C860   C1253   1.419   .     S
C861   C892    1.415   .     A
C861   C1254   1.415   1_455 S
C862   C884    1.415   .     A
C862   C111    1.414   1_565 S
C863   C872    1.421   .     A
C863   C885    1.432   .     A
C864   C873    1.419   .     A
C864   C886    1.415   .     A
C865   C887    1.414   .     A
C865   C874    1.415   .     A
C866   C1229   1.408   1_455 S
C867   C1230   1.414   .     S
C869   C874    1.464   .     S
C869   O1462   1.270   .     A
C869   O1458   1.270   .     A
C870   C92     1.414   1_565 S
C871   C880    1.463   .     S
C872   C891    1.466   .     S
C873   C1240   1.419   1_455 S
C874   C1241   1.415   .     S
C875   C901    1.433   .     A
C875   C1273   1.426   1_455 S
C876   C894    1.412   .     A
C876   C903    1.412   .     A
C877   C904    1.433   .     A
C878   C896    1.412   .     A
C878   C905    1.412   .     A
C879   C906    1.421   .     A
C879   C893    1.417   .     A
C880   O1079   1.271   .     A
C880   O1083   1.269   .     A
C881   C907    1.408   .     A
C881   C1274   1.409   1_455 S
C882   C908    1.421   .     A
C882   C895    1.417   .     A
C883   C909    1.408   .     A
C884   C910    1.412   .     A
C884   C137    1.412   1_565 S
C885   C898    1.426   .     A
C885   C911    1.433   .     A
C886   C912    1.415   .     A
C886   C899    1.409   .     A
C887   C1280   1.415   .     A
C888   C897    1.408   .     A
C889   C138    1.417   1_565 S
C890   C1279   1.409   .     S
C891   O1080   1.273   .     A
C891   O1085   1.267   .     A
C892   C900    1.415   .     S
C893   C894    1.410   .     A
C893   C1255   1.426   .     S
C894   C1261   1.409   .     S
C895   C896    1.410   .     A
C895   C117    1.426   1_565 S
C896   C123    1.409   1_565 S
C897   C898    1.409   1_556 S
C898   C897    1.409   1_554 S
C899   C1270   1.409   1_455 S
C899   C900    1.403   1_556 S
C900   C1267   1.415   1_455 A
C900   C899    1.403   1_554 S
C901   C907    1.412   .     A
C901   N1057   1.422   .     S
C902   O1114   1.275   .     A
C902   O1086   1.275   .     A
C903   N1065   1.428   .     S
C903   C906    1.413   .     A
C904   N1066   1.422   .     S
C904   C909    1.412   .     A
C905   C908    1.413   .     A
C905   N1067   1.428   .     S
C906   N1068   1.430   .     S
C907   N1069   1.432   .     S
C908   N1070   1.430   .     S
C909   N1071   1.433   .     S
C910   N1072   1.428   .     S
C910   C765    1.413   1_556 S
C911   N1058   1.422   .     S
C911   C764    1.412   1_554 S
C912   N1059   1.428   .     S
C912   C767    1.416   1_556 S
H916   N1069   1.027   .     S
H920   N1070   1.031   .     S
H924   N1071   1.027   .     S
H929   N1072   1.026   .     S
H933   N1058   1.031   .     S
H937   C813    1.108   1_556 S
H938   N1059   1.026   .     S
H942   N1060   1.031   .     S
H946   N1061   1.028   .     S
H947   C14     1.111   1_565 S
H949   C56     1.111   1_565 S
H950   C56     1.112   1_565 S
H951   N1062   1.031   .     S
H955   N1063   1.026   .     S
H960   N1064   1.031   .     S
H965   C16     1.107   1_565 S
H966   C16     1.111   1_565 S
H976   C1160   1.108   1_455 S
H977   C1160   1.111   1_455 S
H980   C1149   1.111   .     S
H1013  C1151   1.107   .     S
H1024  C1151   1.111   .     S
H1037  N1057   1.031   .     S
H1041  N1065   1.026   .     S
H1045  N1066   1.031   .     S
H1050  N1067   1.026   .     S
H1054  N1068   1.031   .     S
N1059  C1194   1.447   1_455 S
N1063  C1199   1.447   .     S
O1073  Zn1128  1.933   .     S
O1073  Zn1125  1.934   .     S
O1073  Zn1136  1.934   .     S
O1074  Zn1127  1.948   .     S
O1075  Zn1130  1.948   .     S
O1075  C1216   1.273   .     S
O1076  Zn1129  1.948   .     S
O1076  C1227   1.271   1_455 S
O1077  Zn1139  1.947   .     S
O1078  Zn1138  1.947   .     S
O1078  C1249   1.270   1_455 A
O1079  Zn1133  1.948   .     S
O1080  Zn1125  1.948   .     S
O1081  Zn1135  1.948   .     S
O1082  Zn1134  1.948   .     S
O1082  C1249   1.270   1_455 A
O1083  Zn1137  1.948   .     S
O1084  Zn1131  1.935   .     S
O1084  Zn1133  1.934   .     S
O1084  Zn1137  1.934   .     S
O1085  Zn1136  1.948   .     S
O1086  Zn1128  1.914   .     S
O1087  Zn1127  1.914   .     S
O1088  Zn1130  1.913   .     S
O1089  Zn1129  1.913   .     S
O1090  Zn1132  1.914   .     S
O1091  Zn1131  1.914   .     S
O1092  Zn1126  1.914   .     S
O1093  Zn1140  1.914   .     S
O1094  Zn1127  1.914   .     S
O1095  Zn1510  1.934   1_455 S
O1095  Zn1134  1.933   .     S
O1095  Zn1138  1.935   .     S
O1095  Zn1126  1.934   .     S
O1096  Zn1128  1.914   .     S
O1097  Zn1140  1.914   .     S
O1098  Zn1126  1.914   .     S
O1099  Zn1131  1.914   .     S
O1100  Zn1132  1.914   .     S
O1101  Zn1129  1.914   .     S
O1102  Zn1130  1.914   .     S
O1103  Zn1515  1.914   .     S
O1104  Zn1134  1.914   .     S
O1105  Zn377   1.913   1_565 S
O1106  Zn1139  1.935   .     S
O1106  Zn1135  1.933   .     S
O1106  Zn1520  1.934   1_455 S
O1106  Zn1129  1.934   .     S
O1107  Zn1136  1.913   .     S
O1108  Zn1139  1.914   .     S
O1109  Zn1518  1.914   .     S
O1110  Zn1133  1.914   .     S
O1111  Zn365   1.914   1_565 S
O1112  Zn1514  1.914   .     S
O1113  Zn1135  1.914   .     S
O1114  Zn1125  1.914   .     S
O1115  Zn373   1.914   1_565 S
O1116  Zn1138  1.914   .     S
O1117  Zn1132  1.947   .     S
O1117  C1      1.273   1_565 S
O1118  Zn1519  1.914   .     S
O1119  Zn376   1.914   1_565 S
O1120  Zn1137  1.914   .     S
O1121  Zn1131  1.947   .     S
O1122  Zn1126  1.948   .     S
O1123  Zn1140  1.948   .     S
O1124  Zn1128  1.948   .     S
Zn1127 O324    1.933   1_565 S
Zn1130 O1475   1.934   .     S
Zn1132 O313    1.935   1_565 S
Zn1134 O1492   1.914   1_455 S
Zn1135 O1483   1.914   1_455 S
Zn1138 O1489   1.914   1_455 S
Zn1139 O1498   1.914   1_455 S
Zn1140 O1486   1.934   .     S
C1141  O1504   1.267   .     A
C1141  C1248   1.466   .     S
C1142  C1224   1.421   .     S
C1142  O1467   1.275   .     A
C1142  O1495   1.275   .     A
C1143  N1440   1.429   .     S
C1143  C1267   1.421   .     A
C1143  C1146   1.416   1_554 S
C1144  C1268   1.408   .     A
C1144  N1441   1.433   .     S
C1144  C1291   1.412   1_556 S
C1145  C1269   1.421   .     A
C1145  N1442   1.430   .     S
C1145  C1290   1.413   1_554 S
C1146  C1270   1.415   .     A
C1146  N1443   1.428   .     S
C1146  C1143   1.416   1_556 S
C1147  C1272   1.421   .     A
C1147  N1444   1.429   .     S
C1147  C1292   1.416   1_554 S
C1148  C1229   1.529   .     S
C1148  H1371   1.110   .     S
C1148  H1382   1.101   .     S
C1148  C769    1.532   1_655 S
C1149  H1293   1.111   .     S
C1149  H1349   1.107   .     S
C1150  H1294   1.109   .     S
C1150  C1151   1.531   .     S
C1150  H1426   1.106   .     S
C1150  C1230   1.533   .     S
C1151  H1415   1.111   .     S
C1152  C1231   1.528   .     S
C1152  H1338   1.110   .     S
C1152  H1344   1.101   .     S
C1152  C394    1.532   1_565 S
C1153  C1223   1.421   .     S
C1153  O1492   1.275   .     A
C1153  O1468   1.275   .     A
C1154  H1316   1.107   .     S
C1154  H1305   1.111   .     S
C1155  H1348   1.106   .     S
C1155  H1350   1.109   .     S
C1155  C1156   1.531   .     S
C1155  C1232   1.533   .     S
C1156  H1347   1.111   .     S
C1157  C1158   1.536   .     S
C1157  C1233   1.529   .     S
C1157  H1354   1.104   .     S
C1157  H1355   1.111   .     S
C1158  H1351   1.111   .     S
C1158  H1353   1.111   .     S
C1158  H1352   1.107   .     S
C1159  C1160   1.531   .     S
C1159  C1234   1.531   .     S
C1159  H1361   1.109   .     S
C1159  H1359   1.106   .     S
C1160  H1358   1.111   .     S
C1160  H976    1.108   1_655 S
C1160  H977    1.111   1_655 S
C1161  C1235   1.529   .     S
C1161  C1162   1.536   .     S
C1161  H1366   1.111   .     S
C1161  H1365   1.104   .     S
C1162  H1364   1.111   .     S
C1162  H1362   1.111   .     S
C1162  H1363   1.107   .     S
C1163  C1236   1.531   .     S
C1163  H1372   1.109   .     S
C1163  C1165   1.531   .     S
C1163  H1370   1.106   .     S
C1164  O1469   1.275   .     A
C1164  C1222   1.421   .     S
C1164  O1493   1.275   .     A
C1165  H1369   1.111   .     S
C1165  H607    1.108   1_565 S
C1165  H608    1.111   1_565 S
C1166  H1376   1.106   .     S
C1166  H1377   1.109   .     S
C1166  C1237   1.533   .     S
C1166  C1167   1.531   .     S
C1167  H1374   1.111   .     S
C1167  H1375   1.111   .     S
C1167  H1373   1.107   .     S
C1168  C1239   1.529   .     S
C1168  C1169   1.532   .     S
C1168  H1381   1.110   .     S
C1168  H1383   1.102   .     S
C1169  H1378   1.111   .     S
C1169  H1380   1.111   .     S
C1169  H1379   1.107   .     S
C1170  H1388   1.109   .     S
C1170  C1240   1.532   .     S
C1170  C1171   1.531   .     S
C1170  H1387   1.107   .     S
C1171  H1386   1.111   .     S
C1171  H1384   1.108   .     S
C1171  H1385   1.111   .     S
C1172  H1394   1.102   .     S
C1172  C1241   1.527   .     S
C1172  C1173   1.532   .     S
C1172  H1392   1.110   .     S
C1173  H1390   1.107   .     S
C1173  H1389   1.111   .     S
C1173  H1391   1.111   .     S
C1174  C1242   1.531   .     S
C1174  C1176   1.531   .     S
C1174  H1398   1.107   .     S
C1174  H1399   1.109   .     S
C1175  C1221   1.421   .     S
C1175  O1470   1.275   .     A
C1175  O1499   1.276   .     A
C1176  H1395   1.111   .     S
C1176  H1396   1.108   .     S
C1176  H1397   1.111   .     S
C1177  C1178   1.537   .     S
C1177  C1243   1.529   .     S
C1177  H1405   1.111   .     S
C1177  H1403   1.104   .     S
C1178  H1402   1.111   .     S
C1178  H1400   1.111   .     S
C1178  H1401   1.107   .     S
C1179  H1410   1.109   .     S
C1179  C1244   1.532   .     S
C1179  C1180   1.531   .     S
C1179  H1409   1.107   .     S
C1180  H1407   1.111   .     S
C1180  H1406   1.108   .     S
C1180  H1408   1.111   .     S
C1181  C1245   1.527   .     S
C1181  H1416   1.102   .     S
C1181  C1182   1.532   .     S
C1181  H1414   1.110   .     S
C1182  H1412   1.107   .     S
C1182  H1411   1.111   .     S
C1182  H1413   1.111   .     S
C1183  N1437   1.452   .     S
C1183  H1419   1.111   .     S
C1183  H1420   1.108   .     S
C1183  H1418   1.110   .     S
C1184  H1423   1.111   .     S
C1184  N1445   1.446   .     S
C1184  H1422   1.110   .     S
C1184  H1424   1.111   .     S
C1185  H1428   1.111   .     S
C1185  H1429   1.108   .     S
C1185  N1446   1.452   .     S
C1185  H1427   1.110   .     S
C1186  O1500   1.276   .     A
C1186  C1220   1.422   .     S
C1186  O1471   1.275   .     A
C1187  H1431   1.110   .     S
C1187  N1447   1.446   .     S
C1187  H1432   1.111   .     S
C1187  H1433   1.111   .     S
C1188  H1295   1.111   .     S
C1188  H1436   1.112   .     S
C1188  N1448   1.452   .     S
C1188  H1435   1.110   .     S
C1189  H1297   1.110   .     S
C1189  H1299   1.111   .     S
C1189  N1449   1.448   .     S
C1189  H1298   1.111   .     S
C1190  H1302   1.112   .     S
C1190  H1303   1.111   .     S
C1190  H1301   1.110   .     S
C1190  N1450   1.452   .     S
C1191  H1307   1.110   .     S
C1191  N1451   1.448   .     S
C1191  H1308   1.111   .     S
C1191  H1306   1.111   .     S
C1192  H1310   1.110   .     S
C1192  N1452   1.446   .     S
C1192  H551    1.111   1_565 S
C1192  H552    1.111   1_565 S
C1193  H1315   1.111   .     S
C1193  N1438   1.452   .     S
C1193  H1314   1.110   .     S
C1193  H1317   1.108   1_554 S
C1194  H1321   1.111   .     S
C1194  H1319   1.110   .     S
C1194  H1320   1.111   .     S
C1194  N1059   1.447   1_655 S
C1195  H1324   1.112   .     S
C1195  H1323   1.110   .     S
C1195  H1325   1.111   .     S
C1195  N1440   1.452   .     S
C1196  N1441   1.447   .     S
C1196  H1328   1.111   .     S
C1197  O1496   1.275   .     A
C1197  O1472   1.276   .     A
C1197  C1228   1.421   .     S
C1198  H1332   1.110   .     S
C1198  H1333   1.112   .     S
C1198  H1334   1.111   .     S
C1198  N1442   1.452   .     S
C1199  H1336   1.110   .     S
C1199  H1339   1.111   .     S
C1199  H1337   1.111   .     S
C1200  H1342   1.112   .     S
C1200  N1444   1.452   .     S
C1200  H1341   1.110   .     S
C1200  H1343   1.111   .     S
C1201  O1498   1.275   .     A
C1201  O1473   1.276   .     A
C1201  C1226   1.421   .     S
C1202  C1217   1.421   .     S
C1202  O1474   1.275   .     A
C1202  O1485   1.275   .     A
C1203  O1487   1.275   .     A
C1203  C1215   1.421   .     S
C1203  O1476   1.275   .     A
C1204  O1477   1.275   .     A
C1204  C1214   1.421   .     S
C1204  O1483   1.275   .     A
C1205  C1250   1.463   .     S
C1205  O1454   1.269   .     A
C1205  O741    1.271   1_565 S
C1206  O1478   1.275   .     A
C1206  C1213   1.421   .     S
C1206  O1484   1.275   .     A
C1207  C1212   1.421   .     S
C1207  O1490   1.276   .     A
C1207  O1479   1.275   .     A
C1208  O1491   1.276   .     A
C1208  C1211   1.421   .     S
C1208  O1480   1.275   .     A
C1209  C1219   1.421   .     S
C1209  O1488   1.275   .     A
C1209  O1481   1.276   .     A
C1210  O1482   1.276   .     A
C1210  O1489   1.275   .     A
C1210  C1218   1.421   .     S
C1211  C1228   1.198   .     T
C1212  C1226   1.198   .     T
C1213  C1225   1.198   .     T
C1214  C1224   1.198   .     T
C1215  C1223   1.198   .     T
C1216  C1246   1.466   .     S
C1216  O1502   1.267   .     A
C1217  C1222   1.198   .     T
C1218  C1221   1.198   .     T
C1219  C1220   1.198   .     T
C1225  C1282   1.421   .     S
C1227  C1247   1.463   .     S
C1227  O1503   1.269   .     A
C1227  O1076   1.271   1_655 S
C1229  C1259   1.408   .     A
C1229  C866    1.408   1_655 S
C1230  C1261   1.416   .     A
C1231  C1262   1.408   .     A
C1231  C488    1.407   1_565 S
C1232  C1263   1.416   .     A
C1233  C1246   1.421   .     A
C1233  C1255   1.432   .     A
C1234  C1247   1.414   .     A
C1234  C1256   1.415   .     A
C1235  C1248   1.421   .     A
C1235  C1257   1.432   .     A
C1236  C1250   1.414   .     A
C1236  C1258   1.415   .     A
C1237  C1268   1.416   .     A
C1237  C1251   1.414   .     A
C1238  C1253   1.469   .     S
C1238  O1457   1.272   .     S
C1238  O1461   1.272   .     S
C1239  C1269   1.408   .     A
C1239  C492    1.408   1_565 S
C1240  C1270   1.415   .     A
C1240  C873    1.419   1_655 S
C1241  C1272   1.415   .     A
C1242  C1264   1.415   .     A
C1242  C491    1.414   1_565 S
C1243  C1252   1.421   .     A
C1243  C1265   1.432   .     A
C1244  C1253   1.419   .     A
C1244  C1266   1.415   .     A
C1245  C1267   1.414   .     A
C1245  C1254   1.415   .     A
C1247  C850    1.414   1_655 S
C1249  C1254   1.464   .     S
C1249  O1082   1.270   1_655 A
C1249  O1078   1.270   1_655 A
C1250  C472    1.414   1_565 S
C1251  C1260   1.463   .     S
C1252  C1271   1.466   .     S
C1254  C861    1.415   1_655 S
C1255  C1281   1.433   .     A
C1256  C1274   1.412   .     A
C1256  C1283   1.412   .     A
C1257  C1284   1.433   .     A
C1258  C1276   1.412   .     A
C1258  C1285   1.412   .     A
C1259  C1286   1.421   .     A
C1259  C1273   1.417   .     A
C1260  O1459   1.271   .     A
C1260  O1463   1.269   .     A
C1261  C1287   1.408   .     A
C1262  C1288   1.421   .     A
C1262  C1275   1.417   .     A
C1263  C1289   1.408   .     A
C1264  C1290   1.412   .     A
C1264  C517    1.412   1_565 S
C1265  C1278   1.426   .     A
C1265  C1291   1.433   .     A
C1266  C1292   1.415   .     A
C1266  C1279   1.409   .     A
C1267  C900    1.415   1_655 A
C1268  C1277   1.408   .     A
C1269  C518    1.417   1_565 S
C1270  C899    1.409   1_655 S
C1271  O1460   1.273   .     A
C1271  O1465   1.267   .     A
C1272  C1280   1.415   .     S
C1273  C1274   1.410   .     A
C1273  C875    1.426   1_655 S
C1274  C881    1.409   1_655 S
C1275  C1276   1.410   .     A
C1275  C497    1.426   1_565 S
C1276  C503    1.409   1_565 S
C1277  C1278   1.409   1_556 S
C1278  C1277   1.409   1_554 S
C1279  C1280   1.403   1_556 S
C1280  C1279   1.403   1_554 S
C1281  C1287   1.412   .     A
C1281  N1437   1.422   .     S
C1282  O1494   1.275   .     A
C1282  O1466   1.275   .     A
C1283  N1445   1.428   .     S
C1283  C1286   1.413   .     A
C1284  N1446   1.422   .     S
C1284  C1289   1.412   .     A
C1285  C1288   1.413   .     A
C1285  N1447   1.428   .     S
C1286  N1448   1.430   .     S
C1287  N1449   1.432   .     S
C1288  N1450   1.430   .     S
C1289  N1451   1.433   .     S
C1290  N1452   1.428   .     S
C1290  C1145   1.413   1_556 S
C1291  N1438   1.422   .     S
C1291  C1144   1.412   1_554 S
C1292  N1439   1.428   .     S
C1292  C1147   1.416   1_556 S
H1296  N1449   1.027   .     S
H1300  N1450   1.031   .     S
H1304  N1451   1.027   .     S
H1309  N1452   1.026   .     S
H1313  N1438   1.031   .     S
H1317  C1193   1.108   1_556 S
H1318  N1439   1.026   .     S
H1322  N1440   1.031   .     S
H1326  N1441   1.028   .     S
H1327  C394    1.111   1_565 S
H1329  C436    1.111   1_565 S
H1330  C436    1.112   1_565 S
H1331  N1442   1.031   .     S
H1335  N1443   1.026   .     S
H1340  N1444   1.031   .     S
H1345  C396    1.107   1_565 S
H1346  C396    1.111   1_565 S
H1360  C769    1.111   1_655 S
H1393  C771    1.107   1_655 S
H1404  C771    1.111   1_655 S
H1417  N1437   1.031   .     S
H1421  N1445   1.026   .     S
H1425  N1446   1.031   .     S
H1430  N1447   1.026   .     S
H1434  N1448   1.031   .     S
N1443  C819    1.447   1_655 S
O1453  Zn1508  1.933   .     S
O1453  Zn1505  1.934   .     S
O1453  Zn1516  1.934   .     S
O1454  Zn1507  1.948   .     S
O1455  Zn1510  1.948   .     S
O1455  C836    1.273   1_655 S
O1456  Zn1509  1.948   .     S
O1457  Zn1519  1.947   .     S
O1458  Zn1518  1.947   .     S
O1459  Zn1513  1.948   .     S
O1460  Zn1505  1.948   .     S
O1461  Zn1515  1.948   .     S
O1462  Zn1514  1.948   .     S
O1463  Zn1517  1.948   .     S
O1464  Zn1511  1.935   .     S
O1464  Zn1513  1.934   .     S
O1464  Zn1517  1.934   .     S
O1465  Zn1516  1.948   .     S
O1466  Zn1508  1.914   .     S
O1467  Zn1507  1.914   .     S
O1468  Zn1510  1.913   .     S
O1469  Zn1509  1.913   .     S
O1470  Zn1512  1.914   .     S
O1471  Zn1511  1.914   .     S
O1472  Zn1506  1.914   .     S
O1473  Zn1520  1.914   .     S
O1474  Zn1507  1.914   .     S
O1475  Zn1514  1.933   .     S
O1475  Zn1518  1.935   .     S
O1475  Zn1506  1.934   .     S
O1476  Zn1508  1.914   .     S
O1477  Zn1520  1.914   .     S
O1478  Zn1506  1.914   .     S
O1479  Zn1511  1.914   .     S
O1480  Zn1512  1.914   .     S
O1481  Zn1509  1.914   .     S
O1482  Zn1510  1.914   .     S
O1483  Zn1135  1.914   1_655 S
O1484  Zn1514  1.914   .     S
O1485  Zn757   1.913   1_565 S
O1486  Zn1519  1.935   .     S
O1486  Zn1515  1.933   .     S
O1486  Zn1509  1.934   .     S
O1487  Zn1516  1.913   .     S
O1488  Zn1519  1.914   .     S
O1489  Zn1138  1.914   1_655 S
O1490  Zn1513  1.914   .     S
O1491  Zn745   1.914   1_565 S
O1492  Zn1134  1.914   1_655 S
O1493  Zn1515  1.914   .     S
O1494  Zn1505  1.914   .     S
O1495  Zn753   1.914   1_565 S
O1496  Zn1518  1.914   .     S
O1497  Zn1512  1.947   .     S
O1497  C381    1.273   1_565 S
O1498  Zn1139  1.914   1_655 S
O1499  Zn756   1.914   1_565 S
O1500  Zn1517  1.914   .     S
O1501  Zn1511  1.947   .     S
O1502  Zn1506  1.948   .     S
O1503  Zn1520  1.948   .     S
O1504  Zn1508  1.948   .     S
Zn1507 O704    1.933   1_565 S
Zn1510 O1095   1.934   1_655 S
Zn1512 O693    1.935   1_565 S
Zn1520 O1106   1.934   1_655 S
