data_str_m1_o10_o18_pcu_sym.7
_audit_creation_date              2020-01-03
_audit_creation_method            'Materials Studio'
_symmetry_space_group_name_H-M    'P1'
_symmetry_Int_Tables_number       1
_symmetry_cell_setting            triclinic
loop_
_symmetry_equiv_pos_as_xyz
  x,y,z
_cell_length_a                    32.6013
_cell_length_b                    32.5854
_cell_length_c                    35.6458
_cell_angle_alpha                 98.3347
_cell_angle_beta                  72.9111
_cell_angle_gamma                 99.1293
loop_
_atom_site_label
_atom_site_type_symbol
_atom_site_fract_x
_atom_site_fract_y
_atom_site_fract_z
_atom_site_U_iso_or_equiv
_atom_site_adp_type
_atom_site_occupancy
C1     C     0.05235   0.15923   0.25924   0.00000  Uiso   1.00
C2     C     0.19240   0.12885   0.46041   0.00000  Uiso   1.00
C3     C     0.20614   0.10370   0.48138   0.00000  Uiso   1.00
C4     C     0.28120   0.17438   0.24143   0.00000  Uiso   1.00
C5     C     0.20378   0.11532   0.02106   0.00000  Uiso   1.00
C6     C     0.19064   0.15466   0.03939   0.00000  Uiso   1.00
C7     C     0.21399   0.08768   0.04272   0.00000  Uiso   1.00
C8     C     0.20978   0.09787   0.08282   0.00000  Uiso   1.00
C9     C     0.18755   0.16459   0.07992   0.00000  Uiso   1.00
C10    C     0.32765   0.17927   0.23811   0.00000  Uiso   1.00
C11    C     0.00755   0.15716   0.26048   0.00000  Uiso   1.00
C12    C     0.14110   0.24391   0.41087   0.00000  Uiso   1.00
C13    C     0.18166   0.32239   0.23771   0.00000  Uiso   1.00
C14    C     0.15173   0.01194   0.26144   0.00000  Uiso   1.00
C15    C     0.15558   0.05613   0.25904   0.00000  Uiso   1.00
C16    C     0.17702   0.27771   0.24121   0.00000  Uiso   1.00
C17    C     0.18813   0.14524   0.14392   0.00000  Uiso   1.00
C18    C     0.14541   0.18768   0.35613   0.00000  Uiso   1.00
C19    C     0.14190   0.20129   0.39799   0.00000  Uiso   1.00
C20    C     0.19653   0.13623   0.10135   0.00000  Uiso   1.00
C21    C     0.14541   0.25945   0.44808   0.00000  Uiso   1.00
C22    C     0.02480   0.20836   0.21059   0.00000  Uiso   1.00
C23    C     0.14462   0.17360   0.42394   0.00000  Uiso   1.00
C24    C     0.12371   0.12930   0.42074   0.00000  Uiso   1.00
C25    C     0.15833   0.19061   0.45803   0.00000  Uiso   1.00
C26    C     0.15518   0.23349   0.47168   0.00000  Uiso   1.00
C27    C     0.17561   0.16643   0.47855   0.00000  Uiso   1.00
C28    C     0.17919   0.18162   0.01699   0.00000  Uiso   1.00
C29    C     0.17245   0.22345   0.03119   0.00000  Uiso   1.00
C30    C     0.16218   0.24975   0.00839   0.00000  Uiso   1.00
H31    H     0.22407   0.05766   0.02886   0.00000  Uiso   1.00
H32    H     0.19576   0.11879   0.42950   0.00000  Uiso   1.00
H33    H     0.15946   0.29897   0.05203   0.00000  Uiso   1.00
H34    H     0.18572   0.31071   0.00615   0.00000  Uiso   1.00
H35    H     0.08482   0.22301   0.17505   0.00000  Uiso   1.00
H36    H     0.24621   0.00254   0.21485   0.00000  Uiso   1.00
H37    H     0.21766   0.32638   0.18121   0.00000  Uiso   1.00
H38    H     0.09042   0.07998   0.44950   0.00000  Uiso   1.00
H39    H     0.31835   0.13549   0.27951   0.00000  Uiso   1.00
H40    H     0.12373   0.33150   0.28294   0.00000  Uiso   1.00
H41    H     0.17542   0.19277   0.09629   0.00000  Uiso   1.00
H42    H     0.21636   0.07567   0.09954   0.00000  Uiso   1.00
H43    H     0.21769   0.07449   0.46669   0.00000  Uiso   1.00
H44    H     0.14340   0.29240   0.45725   0.00000  Uiso   1.00
H45    H     0.13781   0.26550   0.39180   0.00000  Uiso   1.00
H46    H     0.17783   0.23735   0.05894   0.00000  Uiso   1.00
N47    N     0.15852   0.29304   0.02265   0.00000  Uiso   1.00
N48    N     0.21800   0.00805   0.20912   0.00000  Uiso   1.00
O49    O     0.16667   0.16667   0.25000   0.00000  Uiso   1.00
O50    O     0.15693   0.12393   0.16625   0.00000  Uiso   1.00
O51    O     0.12687   0.20646   0.33749   0.00000  Uiso   1.00
O52    O     0.21088   0.17493   0.15877   0.00000  Uiso   1.00
O53    O     0.17198   0.16135   0.33749   0.00000  Uiso   1.00
O54    O     0.01201   0.23866   0.20301   0.00000  Uiso   1.00
O55    O     0.06776   0.20103   0.19298   0.00000  Uiso   1.00
O56    O     0.12254   0.11037   0.38880   0.00000  Uiso   1.00
O57    O     0.10368   0.10972   0.45511   0.00000  Uiso   1.00
O58    O     0.17849   0.08101   0.27821   0.00000  Uiso   1.00
O59    O     0.14581   0.26136   0.26767   0.00000  Uiso   1.00
O60    O     0.07452   0.13251   0.23607   0.00000  Uiso   1.00
O61    O     0.26785   0.19179   0.21806   0.00000  Uiso   1.00
O62    O     0.06990   0.18960   0.27820   0.00000  Uiso   1.00
O63    O     0.25440   0.15277   0.26768   0.00000  Uiso   1.00
O64    O     0.13800   0.06903   0.23607   0.00000  Uiso   1.00
O65    O     0.20437   0.25527   0.21806   0.00000  Uiso   1.00
Zn66   Zn    0.19244   0.14090   0.28278   0.00000  Uiso   1.00
Zn67   Zn    0.13459   0.12378   0.22258   0.00000  Uiso   1.00
Zn68   Zn    0.21166   0.19664   0.21188   0.00000  Uiso   1.00
Zn69   Zn    0.12798   0.20535   0.28277   0.00000  Uiso   1.00
C70    C     0.38568   0.15923   0.25924   0.00000  Uiso   1.00
C71    C     0.52573   0.12885   0.46041   0.00000  Uiso   1.00
C72    C     0.53947   0.10370   0.48138   0.00000  Uiso   1.00
C73    C     0.61454   0.17438   0.24143   0.00000  Uiso   1.00
C74    C     0.53711   0.11532   0.02106   0.00000  Uiso   1.00
C75    C     0.52397   0.15466   0.03939   0.00000  Uiso   1.00
C76    C     0.54732   0.08768   0.04272   0.00000  Uiso   1.00
C77    C     0.54311   0.09787   0.08282   0.00000  Uiso   1.00
C78    C     0.52088   0.16459   0.07992   0.00000  Uiso   1.00
C79    C     0.66098   0.17927   0.23811   0.00000  Uiso   1.00
C80    C     0.34088   0.15716   0.26048   0.00000  Uiso   1.00
C81    C     0.47443   0.24391   0.41087   0.00000  Uiso   1.00
C82    C     0.51499   0.32239   0.23771   0.00000  Uiso   1.00
C83    C     0.48506   0.01194   0.26144   0.00000  Uiso   1.00
C84    C     0.48891   0.05613   0.25904   0.00000  Uiso   1.00
C85    C     0.51036   0.27771   0.24121   0.00000  Uiso   1.00
C86    C     0.52146   0.14524   0.14392   0.00000  Uiso   1.00
C87    C     0.47874   0.18768   0.35613   0.00000  Uiso   1.00
C88    C     0.47523   0.20129   0.39799   0.00000  Uiso   1.00
C89    C     0.52986   0.13623   0.10135   0.00000  Uiso   1.00
C90    C     0.47874   0.25945   0.44808   0.00000  Uiso   1.00
C91    C     0.35814   0.20836   0.21059   0.00000  Uiso   1.00
C92    C     0.47795   0.17360   0.42394   0.00000  Uiso   1.00
C93    C     0.45705   0.12930   0.42074   0.00000  Uiso   1.00
C94    C     0.49166   0.19061   0.45803   0.00000  Uiso   1.00
C95    C     0.48851   0.23349   0.47168   0.00000  Uiso   1.00
C96    C     0.50895   0.16643   0.47855   0.00000  Uiso   1.00
C97    C     0.51252   0.18162   0.01699   0.00000  Uiso   1.00
C98    C     0.50579   0.22345   0.03119   0.00000  Uiso   1.00
C99    C     0.49552   0.24975   0.00839   0.00000  Uiso   1.00
H100   H     0.55740   0.05766   0.02886   0.00000  Uiso   1.00
H101   H     0.52910   0.11879   0.42950   0.00000  Uiso   1.00
H102   H     0.49279   0.29897   0.05203   0.00000  Uiso   1.00
H103   H     0.51905   0.31071   0.00615   0.00000  Uiso   1.00
H104   H     0.41815   0.22301   0.17505   0.00000  Uiso   1.00
H105   H     0.57954   0.00254   0.21485   0.00000  Uiso   1.00
H106   H     0.55099   0.32638   0.18121   0.00000  Uiso   1.00
H107   H     0.42375   0.07998   0.44950   0.00000  Uiso   1.00
H108   H     0.65168   0.13549   0.27951   0.00000  Uiso   1.00
H109   H     0.45707   0.33150   0.28294   0.00000  Uiso   1.00
H110   H     0.50875   0.19277   0.09629   0.00000  Uiso   1.00
H111   H     0.54969   0.07567   0.09954   0.00000  Uiso   1.00
H112   H     0.55103   0.07449   0.46669   0.00000  Uiso   1.00
H113   H     0.47674   0.29240   0.45725   0.00000  Uiso   1.00
H114   H     0.47114   0.26550   0.39180   0.00000  Uiso   1.00
H115   H     0.51117   0.23735   0.05894   0.00000  Uiso   1.00
N116   N     0.49185   0.29304   0.02265   0.00000  Uiso   1.00
N117   N     0.55133   0.00805   0.20912   0.00000  Uiso   1.00
O118   O     0.50000   0.16667   0.25000   0.00000  Uiso   1.00
O119   O     0.49027   0.12393   0.16625   0.00000  Uiso   1.00
O120   O     0.46020   0.20646   0.33749   0.00000  Uiso   1.00
O121   O     0.54421   0.17493   0.15877   0.00000  Uiso   1.00
O122   O     0.50532   0.16135   0.33749   0.00000  Uiso   1.00
O123   O     0.34534   0.23866   0.20301   0.00000  Uiso   1.00
O124   O     0.40109   0.20103   0.19298   0.00000  Uiso   1.00
O125   O     0.45587   0.11037   0.38880   0.00000  Uiso   1.00
O126   O     0.43702   0.10972   0.45511   0.00000  Uiso   1.00
O127   O     0.51182   0.08101   0.27821   0.00000  Uiso   1.00
O128   O     0.47914   0.26136   0.26767   0.00000  Uiso   1.00
O129   O     0.40785   0.13251   0.23607   0.00000  Uiso   1.00
O130   O     0.60119   0.19179   0.21806   0.00000  Uiso   1.00
O131   O     0.40323   0.18960   0.27820   0.00000  Uiso   1.00
O132   O     0.58773   0.15277   0.26768   0.00000  Uiso   1.00
O133   O     0.47133   0.06903   0.23607   0.00000  Uiso   1.00
O134   O     0.53771   0.25527   0.21806   0.00000  Uiso   1.00
Zn135  Zn    0.52577   0.14090   0.28278   0.00000  Uiso   1.00
Zn136  Zn    0.46792   0.12378   0.22258   0.00000  Uiso   1.00
Zn137  Zn    0.54500   0.19664   0.21188   0.00000  Uiso   1.00
Zn138  Zn    0.46131   0.20535   0.28277   0.00000  Uiso   1.00
C139   C     0.71901   0.15923   0.25924   0.00000  Uiso   1.00
C140   C     0.85906   0.12885   0.46041   0.00000  Uiso   1.00
C141   C     0.87281   0.10370   0.48138   0.00000  Uiso   1.00
C142   C     0.94787   0.17438   0.24143   0.00000  Uiso   1.00
C143   C     0.87044   0.11532   0.02106   0.00000  Uiso   1.00
C144   C     0.85730   0.15466   0.03939   0.00000  Uiso   1.00
C145   C     0.88066   0.08768   0.04272   0.00000  Uiso   1.00
C146   C     0.87644   0.09787   0.08282   0.00000  Uiso   1.00
C147   C     0.85421   0.16459   0.07992   0.00000  Uiso   1.00
C148   C     0.99431   0.17927   0.23811   0.00000  Uiso   1.00
C149   C     0.67421   0.15716   0.26048   0.00000  Uiso   1.00
C150   C     0.80776   0.24391   0.41087   0.00000  Uiso   1.00
C151   C     0.84832   0.32239   0.23771   0.00000  Uiso   1.00
C152   C     0.81839   0.01194   0.26144   0.00000  Uiso   1.00
C153   C     0.82225   0.05613   0.25904   0.00000  Uiso   1.00
C154   C     0.84369   0.27771   0.24121   0.00000  Uiso   1.00
C155   C     0.85479   0.14524   0.14392   0.00000  Uiso   1.00
C156   C     0.81208   0.18768   0.35613   0.00000  Uiso   1.00
C157   C     0.80857   0.20129   0.39799   0.00000  Uiso   1.00
C158   C     0.86320   0.13623   0.10135   0.00000  Uiso   1.00
C159   C     0.81208   0.25945   0.44808   0.00000  Uiso   1.00
C160   C     0.69147   0.20836   0.21059   0.00000  Uiso   1.00
C161   C     0.81128   0.17360   0.42394   0.00000  Uiso   1.00
C162   C     0.79038   0.12930   0.42074   0.00000  Uiso   1.00
C163   C     0.82499   0.19061   0.45803   0.00000  Uiso   1.00
C164   C     0.82185   0.23349   0.47168   0.00000  Uiso   1.00
C165   C     0.84228   0.16643   0.47855   0.00000  Uiso   1.00
C166   C     0.84586   0.18162   0.01699   0.00000  Uiso   1.00
C167   C     0.83912   0.22345   0.03119   0.00000  Uiso   1.00
C168   C     0.82885   0.24975   0.00839   0.00000  Uiso   1.00
H169   H     0.89074   0.05766   0.02886   0.00000  Uiso   1.00
H170   H     0.86243   0.11879   0.42950   0.00000  Uiso   1.00
H171   H     0.82613   0.29897   0.05203   0.00000  Uiso   1.00
H172   H     0.85238   0.31071   0.00615   0.00000  Uiso   1.00
H173   H     0.75148   0.22301   0.17505   0.00000  Uiso   1.00
H174   H     0.91287   0.00254   0.21485   0.00000  Uiso   1.00
H175   H     0.88432   0.32638   0.18121   0.00000  Uiso   1.00
H176   H     0.75708   0.07998   0.44950   0.00000  Uiso   1.00
H177   H     0.98501   0.13549   0.27951   0.00000  Uiso   1.00
H178   H     0.79040   0.33150   0.28294   0.00000  Uiso   1.00
H179   H     0.84208   0.19277   0.09629   0.00000  Uiso   1.00
H180   H     0.88303   0.07567   0.09954   0.00000  Uiso   1.00
H181   H     0.88436   0.07449   0.46669   0.00000  Uiso   1.00
H182   H     0.81007   0.29240   0.45725   0.00000  Uiso   1.00
H183   H     0.80447   0.26550   0.39180   0.00000  Uiso   1.00
H184   H     0.84450   0.23735   0.05894   0.00000  Uiso   1.00
N185   N     0.82519   0.29304   0.02265   0.00000  Uiso   1.00
N186   N     0.88467   0.00805   0.20912   0.00000  Uiso   1.00
O187   O     0.83333   0.16667   0.25000   0.00000  Uiso   1.00
O188   O     0.82360   0.12393   0.16625   0.00000  Uiso   1.00
O189   O     0.79354   0.20646   0.33749   0.00000  Uiso   1.00
O190   O     0.87755   0.17493   0.15877   0.00000  Uiso   1.00
O191   O     0.83865   0.16135   0.33749   0.00000  Uiso   1.00
O192   O     0.67868   0.23866   0.20301   0.00000  Uiso   1.00
O193   O     0.73442   0.20103   0.19298   0.00000  Uiso   1.00
O194   O     0.78920   0.11037   0.38880   0.00000  Uiso   1.00
O195   O     0.77035   0.10972   0.45511   0.00000  Uiso   1.00
O196   O     0.84515   0.08101   0.27821   0.00000  Uiso   1.00
O197   O     0.81247   0.26136   0.26767   0.00000  Uiso   1.00
O198   O     0.74119   0.13251   0.23607   0.00000  Uiso   1.00
O199   O     0.93452   0.19179   0.21806   0.00000  Uiso   1.00
O200   O     0.73656   0.18960   0.27820   0.00000  Uiso   1.00
O201   O     0.92106   0.15277   0.26768   0.00000  Uiso   1.00
O202   O     0.80467   0.06903   0.23607   0.00000  Uiso   1.00
O203   O     0.87104   0.25527   0.21806   0.00000  Uiso   1.00
Zn204  Zn    0.85910   0.14090   0.28278   0.00000  Uiso   1.00
Zn205  Zn    0.80125   0.12378   0.22258   0.00000  Uiso   1.00
Zn206  Zn    0.87833   0.19664   0.21188   0.00000  Uiso   1.00
Zn207  Zn    0.79465   0.20535   0.28277   0.00000  Uiso   1.00
C208   C     0.05235   0.49256   0.25924   0.00000  Uiso   1.00
C209   C     0.19240   0.46218   0.46041   0.00000  Uiso   1.00
C210   C     0.20614   0.43703   0.48138   0.00000  Uiso   1.00
C211   C     0.28120   0.50771   0.24143   0.00000  Uiso   1.00
C212   C     0.20378   0.44865   0.02106   0.00000  Uiso   1.00
C213   C     0.19064   0.48799   0.03939   0.00000  Uiso   1.00
C214   C     0.21399   0.42101   0.04272   0.00000  Uiso   1.00
C215   C     0.20978   0.43120   0.08282   0.00000  Uiso   1.00
C216   C     0.18755   0.49792   0.07992   0.00000  Uiso   1.00
C217   C     0.32765   0.51261   0.23811   0.00000  Uiso   1.00
C218   C     0.00755   0.49050   0.26048   0.00000  Uiso   1.00
C219   C     0.14110   0.57724   0.41087   0.00000  Uiso   1.00
C220   C     0.18166   0.65572   0.23771   0.00000  Uiso   1.00
C221   C     0.15173   0.34527   0.26144   0.00000  Uiso   1.00
C222   C     0.15558   0.38946   0.25904   0.00000  Uiso   1.00
C223   C     0.17702   0.61105   0.24121   0.00000  Uiso   1.00
C224   C     0.18813   0.47858   0.14392   0.00000  Uiso   1.00
C225   C     0.14541   0.52101   0.35613   0.00000  Uiso   1.00
C226   C     0.14190   0.53462   0.39799   0.00000  Uiso   1.00
C227   C     0.19653   0.46956   0.10135   0.00000  Uiso   1.00
C228   C     0.14541   0.59278   0.44808   0.00000  Uiso   1.00
C229   C     0.02480   0.54169   0.21059   0.00000  Uiso   1.00
C230   C     0.14462   0.50694   0.42394   0.00000  Uiso   1.00
C231   C     0.12371   0.46263   0.42074   0.00000  Uiso   1.00
C232   C     0.15833   0.52394   0.45803   0.00000  Uiso   1.00
C233   C     0.15518   0.56682   0.47168   0.00000  Uiso   1.00
C234   C     0.17561   0.49976   0.47855   0.00000  Uiso   1.00
C235   C     0.17919   0.51496   0.01699   0.00000  Uiso   1.00
C236   C     0.17245   0.55678   0.03119   0.00000  Uiso   1.00
C237   C     0.16218   0.58308   0.00839   0.00000  Uiso   1.00
H238   H     0.22407   0.39100   0.02886   0.00000  Uiso   1.00
H239   H     0.19576   0.45212   0.42950   0.00000  Uiso   1.00
H240   H     0.15946   0.63231   0.05203   0.00000  Uiso   1.00
H241   H     0.18572   0.64404   0.00615   0.00000  Uiso   1.00
H242   H     0.08482   0.55634   0.17505   0.00000  Uiso   1.00
H243   H     0.24621   0.33587   0.21485   0.00000  Uiso   1.00
H244   H     0.21766   0.65971   0.18121   0.00000  Uiso   1.00
H245   H     0.09042   0.41331   0.44950   0.00000  Uiso   1.00
H246   H     0.31835   0.46883   0.27951   0.00000  Uiso   1.00
H247   H     0.12373   0.66483   0.28294   0.00000  Uiso   1.00
H248   H     0.17542   0.52610   0.09629   0.00000  Uiso   1.00
H249   H     0.21636   0.40900   0.09954   0.00000  Uiso   1.00
H250   H     0.21769   0.40782   0.46669   0.00000  Uiso   1.00
H251   H     0.14340   0.62573   0.45725   0.00000  Uiso   1.00
H252   H     0.13781   0.59883   0.39180   0.00000  Uiso   1.00
H253   H     0.17783   0.57068   0.05894   0.00000  Uiso   1.00
N254   N     0.15852   0.62638   0.02265   0.00000  Uiso   1.00
N255   N     0.21800   0.34139   0.20912   0.00000  Uiso   1.00
O256   O     0.16667   0.50000   0.25000   0.00000  Uiso   1.00
O257   O     0.15693   0.45726   0.16625   0.00000  Uiso   1.00
O258   O     0.12687   0.53979   0.33749   0.00000  Uiso   1.00
O259   O     0.21088   0.50826   0.15877   0.00000  Uiso   1.00
O260   O     0.17198   0.49468   0.33749   0.00000  Uiso   1.00
O261   O     0.01201   0.57199   0.20301   0.00000  Uiso   1.00
O262   O     0.06776   0.53437   0.19298   0.00000  Uiso   1.00
O263   O     0.12254   0.44370   0.38880   0.00000  Uiso   1.00
O264   O     0.10368   0.44305   0.45511   0.00000  Uiso   1.00
O265   O     0.17849   0.41434   0.27821   0.00000  Uiso   1.00
O266   O     0.14581   0.59469   0.26767   0.00000  Uiso   1.00
O267   O     0.07452   0.46584   0.23607   0.00000  Uiso   1.00
O268   O     0.26785   0.52512   0.21806   0.00000  Uiso   1.00
O269   O     0.06990   0.52293   0.27820   0.00000  Uiso   1.00
O270   O     0.25440   0.48610   0.26768   0.00000  Uiso   1.00
O271   O     0.13800   0.40236   0.23607   0.00000  Uiso   1.00
O272   O     0.20437   0.58860   0.21806   0.00000  Uiso   1.00
Zn273  Zn    0.19244   0.47423   0.28278   0.00000  Uiso   1.00
Zn274  Zn    0.13459   0.45711   0.22258   0.00000  Uiso   1.00
Zn275  Zn    0.21166   0.52997   0.21188   0.00000  Uiso   1.00
Zn276  Zn    0.12798   0.53868   0.28277   0.00000  Uiso   1.00
C277   C     0.38568   0.49256   0.25924   0.00000  Uiso   1.00
C278   C     0.52573   0.46218   0.46041   0.00000  Uiso   1.00
C279   C     0.53947   0.43703   0.48138   0.00000  Uiso   1.00
C280   C     0.61454   0.50771   0.24143   0.00000  Uiso   1.00
C281   C     0.53711   0.44865   0.02106   0.00000  Uiso   1.00
C282   C     0.52397   0.48799   0.03939   0.00000  Uiso   1.00
C283   C     0.54732   0.42101   0.04272   0.00000  Uiso   1.00
C284   C     0.54311   0.43120   0.08282   0.00000  Uiso   1.00
C285   C     0.52088   0.49792   0.07992   0.00000  Uiso   1.00
C286   C     0.66098   0.51261   0.23811   0.00000  Uiso   1.00
C287   C     0.34088   0.49050   0.26048   0.00000  Uiso   1.00
C288   C     0.47443   0.57724   0.41087   0.00000  Uiso   1.00
C289   C     0.51499   0.65572   0.23771   0.00000  Uiso   1.00
C290   C     0.48506   0.34527   0.26144   0.00000  Uiso   1.00
C291   C     0.48891   0.38946   0.25904   0.00000  Uiso   1.00
C292   C     0.51036   0.61105   0.24121   0.00000  Uiso   1.00
C293   C     0.52146   0.47858   0.14392   0.00000  Uiso   1.00
C294   C     0.47874   0.52101   0.35613   0.00000  Uiso   1.00
C295   C     0.47523   0.53462   0.39799   0.00000  Uiso   1.00
C296   C     0.52986   0.46956   0.10135   0.00000  Uiso   1.00
C297   C     0.47874   0.59278   0.44808   0.00000  Uiso   1.00
C298   C     0.35814   0.54169   0.21059   0.00000  Uiso   1.00
C299   C     0.47795   0.50694   0.42394   0.00000  Uiso   1.00
C300   C     0.45705   0.46263   0.42074   0.00000  Uiso   1.00
C301   C     0.49166   0.52394   0.45803   0.00000  Uiso   1.00
C302   C     0.48851   0.56682   0.47168   0.00000  Uiso   1.00
C303   C     0.50895   0.49976   0.47855   0.00000  Uiso   1.00
C304   C     0.51252   0.51496   0.01699   0.00000  Uiso   1.00
C305   C     0.50579   0.55678   0.03119   0.00000  Uiso   1.00
C306   C     0.49552   0.58308   0.00839   0.00000  Uiso   1.00
H307   H     0.55740   0.39100   0.02886   0.00000  Uiso   1.00
H308   H     0.52910   0.45212   0.42950   0.00000  Uiso   1.00
H309   H     0.49279   0.63231   0.05203   0.00000  Uiso   1.00
H310   H     0.51905   0.64404   0.00615   0.00000  Uiso   1.00
H311   H     0.41815   0.55634   0.17505   0.00000  Uiso   1.00
H312   H     0.57954   0.33587   0.21485   0.00000  Uiso   1.00
H313   H     0.55099   0.65971   0.18121   0.00000  Uiso   1.00
H314   H     0.42375   0.41331   0.44950   0.00000  Uiso   1.00
H315   H     0.65168   0.46883   0.27951   0.00000  Uiso   1.00
H316   H     0.45707   0.66483   0.28294   0.00000  Uiso   1.00
H317   H     0.50875   0.52610   0.09629   0.00000  Uiso   1.00
H318   H     0.54969   0.40900   0.09954   0.00000  Uiso   1.00
H319   H     0.55103   0.40782   0.46669   0.00000  Uiso   1.00
H320   H     0.47674   0.62573   0.45725   0.00000  Uiso   1.00
H321   H     0.47114   0.59883   0.39180   0.00000  Uiso   1.00
H322   H     0.51117   0.57068   0.05894   0.00000  Uiso   1.00
N323   N     0.49185   0.62638   0.02265   0.00000  Uiso   1.00
N324   N     0.55133   0.34139   0.20912   0.00000  Uiso   1.00
O325   O     0.50000   0.50000   0.25000   0.00000  Uiso   1.00
O326   O     0.49027   0.45726   0.16625   0.00000  Uiso   1.00
O327   O     0.46020   0.53979   0.33749   0.00000  Uiso   1.00
O328   O     0.54421   0.50826   0.15877   0.00000  Uiso   1.00
O329   O     0.50532   0.49468   0.33749   0.00000  Uiso   1.00
O330   O     0.34534   0.57199   0.20301   0.00000  Uiso   1.00
O331   O     0.40109   0.53437   0.19298   0.00000  Uiso   1.00
O332   O     0.45587   0.44370   0.38880   0.00000  Uiso   1.00
O333   O     0.43702   0.44305   0.45511   0.00000  Uiso   1.00
O334   O     0.51182   0.41434   0.27821   0.00000  Uiso   1.00
O335   O     0.47914   0.59469   0.26767   0.00000  Uiso   1.00
O336   O     0.40785   0.46584   0.23607   0.00000  Uiso   1.00
O337   O     0.60119   0.52512   0.21806   0.00000  Uiso   1.00
O338   O     0.40323   0.52293   0.27820   0.00000  Uiso   1.00
O339   O     0.58773   0.48610   0.26768   0.00000  Uiso   1.00
O340   O     0.47133   0.40236   0.23607   0.00000  Uiso   1.00
O341   O     0.53771   0.58860   0.21806   0.00000  Uiso   1.00
Zn342  Zn    0.52577   0.47423   0.28278   0.00000  Uiso   1.00
Zn343  Zn    0.46792   0.45711   0.22258   0.00000  Uiso   1.00
Zn344  Zn    0.54500   0.52997   0.21188   0.00000  Uiso   1.00
Zn345  Zn    0.46131   0.53868   0.28277   0.00000  Uiso   1.00
C346   C     0.71901   0.49256   0.25924   0.00000  Uiso   1.00
C347   C     0.85906   0.46218   0.46041   0.00000  Uiso   1.00
C348   C     0.87281   0.43703   0.48138   0.00000  Uiso   1.00
C349   C     0.94787   0.50771   0.24143   0.00000  Uiso   1.00
C350   C     0.87044   0.44865   0.02106   0.00000  Uiso   1.00
C351   C     0.85730   0.48799   0.03939   0.00000  Uiso   1.00
C352   C     0.88066   0.42101   0.04272   0.00000  Uiso   1.00
C353   C     0.87644   0.43120   0.08282   0.00000  Uiso   1.00
C354   C     0.85421   0.49792   0.07992   0.00000  Uiso   1.00
C355   C     0.99431   0.51261   0.23811   0.00000  Uiso   1.00
C356   C     0.67421   0.49050   0.26048   0.00000  Uiso   1.00
C357   C     0.80776   0.57724   0.41087   0.00000  Uiso   1.00
C358   C     0.84832   0.65572   0.23771   0.00000  Uiso   1.00
C359   C     0.81839   0.34527   0.26144   0.00000  Uiso   1.00
C360   C     0.82225   0.38946   0.25904   0.00000  Uiso   1.00
C361   C     0.84369   0.61105   0.24121   0.00000  Uiso   1.00
C362   C     0.85479   0.47858   0.14392   0.00000  Uiso   1.00
C363   C     0.81208   0.52101   0.35613   0.00000  Uiso   1.00
C364   C     0.80857   0.53462   0.39799   0.00000  Uiso   1.00
C365   C     0.86320   0.46956   0.10135   0.00000  Uiso   1.00
C366   C     0.81208   0.59278   0.44808   0.00000  Uiso   1.00
C367   C     0.69147   0.54169   0.21059   0.00000  Uiso   1.00
C368   C     0.81128   0.50694   0.42394   0.00000  Uiso   1.00
C369   C     0.79038   0.46263   0.42074   0.00000  Uiso   1.00
C370   C     0.82499   0.52394   0.45803   0.00000  Uiso   1.00
C371   C     0.82185   0.56682   0.47168   0.00000  Uiso   1.00
C372   C     0.84228   0.49976   0.47855   0.00000  Uiso   1.00
C373   C     0.84586   0.51496   0.01699   0.00000  Uiso   1.00
C374   C     0.83912   0.55678   0.03119   0.00000  Uiso   1.00
C375   C     0.82885   0.58308   0.00839   0.00000  Uiso   1.00
H376   H     0.89074   0.39100   0.02886   0.00000  Uiso   1.00
H377   H     0.86243   0.45212   0.42950   0.00000  Uiso   1.00
H378   H     0.82613   0.63231   0.05203   0.00000  Uiso   1.00
H379   H     0.85238   0.64404   0.00615   0.00000  Uiso   1.00
H380   H     0.75148   0.55634   0.17505   0.00000  Uiso   1.00
H381   H     0.91287   0.33587   0.21485   0.00000  Uiso   1.00
H382   H     0.88432   0.65971   0.18121   0.00000  Uiso   1.00
H383   H     0.75708   0.41331   0.44950   0.00000  Uiso   1.00
H384   H     0.98501   0.46883   0.27951   0.00000  Uiso   1.00
H385   H     0.79040   0.66483   0.28294   0.00000  Uiso   1.00
H386   H     0.84208   0.52610   0.09629   0.00000  Uiso   1.00
H387   H     0.88303   0.40900   0.09954   0.00000  Uiso   1.00
H388   H     0.88436   0.40782   0.46669   0.00000  Uiso   1.00
H389   H     0.81007   0.62573   0.45725   0.00000  Uiso   1.00
H390   H     0.80447   0.59883   0.39180   0.00000  Uiso   1.00
H391   H     0.84450   0.57068   0.05894   0.00000  Uiso   1.00
N392   N     0.82519   0.62638   0.02265   0.00000  Uiso   1.00
N393   N     0.88467   0.34139   0.20912   0.00000  Uiso   1.00
O394   O     0.83333   0.50000   0.25000   0.00000  Uiso   1.00
O395   O     0.82360   0.45726   0.16625   0.00000  Uiso   1.00
O396   O     0.79354   0.53979   0.33749   0.00000  Uiso   1.00
O397   O     0.87755   0.50826   0.15877   0.00000  Uiso   1.00
O398   O     0.83865   0.49468   0.33749   0.00000  Uiso   1.00
O399   O     0.67868   0.57199   0.20301   0.00000  Uiso   1.00
O400   O     0.73442   0.53437   0.19298   0.00000  Uiso   1.00
O401   O     0.78920   0.44370   0.38880   0.00000  Uiso   1.00
O402   O     0.77035   0.44305   0.45511   0.00000  Uiso   1.00
O403   O     0.84515   0.41434   0.27821   0.00000  Uiso   1.00
O404   O     0.81247   0.59469   0.26767   0.00000  Uiso   1.00
O405   O     0.74119   0.46584   0.23607   0.00000  Uiso   1.00
O406   O     0.93452   0.52512   0.21806   0.00000  Uiso   1.00
O407   O     0.73656   0.52293   0.27820   0.00000  Uiso   1.00
O408   O     0.92106   0.48610   0.26768   0.00000  Uiso   1.00
O409   O     0.80467   0.40236   0.23607   0.00000  Uiso   1.00
O410   O     0.87104   0.58860   0.21806   0.00000  Uiso   1.00
Zn411  Zn    0.85910   0.47423   0.28278   0.00000  Uiso   1.00
Zn412  Zn    0.80125   0.45711   0.22258   0.00000  Uiso   1.00
Zn413  Zn    0.87833   0.52997   0.21188   0.00000  Uiso   1.00
Zn414  Zn    0.79465   0.53868   0.28277   0.00000  Uiso   1.00
C415   C     0.05235   0.82589   0.25924   0.00000  Uiso   1.00
C416   C     0.19240   0.79552   0.46041   0.00000  Uiso   1.00
C417   C     0.20614   0.77036   0.48138   0.00000  Uiso   1.00
C418   C     0.28120   0.84104   0.24143   0.00000  Uiso   1.00
C419   C     0.20378   0.78199   0.02106   0.00000  Uiso   1.00
C420   C     0.19064   0.82133   0.03939   0.00000  Uiso   1.00
C421   C     0.21399   0.75434   0.04272   0.00000  Uiso   1.00
C422   C     0.20978   0.76454   0.08282   0.00000  Uiso   1.00
C423   C     0.18755   0.83126   0.07992   0.00000  Uiso   1.00
C424   C     0.32765   0.84594   0.23811   0.00000  Uiso   1.00
C425   C     0.00755   0.82383   0.26048   0.00000  Uiso   1.00
C426   C     0.14110   0.91057   0.41087   0.00000  Uiso   1.00
C427   C     0.18166   0.98905   0.23771   0.00000  Uiso   1.00
C428   C     0.15173   0.67860   0.26144   0.00000  Uiso   1.00
C429   C     0.15558   0.72279   0.25904   0.00000  Uiso   1.00
C430   C     0.17702   0.94438   0.24121   0.00000  Uiso   1.00
C431   C     0.18813   0.81191   0.14392   0.00000  Uiso   1.00
C432   C     0.14541   0.85434   0.35613   0.00000  Uiso   1.00
C433   C     0.14190   0.86796   0.39799   0.00000  Uiso   1.00
C434   C     0.19653   0.80289   0.10135   0.00000  Uiso   1.00
C435   C     0.14541   0.92611   0.44808   0.00000  Uiso   1.00
C436   C     0.02480   0.87503   0.21059   0.00000  Uiso   1.00
C437   C     0.14462   0.84027   0.42394   0.00000  Uiso   1.00
C438   C     0.12371   0.79597   0.42074   0.00000  Uiso   1.00
C439   C     0.15833   0.85727   0.45803   0.00000  Uiso   1.00
C440   C     0.15518   0.90016   0.47168   0.00000  Uiso   1.00
C441   C     0.17561   0.83309   0.47855   0.00000  Uiso   1.00
C442   C     0.17919   0.84829   0.01699   0.00000  Uiso   1.00
C443   C     0.17245   0.89012   0.03119   0.00000  Uiso   1.00
C444   C     0.16218   0.91642   0.00839   0.00000  Uiso   1.00
H445   H     0.22407   0.72433   0.02886   0.00000  Uiso   1.00
H446   H     0.19576   0.78545   0.42950   0.00000  Uiso   1.00
H447   H     0.15946   0.96564   0.05203   0.00000  Uiso   1.00
H448   H     0.18572   0.97738   0.00615   0.00000  Uiso   1.00
H449   H     0.08482   0.88968   0.17505   0.00000  Uiso   1.00
H450   H     0.24621   0.66920   0.21485   0.00000  Uiso   1.00
H451   H     0.21766   0.99304   0.18121   0.00000  Uiso   1.00
H452   H     0.09042   0.74665   0.44950   0.00000  Uiso   1.00
H453   H     0.31835   0.80216   0.27951   0.00000  Uiso   1.00
H454   H     0.12373   0.99817   0.28294   0.00000  Uiso   1.00
H455   H     0.17542   0.85943   0.09629   0.00000  Uiso   1.00
H456   H     0.21636   0.74234   0.09954   0.00000  Uiso   1.00
H457   H     0.21769   0.74116   0.46669   0.00000  Uiso   1.00
H458   H     0.14340   0.95907   0.45725   0.00000  Uiso   1.00
H459   H     0.13781   0.93217   0.39180   0.00000  Uiso   1.00
H460   H     0.17783   0.90402   0.05894   0.00000  Uiso   1.00
N461   N     0.15852   0.95971   0.02265   0.00000  Uiso   1.00
N462   N     0.21800   0.67472   0.20912   0.00000  Uiso   1.00
O463   O     0.16667   0.83333   0.25000   0.00000  Uiso   1.00
O464   O     0.15693   0.79060   0.16625   0.00000  Uiso   1.00
O465   O     0.12687   0.87313   0.33749   0.00000  Uiso   1.00
O466   O     0.21088   0.84159   0.15877   0.00000  Uiso   1.00
O467   O     0.17198   0.82802   0.33749   0.00000  Uiso   1.00
O468   O     0.01201   0.90533   0.20301   0.00000  Uiso   1.00
O469   O     0.06776   0.86770   0.19298   0.00000  Uiso   1.00
O470   O     0.12254   0.77703   0.38880   0.00000  Uiso   1.00
O471   O     0.10368   0.77639   0.45511   0.00000  Uiso   1.00
O472   O     0.17849   0.74768   0.27821   0.00000  Uiso   1.00
O473   O     0.14581   0.92803   0.26767   0.00000  Uiso   1.00
O474   O     0.07452   0.79917   0.23607   0.00000  Uiso   1.00
O475   O     0.26785   0.85845   0.21806   0.00000  Uiso   1.00
O476   O     0.06990   0.85627   0.27820   0.00000  Uiso   1.00
O477   O     0.25440   0.81944   0.26768   0.00000  Uiso   1.00
O478   O     0.13800   0.73570   0.23607   0.00000  Uiso   1.00
O479   O     0.20437   0.92193   0.21806   0.00000  Uiso   1.00
Zn480  Zn    0.19244   0.80756   0.28278   0.00000  Uiso   1.00
Zn481  Zn    0.13459   0.79044   0.22258   0.00000  Uiso   1.00
Zn482  Zn    0.21166   0.86331   0.21188   0.00000  Uiso   1.00
Zn483  Zn    0.12798   0.87202   0.28277   0.00000  Uiso   1.00
C484   C     0.38568   0.82589   0.25924   0.00000  Uiso   1.00
C485   C     0.52573   0.79552   0.46041   0.00000  Uiso   1.00
C486   C     0.53947   0.77036   0.48138   0.00000  Uiso   1.00
C487   C     0.61454   0.84104   0.24143   0.00000  Uiso   1.00
C488   C     0.53711   0.78199   0.02106   0.00000  Uiso   1.00
C489   C     0.52397   0.82133   0.03939   0.00000  Uiso   1.00
C490   C     0.54732   0.75434   0.04272   0.00000  Uiso   1.00
C491   C     0.54311   0.76454   0.08282   0.00000  Uiso   1.00
C492   C     0.52088   0.83126   0.07992   0.00000  Uiso   1.00
C493   C     0.66098   0.84594   0.23811   0.00000  Uiso   1.00
C494   C     0.34088   0.82383   0.26048   0.00000  Uiso   1.00
C495   C     0.47443   0.91057   0.41087   0.00000  Uiso   1.00
C496   C     0.51499   0.98905   0.23771   0.00000  Uiso   1.00
C497   C     0.48506   0.67860   0.26144   0.00000  Uiso   1.00
C498   C     0.48891   0.72279   0.25904   0.00000  Uiso   1.00
C499   C     0.51036   0.94438   0.24121   0.00000  Uiso   1.00
C500   C     0.52146   0.81191   0.14392   0.00000  Uiso   1.00
C501   C     0.47874   0.85434   0.35613   0.00000  Uiso   1.00
C502   C     0.47523   0.86796   0.39799   0.00000  Uiso   1.00
C503   C     0.52986   0.80289   0.10135   0.00000  Uiso   1.00
C504   C     0.47874   0.92611   0.44808   0.00000  Uiso   1.00
C505   C     0.35814   0.87503   0.21059   0.00000  Uiso   1.00
C506   C     0.47795   0.84027   0.42394   0.00000  Uiso   1.00
C507   C     0.45705   0.79597   0.42074   0.00000  Uiso   1.00
C508   C     0.49166   0.85727   0.45803   0.00000  Uiso   1.00
C509   C     0.48851   0.90016   0.47168   0.00000  Uiso   1.00
C510   C     0.50895   0.83309   0.47855   0.00000  Uiso   1.00
C511   C     0.51252   0.84829   0.01699   0.00000  Uiso   1.00
C512   C     0.50579   0.89012   0.03119   0.00000  Uiso   1.00
C513   C     0.49552   0.91642   0.00839   0.00000  Uiso   1.00
H514   H     0.55740   0.72433   0.02886   0.00000  Uiso   1.00
H515   H     0.52910   0.78545   0.42950   0.00000  Uiso   1.00
H516   H     0.49279   0.96564   0.05203   0.00000  Uiso   1.00
H517   H     0.51905   0.97738   0.00615   0.00000  Uiso   1.00
H518   H     0.41815   0.88968   0.17505   0.00000  Uiso   1.00
H519   H     0.57954   0.66920   0.21485   0.00000  Uiso   1.00
H520   H     0.55099   0.99304   0.18121   0.00000  Uiso   1.00
H521   H     0.42375   0.74665   0.44950   0.00000  Uiso   1.00
H522   H     0.65168   0.80216   0.27951   0.00000  Uiso   1.00
H523   H     0.45707   0.99817   0.28294   0.00000  Uiso   1.00
H524   H     0.50875   0.85943   0.09629   0.00000  Uiso   1.00
H525   H     0.54969   0.74234   0.09954   0.00000  Uiso   1.00
H526   H     0.55103   0.74116   0.46669   0.00000  Uiso   1.00
H527   H     0.47674   0.95907   0.45725   0.00000  Uiso   1.00
H528   H     0.47114   0.93217   0.39180   0.00000  Uiso   1.00
H529   H     0.51117   0.90402   0.05894   0.00000  Uiso   1.00
N530   N     0.49185   0.95971   0.02265   0.00000  Uiso   1.00
N531   N     0.55133   0.67472   0.20912   0.00000  Uiso   1.00
O532   O     0.50000   0.83333   0.25000   0.00000  Uiso   1.00
O533   O     0.49027   0.79060   0.16625   0.00000  Uiso   1.00
O534   O     0.46020   0.87313   0.33749   0.00000  Uiso   1.00
O535   O     0.54421   0.84159   0.15877   0.00000  Uiso   1.00
O536   O     0.50532   0.82802   0.33749   0.00000  Uiso   1.00
O537   O     0.34534   0.90533   0.20301   0.00000  Uiso   1.00
O538   O     0.40109   0.86770   0.19298   0.00000  Uiso   1.00
O539   O     0.45587   0.77703   0.38880   0.00000  Uiso   1.00
O540   O     0.43702   0.77639   0.45511   0.00000  Uiso   1.00
O541   O     0.51182   0.74768   0.27821   0.00000  Uiso   1.00
O542   O     0.47914   0.92803   0.26767   0.00000  Uiso   1.00
O543   O     0.40785   0.79917   0.23607   0.00000  Uiso   1.00
O544   O     0.60119   0.85845   0.21806   0.00000  Uiso   1.00
O545   O     0.40323   0.85627   0.27820   0.00000  Uiso   1.00
O546   O     0.58773   0.81944   0.26768   0.00000  Uiso   1.00
O547   O     0.47133   0.73570   0.23607   0.00000  Uiso   1.00
O548   O     0.53771   0.92193   0.21806   0.00000  Uiso   1.00
Zn549  Zn    0.52577   0.80756   0.28278   0.00000  Uiso   1.00
Zn550  Zn    0.46792   0.79044   0.22258   0.00000  Uiso   1.00
Zn551  Zn    0.54500   0.86331   0.21188   0.00000  Uiso   1.00
Zn552  Zn    0.46131   0.87202   0.28277   0.00000  Uiso   1.00
C553   C     0.71901   0.82589   0.25924   0.00000  Uiso   1.00
C554   C     0.85906   0.79552   0.46041   0.00000  Uiso   1.00
C555   C     0.87281   0.77036   0.48138   0.00000  Uiso   1.00
C556   C     0.94787   0.84104   0.24143   0.00000  Uiso   1.00
C557   C     0.87044   0.78199   0.02106   0.00000  Uiso   1.00
C558   C     0.85730   0.82133   0.03939   0.00000  Uiso   1.00
C559   C     0.88066   0.75434   0.04272   0.00000  Uiso   1.00
C560   C     0.87644   0.76454   0.08282   0.00000  Uiso   1.00
C561   C     0.85421   0.83126   0.07992   0.00000  Uiso   1.00
C562   C     0.99431   0.84594   0.23811   0.00000  Uiso   1.00
C563   C     0.67421   0.82383   0.26048   0.00000  Uiso   1.00
C564   C     0.80776   0.91057   0.41087   0.00000  Uiso   1.00
C565   C     0.84832   0.98905   0.23771   0.00000  Uiso   1.00
C566   C     0.81839   0.67860   0.26144   0.00000  Uiso   1.00
C567   C     0.82225   0.72279   0.25904   0.00000  Uiso   1.00
C568   C     0.84369   0.94438   0.24121   0.00000  Uiso   1.00
C569   C     0.85479   0.81191   0.14392   0.00000  Uiso   1.00
C570   C     0.81208   0.85434   0.35613   0.00000  Uiso   1.00
C571   C     0.80857   0.86796   0.39799   0.00000  Uiso   1.00
C572   C     0.86320   0.80289   0.10135   0.00000  Uiso   1.00
C573   C     0.81208   0.92611   0.44808   0.00000  Uiso   1.00
C574   C     0.69147   0.87503   0.21059   0.00000  Uiso   1.00
C575   C     0.81128   0.84027   0.42394   0.00000  Uiso   1.00
C576   C     0.79038   0.79597   0.42074   0.00000  Uiso   1.00
C577   C     0.82499   0.85727   0.45803   0.00000  Uiso   1.00
C578   C     0.82185   0.90016   0.47168   0.00000  Uiso   1.00
C579   C     0.84228   0.83309   0.47855   0.00000  Uiso   1.00
C580   C     0.84586   0.84829   0.01699   0.00000  Uiso   1.00
C581   C     0.83912   0.89012   0.03119   0.00000  Uiso   1.00
C582   C     0.82885   0.91642   0.00839   0.00000  Uiso   1.00
H583   H     0.89074   0.72433   0.02886   0.00000  Uiso   1.00
H584   H     0.86243   0.78545   0.42950   0.00000  Uiso   1.00
H585   H     0.82613   0.96564   0.05203   0.00000  Uiso   1.00
H586   H     0.85238   0.97738   0.00615   0.00000  Uiso   1.00
H587   H     0.75148   0.88968   0.17505   0.00000  Uiso   1.00
H588   H     0.91287   0.66920   0.21485   0.00000  Uiso   1.00
H589   H     0.88432   0.99304   0.18121   0.00000  Uiso   1.00
H590   H     0.75708   0.74665   0.44950   0.00000  Uiso   1.00
H591   H     0.98501   0.80216   0.27951   0.00000  Uiso   1.00
H592   H     0.79040   0.99817   0.28294   0.00000  Uiso   1.00
H593   H     0.84208   0.85943   0.09629   0.00000  Uiso   1.00
H594   H     0.88303   0.74234   0.09954   0.00000  Uiso   1.00
H595   H     0.88436   0.74116   0.46669   0.00000  Uiso   1.00
H596   H     0.81007   0.95907   0.45725   0.00000  Uiso   1.00
H597   H     0.80447   0.93217   0.39180   0.00000  Uiso   1.00
H598   H     0.84450   0.90402   0.05894   0.00000  Uiso   1.00
N599   N     0.82519   0.95971   0.02265   0.00000  Uiso   1.00
N600   N     0.88467   0.67472   0.20912   0.00000  Uiso   1.00
O601   O     0.83333   0.83333   0.25000   0.00000  Uiso   1.00
O602   O     0.82360   0.79060   0.16625   0.00000  Uiso   1.00
O603   O     0.79354   0.87313   0.33749   0.00000  Uiso   1.00
O604   O     0.87755   0.84159   0.15877   0.00000  Uiso   1.00
O605   O     0.83865   0.82802   0.33749   0.00000  Uiso   1.00
O606   O     0.67868   0.90533   0.20301   0.00000  Uiso   1.00
O607   O     0.73442   0.86770   0.19298   0.00000  Uiso   1.00
O608   O     0.78920   0.77703   0.38880   0.00000  Uiso   1.00
O609   O     0.77035   0.77639   0.45511   0.00000  Uiso   1.00
O610   O     0.84515   0.74768   0.27821   0.00000  Uiso   1.00
O611   O     0.81247   0.92803   0.26767   0.00000  Uiso   1.00
O612   O     0.74119   0.79917   0.23607   0.00000  Uiso   1.00
O613   O     0.93452   0.85845   0.21806   0.00000  Uiso   1.00
O614   O     0.73656   0.85627   0.27820   0.00000  Uiso   1.00
O615   O     0.92106   0.81944   0.26768   0.00000  Uiso   1.00
O616   O     0.80467   0.73570   0.23607   0.00000  Uiso   1.00
O617   O     0.87104   0.92193   0.21806   0.00000  Uiso   1.00
Zn618  Zn    0.85910   0.80756   0.28278   0.00000  Uiso   1.00
Zn619  Zn    0.80125   0.79044   0.22258   0.00000  Uiso   1.00
Zn620  Zn    0.87833   0.86331   0.21188   0.00000  Uiso   1.00
Zn621  Zn    0.79465   0.87202   0.28277   0.00000  Uiso   1.00
C622   C     0.05235   0.15923   0.75924   0.00000  Uiso   1.00
C623   C     0.19240   0.12885   0.96041   0.00000  Uiso   1.00
C624   C     0.20614   0.10370   0.98138   0.00000  Uiso   1.00
C625   C     0.28120   0.17438   0.74143   0.00000  Uiso   1.00
C626   C     0.20378   0.11532   0.52106   0.00000  Uiso   1.00
C627   C     0.19064   0.15466   0.53939   0.00000  Uiso   1.00
C628   C     0.21399   0.08768   0.54272   0.00000  Uiso   1.00
C629   C     0.20978   0.09787   0.58282   0.00000  Uiso   1.00
C630   C     0.18755   0.16459   0.57992   0.00000  Uiso   1.00
C631   C     0.32765   0.17927   0.73811   0.00000  Uiso   1.00
C632   C     0.00755   0.15716   0.76048   0.00000  Uiso   1.00
C633   C     0.14110   0.24391   0.91087   0.00000  Uiso   1.00
C634   C     0.18166   0.32239   0.73771   0.00000  Uiso   1.00
C635   C     0.15173   0.01194   0.76144   0.00000  Uiso   1.00
C636   C     0.15558   0.05613   0.75904   0.00000  Uiso   1.00
C637   C     0.17702   0.27771   0.74121   0.00000  Uiso   1.00
C638   C     0.18813   0.14524   0.64392   0.00000  Uiso   1.00
C639   C     0.14541   0.18768   0.85613   0.00000  Uiso   1.00
C640   C     0.14190   0.20129   0.89799   0.00000  Uiso   1.00
C641   C     0.19653   0.13623   0.60135   0.00000  Uiso   1.00
C642   C     0.14541   0.25945   0.94808   0.00000  Uiso   1.00
C643   C     0.02480   0.20836   0.71059   0.00000  Uiso   1.00
C644   C     0.14462   0.17360   0.92394   0.00000  Uiso   1.00
C645   C     0.12371   0.12930   0.92074   0.00000  Uiso   1.00
C646   C     0.15833   0.19061   0.95803   0.00000  Uiso   1.00
C647   C     0.15518   0.23349   0.97168   0.00000  Uiso   1.00
C648   C     0.17561   0.16643   0.97855   0.00000  Uiso   1.00
C649   C     0.17919   0.18162   0.51699   0.00000  Uiso   1.00
C650   C     0.17245   0.22345   0.53119   0.00000  Uiso   1.00
C651   C     0.16218   0.24975   0.50839   0.00000  Uiso   1.00
H652   H     0.22407   0.05766   0.52886   0.00000  Uiso   1.00
H653   H     0.19576   0.11879   0.92950   0.00000  Uiso   1.00
H654   H     0.15946   0.29897   0.55203   0.00000  Uiso   1.00
H655   H     0.18572   0.31071   0.50615   0.00000  Uiso   1.00
H656   H     0.08482   0.22301   0.67505   0.00000  Uiso   1.00
H657   H     0.24621   0.00254   0.71485   0.00000  Uiso   1.00
H658   H     0.21766   0.32638   0.68121   0.00000  Uiso   1.00
H659   H     0.09042   0.07998   0.94950   0.00000  Uiso   1.00
H660   H     0.31835   0.13549   0.77951   0.00000  Uiso   1.00
H661   H     0.12373   0.33150   0.78294   0.00000  Uiso   1.00
H662   H     0.17542   0.19277   0.59629   0.00000  Uiso   1.00
H663   H     0.21636   0.07567   0.59954   0.00000  Uiso   1.00
H664   H     0.21769   0.07449   0.96669   0.00000  Uiso   1.00
H665   H     0.14340   0.29240   0.95725   0.00000  Uiso   1.00
H666   H     0.13781   0.26550   0.89180   0.00000  Uiso   1.00
H667   H     0.17783   0.23735   0.55894   0.00000  Uiso   1.00
N668   N     0.15852   0.29304   0.52265   0.00000  Uiso   1.00
N669   N     0.21800   0.00805   0.70912   0.00000  Uiso   1.00
O670   O     0.16667   0.16667   0.75000   0.00000  Uiso   1.00
O671   O     0.15693   0.12393   0.66625   0.00000  Uiso   1.00
O672   O     0.12687   0.20646   0.83749   0.00000  Uiso   1.00
O673   O     0.21088   0.17493   0.65877   0.00000  Uiso   1.00
O674   O     0.17198   0.16135   0.83749   0.00000  Uiso   1.00
O675   O     0.01201   0.23866   0.70301   0.00000  Uiso   1.00
O676   O     0.06776   0.20103   0.69298   0.00000  Uiso   1.00
O677   O     0.12254   0.11037   0.88880   0.00000  Uiso   1.00
O678   O     0.10368   0.10972   0.95511   0.00000  Uiso   1.00
O679   O     0.17849   0.08101   0.77821   0.00000  Uiso   1.00
O680   O     0.14581   0.26136   0.76767   0.00000  Uiso   1.00
O681   O     0.07452   0.13251   0.73607   0.00000  Uiso   1.00
O682   O     0.26785   0.19179   0.71806   0.00000  Uiso   1.00
O683   O     0.06990   0.18960   0.77820   0.00000  Uiso   1.00
O684   O     0.25440   0.15277   0.76768   0.00000  Uiso   1.00
O685   O     0.13800   0.06903   0.73607   0.00000  Uiso   1.00
O686   O     0.20437   0.25527   0.71806   0.00000  Uiso   1.00
Zn687  Zn    0.19244   0.14090   0.78278   0.00000  Uiso   1.00
Zn688  Zn    0.13459   0.12378   0.72258   0.00000  Uiso   1.00
Zn689  Zn    0.21166   0.19664   0.71188   0.00000  Uiso   1.00
Zn690  Zn    0.12798   0.20535   0.78277   0.00000  Uiso   1.00
C691   C     0.38568   0.15923   0.75924   0.00000  Uiso   1.00
C692   C     0.52573   0.12885   0.96041   0.00000  Uiso   1.00
C693   C     0.53947   0.10370   0.98138   0.00000  Uiso   1.00
C694   C     0.61454   0.17438   0.74143   0.00000  Uiso   1.00
C695   C     0.53711   0.11532   0.52106   0.00000  Uiso   1.00
C696   C     0.52397   0.15466   0.53939   0.00000  Uiso   1.00
C697   C     0.54732   0.08768   0.54272   0.00000  Uiso   1.00
C698   C     0.54311   0.09787   0.58282   0.00000  Uiso   1.00
C699   C     0.52088   0.16459   0.57992   0.00000  Uiso   1.00
C700   C     0.66098   0.17927   0.73811   0.00000  Uiso   1.00
C701   C     0.34088   0.15716   0.76048   0.00000  Uiso   1.00
C702   C     0.47443   0.24391   0.91087   0.00000  Uiso   1.00
C703   C     0.51499   0.32239   0.73771   0.00000  Uiso   1.00
C704   C     0.48506   0.01194   0.76144   0.00000  Uiso   1.00
C705   C     0.48891   0.05613   0.75904   0.00000  Uiso   1.00
C706   C     0.51036   0.27771   0.74121   0.00000  Uiso   1.00
C707   C     0.52146   0.14524   0.64392   0.00000  Uiso   1.00
C708   C     0.47874   0.18768   0.85613   0.00000  Uiso   1.00
C709   C     0.47523   0.20129   0.89799   0.00000  Uiso   1.00
C710   C     0.52986   0.13623   0.60135   0.00000  Uiso   1.00
C711   C     0.47874   0.25945   0.94808   0.00000  Uiso   1.00
C712   C     0.35814   0.20836   0.71059   0.00000  Uiso   1.00
C713   C     0.47795   0.17360   0.92394   0.00000  Uiso   1.00
C714   C     0.45705   0.12930   0.92074   0.00000  Uiso   1.00
C715   C     0.49166   0.19061   0.95803   0.00000  Uiso   1.00
C716   C     0.48851   0.23349   0.97168   0.00000  Uiso   1.00
C717   C     0.50895   0.16643   0.97855   0.00000  Uiso   1.00
C718   C     0.51252   0.18162   0.51699   0.00000  Uiso   1.00
C719   C     0.50579   0.22345   0.53119   0.00000  Uiso   1.00
C720   C     0.49552   0.24975   0.50839   0.00000  Uiso   1.00
H721   H     0.55740   0.05766   0.52886   0.00000  Uiso   1.00
H722   H     0.52910   0.11879   0.92950   0.00000  Uiso   1.00
H723   H     0.49279   0.29897   0.55203   0.00000  Uiso   1.00
H724   H     0.51905   0.31071   0.50615   0.00000  Uiso   1.00
H725   H     0.41815   0.22301   0.67505   0.00000  Uiso   1.00
H726   H     0.57954   0.00254   0.71485   0.00000  Uiso   1.00
H727   H     0.55099   0.32638   0.68121   0.00000  Uiso   1.00
H728   H     0.42375   0.07998   0.94950   0.00000  Uiso   1.00
H729   H     0.65168   0.13549   0.77951   0.00000  Uiso   1.00
H730   H     0.45707   0.33150   0.78294   0.00000  Uiso   1.00
H731   H     0.50875   0.19277   0.59629   0.00000  Uiso   1.00
H732   H     0.54969   0.07567   0.59954   0.00000  Uiso   1.00
H733   H     0.55103   0.07449   0.96669   0.00000  Uiso   1.00
H734   H     0.47674   0.29240   0.95725   0.00000  Uiso   1.00
H735   H     0.47114   0.26550   0.89180   0.00000  Uiso   1.00
H736   H     0.51117   0.23735   0.55894   0.00000  Uiso   1.00
N737   N     0.49185   0.29304   0.52265   0.00000  Uiso   1.00
N738   N     0.55133   0.00805   0.70912   0.00000  Uiso   1.00
O739   O     0.50000   0.16667   0.75000   0.00000  Uiso   1.00
O740   O     0.49027   0.12393   0.66625   0.00000  Uiso   1.00
O741   O     0.46020   0.20646   0.83749   0.00000  Uiso   1.00
O742   O     0.54421   0.17493   0.65877   0.00000  Uiso   1.00
O743   O     0.50532   0.16135   0.83749   0.00000  Uiso   1.00
O744   O     0.34534   0.23866   0.70301   0.00000  Uiso   1.00
O745   O     0.40109   0.20103   0.69298   0.00000  Uiso   1.00
O746   O     0.45587   0.11037   0.88880   0.00000  Uiso   1.00
O747   O     0.43702   0.10972   0.95511   0.00000  Uiso   1.00
O748   O     0.51182   0.08101   0.77821   0.00000  Uiso   1.00
O749   O     0.47914   0.26136   0.76767   0.00000  Uiso   1.00
O750   O     0.40785   0.13251   0.73607   0.00000  Uiso   1.00
O751   O     0.60119   0.19179   0.71806   0.00000  Uiso   1.00
O752   O     0.40323   0.18960   0.77820   0.00000  Uiso   1.00
O753   O     0.58773   0.15277   0.76768   0.00000  Uiso   1.00
O754   O     0.47133   0.06903   0.73607   0.00000  Uiso   1.00
O755   O     0.53771   0.25527   0.71806   0.00000  Uiso   1.00
Zn756  Zn    0.52577   0.14090   0.78278   0.00000  Uiso   1.00
Zn757  Zn    0.46792   0.12378   0.72258   0.00000  Uiso   1.00
Zn758  Zn    0.54500   0.19664   0.71188   0.00000  Uiso   1.00
Zn759  Zn    0.46131   0.20535   0.78277   0.00000  Uiso   1.00
C760   C     0.71901   0.15923   0.75924   0.00000  Uiso   1.00
C761   C     0.85906   0.12885   0.96041   0.00000  Uiso   1.00
C762   C     0.87281   0.10370   0.98138   0.00000  Uiso   1.00
C763   C     0.94787   0.17438   0.74143   0.00000  Uiso   1.00
C764   C     0.87044   0.11532   0.52106   0.00000  Uiso   1.00
C765   C     0.85730   0.15466   0.53939   0.00000  Uiso   1.00
C766   C     0.88066   0.08768   0.54272   0.00000  Uiso   1.00
C767   C     0.87644   0.09787   0.58282   0.00000  Uiso   1.00
C768   C     0.85421   0.16459   0.57992   0.00000  Uiso   1.00
C769   C     0.99431   0.17927   0.73811   0.00000  Uiso   1.00
C770   C     0.67421   0.15716   0.76048   0.00000  Uiso   1.00
C771   C     0.80776   0.24391   0.91087   0.00000  Uiso   1.00
C772   C     0.84832   0.32239   0.73771   0.00000  Uiso   1.00
C773   C     0.81839   0.01194   0.76144   0.00000  Uiso   1.00
C774   C     0.82225   0.05613   0.75904   0.00000  Uiso   1.00
C775   C     0.84369   0.27771   0.74121   0.00000  Uiso   1.00
C776   C     0.85479   0.14524   0.64392   0.00000  Uiso   1.00
C777   C     0.81208   0.18768   0.85613   0.00000  Uiso   1.00
C778   C     0.80857   0.20129   0.89799   0.00000  Uiso   1.00
C779   C     0.86320   0.13623   0.60135   0.00000  Uiso   1.00
C780   C     0.81208   0.25945   0.94808   0.00000  Uiso   1.00
C781   C     0.69147   0.20836   0.71059   0.00000  Uiso   1.00
C782   C     0.81128   0.17360   0.92394   0.00000  Uiso   1.00
C783   C     0.79038   0.12930   0.92074   0.00000  Uiso   1.00
C784   C     0.82499   0.19061   0.95803   0.00000  Uiso   1.00
C785   C     0.82185   0.23349   0.97168   0.00000  Uiso   1.00
C786   C     0.84228   0.16643   0.97855   0.00000  Uiso   1.00
C787   C     0.84586   0.18162   0.51699   0.00000  Uiso   1.00
C788   C     0.83912   0.22345   0.53119   0.00000  Uiso   1.00
C789   C     0.82885   0.24975   0.50839   0.00000  Uiso   1.00
H790   H     0.89074   0.05766   0.52886   0.00000  Uiso   1.00
H791   H     0.86243   0.11879   0.92950   0.00000  Uiso   1.00
H792   H     0.82613   0.29897   0.55203   0.00000  Uiso   1.00
H793   H     0.85238   0.31071   0.50615   0.00000  Uiso   1.00
H794   H     0.75148   0.22301   0.67505   0.00000  Uiso   1.00
H795   H     0.91287   0.00254   0.71485   0.00000  Uiso   1.00
H796   H     0.88432   0.32638   0.68121   0.00000  Uiso   1.00
H797   H     0.75708   0.07998   0.94950   0.00000  Uiso   1.00
H798   H     0.98501   0.13549   0.77951   0.00000  Uiso   1.00
H799   H     0.79040   0.33150   0.78294   0.00000  Uiso   1.00
H800   H     0.84208   0.19277   0.59629   0.00000  Uiso   1.00
H801   H     0.88303   0.07567   0.59954   0.00000  Uiso   1.00
H802   H     0.88436   0.07449   0.96669   0.00000  Uiso   1.00
H803   H     0.81007   0.29240   0.95725   0.00000  Uiso   1.00
H804   H     0.80447   0.26550   0.89180   0.00000  Uiso   1.00
H805   H     0.84450   0.23735   0.55894   0.00000  Uiso   1.00
N806   N     0.82519   0.29304   0.52265   0.00000  Uiso   1.00
N807   N     0.88467   0.00805   0.70912   0.00000  Uiso   1.00
O808   O     0.83333   0.16667   0.75000   0.00000  Uiso   1.00
O809   O     0.82360   0.12393   0.66625   0.00000  Uiso   1.00
O810   O     0.79354   0.20646   0.83749   0.00000  Uiso   1.00
O811   O     0.87755   0.17493   0.65877   0.00000  Uiso   1.00
O812   O     0.83865   0.16135   0.83749   0.00000  Uiso   1.00
O813   O     0.67868   0.23866   0.70301   0.00000  Uiso   1.00
O814   O     0.73442   0.20103   0.69298   0.00000  Uiso   1.00
O815   O     0.78920   0.11037   0.88880   0.00000  Uiso   1.00
O816   O     0.77035   0.10972   0.95511   0.00000  Uiso   1.00
O817   O     0.84515   0.08101   0.77821   0.00000  Uiso   1.00
O818   O     0.81247   0.26136   0.76767   0.00000  Uiso   1.00
O819   O     0.74119   0.13251   0.73607   0.00000  Uiso   1.00
O820   O     0.93452   0.19179   0.71806   0.00000  Uiso   1.00
O821   O     0.73656   0.18960   0.77820   0.00000  Uiso   1.00
O822   O     0.92106   0.15277   0.76768   0.00000  Uiso   1.00
O823   O     0.80467   0.06903   0.73607   0.00000  Uiso   1.00
O824   O     0.87104   0.25527   0.71806   0.00000  Uiso   1.00
Zn825  Zn    0.85910   0.14090   0.78278   0.00000  Uiso   1.00
Zn826  Zn    0.80125   0.12378   0.72258   0.00000  Uiso   1.00
Zn827  Zn    0.87833   0.19664   0.71188   0.00000  Uiso   1.00
Zn828  Zn    0.79465   0.20535   0.78277   0.00000  Uiso   1.00
C829   C     0.05235   0.49256   0.75924   0.00000  Uiso   1.00
C830   C     0.19240   0.46218   0.96041   0.00000  Uiso   1.00
C831   C     0.20614   0.43703   0.98138   0.00000  Uiso   1.00
C832   C     0.28120   0.50771   0.74143   0.00000  Uiso   1.00
C833   C     0.20378   0.44865   0.52106   0.00000  Uiso   1.00
C834   C     0.19064   0.48799   0.53939   0.00000  Uiso   1.00
C835   C     0.21399   0.42101   0.54272   0.00000  Uiso   1.00
C836   C     0.20978   0.43120   0.58282   0.00000  Uiso   1.00
C837   C     0.18755   0.49792   0.57992   0.00000  Uiso   1.00
C838   C     0.32765   0.51261   0.73811   0.00000  Uiso   1.00
C839   C     0.00755   0.49050   0.76048   0.00000  Uiso   1.00
C840   C     0.14110   0.57724   0.91087   0.00000  Uiso   1.00
C841   C     0.18166   0.65572   0.73771   0.00000  Uiso   1.00
C842   C     0.15173   0.34527   0.76144   0.00000  Uiso   1.00
C843   C     0.15558   0.38946   0.75904   0.00000  Uiso   1.00
C844   C     0.17702   0.61105   0.74121   0.00000  Uiso   1.00
C845   C     0.18813   0.47858   0.64392   0.00000  Uiso   1.00
C846   C     0.14541   0.52101   0.85613   0.00000  Uiso   1.00
C847   C     0.14190   0.53462   0.89799   0.00000  Uiso   1.00
C848   C     0.19653   0.46956   0.60135   0.00000  Uiso   1.00
C849   C     0.14541   0.59278   0.94808   0.00000  Uiso   1.00
C850   C     0.02480   0.54169   0.71059   0.00000  Uiso   1.00
C851   C     0.14462   0.50694   0.92394   0.00000  Uiso   1.00
C852   C     0.12371   0.46263   0.92074   0.00000  Uiso   1.00
C853   C     0.15833   0.52394   0.95803   0.00000  Uiso   1.00
C854   C     0.15518   0.56682   0.97168   0.00000  Uiso   1.00
C855   C     0.17561   0.49976   0.97855   0.00000  Uiso   1.00
C856   C     0.17919   0.51496   0.51699   0.00000  Uiso   1.00
C857   C     0.17245   0.55678   0.53119   0.00000  Uiso   1.00
C858   C     0.16218   0.58308   0.50839   0.00000  Uiso   1.00
H859   H     0.22407   0.39100   0.52886   0.00000  Uiso   1.00
H860   H     0.19576   0.45212   0.92950   0.00000  Uiso   1.00
H861   H     0.15946   0.63231   0.55203   0.00000  Uiso   1.00
H862   H     0.18572   0.64404   0.50615   0.00000  Uiso   1.00
H863   H     0.08482   0.55634   0.67505   0.00000  Uiso   1.00
H864   H     0.24621   0.33587   0.71485   0.00000  Uiso   1.00
H865   H     0.21766   0.65971   0.68121   0.00000  Uiso   1.00
H866   H     0.09042   0.41331   0.94950   0.00000  Uiso   1.00
H867   H     0.31835   0.46883   0.77951   0.00000  Uiso   1.00
H868   H     0.12373   0.66483   0.78294   0.00000  Uiso   1.00
H869   H     0.17542   0.52610   0.59629   0.00000  Uiso   1.00
H870   H     0.21636   0.40900   0.59954   0.00000  Uiso   1.00
H871   H     0.21769   0.40782   0.96669   0.00000  Uiso   1.00
H872   H     0.14340   0.62573   0.95725   0.00000  Uiso   1.00
H873   H     0.13781   0.59883   0.89180   0.00000  Uiso   1.00
H874   H     0.17783   0.57068   0.55894   0.00000  Uiso   1.00
N875   N     0.15852   0.62638   0.52265   0.00000  Uiso   1.00
N876   N     0.21800   0.34139   0.70912   0.00000  Uiso   1.00
O877   O     0.16667   0.50000   0.75000   0.00000  Uiso   1.00
O878   O     0.15693   0.45726   0.66625   0.00000  Uiso   1.00
O879   O     0.12687   0.53979   0.83749   0.00000  Uiso   1.00
O880   O     0.21088   0.50826   0.65877   0.00000  Uiso   1.00
O881   O     0.17198   0.49468   0.83749   0.00000  Uiso   1.00
O882   O     0.01201   0.57199   0.70301   0.00000  Uiso   1.00
O883   O     0.06776   0.53437   0.69298   0.00000  Uiso   1.00
O884   O     0.12254   0.44370   0.88880   0.00000  Uiso   1.00
O885   O     0.10368   0.44305   0.95511   0.00000  Uiso   1.00
O886   O     0.17849   0.41434   0.77821   0.00000  Uiso   1.00
O887   O     0.14581   0.59469   0.76767   0.00000  Uiso   1.00
O888   O     0.07452   0.46584   0.73607   0.00000  Uiso   1.00
O889   O     0.26785   0.52512   0.71806   0.00000  Uiso   1.00
O890   O     0.06990   0.52293   0.77820   0.00000  Uiso   1.00
O891   O     0.25440   0.48610   0.76768   0.00000  Uiso   1.00
O892   O     0.13800   0.40236   0.73607   0.00000  Uiso   1.00
O893   O     0.20437   0.58860   0.71806   0.00000  Uiso   1.00
Zn894  Zn    0.19244   0.47423   0.78278   0.00000  Uiso   1.00
Zn895  Zn    0.13459   0.45711   0.72258   0.00000  Uiso   1.00
Zn896  Zn    0.21166   0.52997   0.71188   0.00000  Uiso   1.00
Zn897  Zn    0.12798   0.53868   0.78277   0.00000  Uiso   1.00
C898   C     0.38568   0.49256   0.75924   0.00000  Uiso   1.00
C899   C     0.52573   0.46218   0.96041   0.00000  Uiso   1.00
C900   C     0.53947   0.43703   0.98138   0.00000  Uiso   1.00
C901   C     0.61454   0.50771   0.74143   0.00000  Uiso   1.00
C902   C     0.53711   0.44865   0.52106   0.00000  Uiso   1.00
C903   C     0.52397   0.48799   0.53939   0.00000  Uiso   1.00
C904   C     0.54732   0.42101   0.54272   0.00000  Uiso   1.00
C905   C     0.54311   0.43120   0.58282   0.00000  Uiso   1.00
C906   C     0.52088   0.49792   0.57992   0.00000  Uiso   1.00
C907   C     0.66098   0.51261   0.73811   0.00000  Uiso   1.00
C908   C     0.34088   0.49050   0.76048   0.00000  Uiso   1.00
C909   C     0.47443   0.57724   0.91087   0.00000  Uiso   1.00
C910   C     0.51499   0.65572   0.73771   0.00000  Uiso   1.00
C911   C     0.48506   0.34527   0.76144   0.00000  Uiso   1.00
C912   C     0.48891   0.38946   0.75904   0.00000  Uiso   1.00
C913   C     0.51036   0.61105   0.74121   0.00000  Uiso   1.00
C914   C     0.52146   0.47858   0.64392   0.00000  Uiso   1.00
C915   C     0.47874   0.52101   0.85613   0.00000  Uiso   1.00
C916   C     0.47523   0.53462   0.89799   0.00000  Uiso   1.00
C917   C     0.52986   0.46956   0.60135   0.00000  Uiso   1.00
C918   C     0.47874   0.59278   0.94808   0.00000  Uiso   1.00
C919   C     0.35814   0.54169   0.71059   0.00000  Uiso   1.00
C920   C     0.47795   0.50694   0.92394   0.00000  Uiso   1.00
C921   C     0.45705   0.46263   0.92074   0.00000  Uiso   1.00
C922   C     0.49166   0.52394   0.95803   0.00000  Uiso   1.00
C923   C     0.48851   0.56682   0.97168   0.00000  Uiso   1.00
C924   C     0.50895   0.49976   0.97855   0.00000  Uiso   1.00
C925   C     0.51252   0.51496   0.51699   0.00000  Uiso   1.00
C926   C     0.50579   0.55678   0.53119   0.00000  Uiso   1.00
C927   C     0.49552   0.58308   0.50839   0.00000  Uiso   1.00
H928   H     0.55740   0.39100   0.52886   0.00000  Uiso   1.00
H929   H     0.52910   0.45212   0.92950   0.00000  Uiso   1.00
H930   H     0.49279   0.63231   0.55203   0.00000  Uiso   1.00
H931   H     0.51905   0.64404   0.50615   0.00000  Uiso   1.00
H932   H     0.41815   0.55634   0.67505   0.00000  Uiso   1.00
H933   H     0.57954   0.33587   0.71485   0.00000  Uiso   1.00
H934   H     0.55099   0.65971   0.68121   0.00000  Uiso   1.00
H935   H     0.42375   0.41331   0.94950   0.00000  Uiso   1.00
H936   H     0.65168   0.46883   0.77951   0.00000  Uiso   1.00
H937   H     0.45707   0.66483   0.78294   0.00000  Uiso   1.00
H938   H     0.50875   0.52610   0.59629   0.00000  Uiso   1.00
H939   H     0.54969   0.40900   0.59954   0.00000  Uiso   1.00
H940   H     0.55103   0.40782   0.96669   0.00000  Uiso   1.00
H941   H     0.47674   0.62573   0.95725   0.00000  Uiso   1.00
H942   H     0.47114   0.59883   0.89180   0.00000  Uiso   1.00
H943   H     0.51117   0.57068   0.55894   0.00000  Uiso   1.00
N944   N     0.49185   0.62638   0.52265   0.00000  Uiso   1.00
N945   N     0.55133   0.34139   0.70912   0.00000  Uiso   1.00
O946   O     0.50000   0.50000   0.75000   0.00000  Uiso   1.00
O947   O     0.49027   0.45726   0.66625   0.00000  Uiso   1.00
O948   O     0.46020   0.53979   0.83749   0.00000  Uiso   1.00
O949   O     0.54421   0.50826   0.65877   0.00000  Uiso   1.00
O950   O     0.50532   0.49468   0.83749   0.00000  Uiso   1.00
O951   O     0.34534   0.57199   0.70301   0.00000  Uiso   1.00
O952   O     0.40109   0.53437   0.69298   0.00000  Uiso   1.00
O953   O     0.45587   0.44370   0.88880   0.00000  Uiso   1.00
O954   O     0.43702   0.44305   0.95511   0.00000  Uiso   1.00
O955   O     0.51182   0.41434   0.77821   0.00000  Uiso   1.00
O956   O     0.47914   0.59469   0.76767   0.00000  Uiso   1.00
O957   O     0.40785   0.46584   0.73607   0.00000  Uiso   1.00
O958   O     0.60119   0.52512   0.71806   0.00000  Uiso   1.00
O959   O     0.40323   0.52293   0.77820   0.00000  Uiso   1.00
O960   O     0.58773   0.48610   0.76768   0.00000  Uiso   1.00
O961   O     0.47133   0.40236   0.73607   0.00000  Uiso   1.00
O962   O     0.53771   0.58860   0.71806   0.00000  Uiso   1.00
Zn963  Zn    0.52577   0.47423   0.78278   0.00000  Uiso   1.00
Zn964  Zn    0.46792   0.45711   0.72258   0.00000  Uiso   1.00
Zn965  Zn    0.54500   0.52997   0.71188   0.00000  Uiso   1.00
Zn966  Zn    0.46131   0.53868   0.78277   0.00000  Uiso   1.00
C967   C     0.71901   0.49256   0.75924   0.00000  Uiso   1.00
C968   C     0.85906   0.46218   0.96041   0.00000  Uiso   1.00
C969   C     0.87281   0.43703   0.98138   0.00000  Uiso   1.00
C970   C     0.94787   0.50771   0.74143   0.00000  Uiso   1.00
C971   C     0.87044   0.44865   0.52106   0.00000  Uiso   1.00
C972   C     0.85730   0.48799   0.53939   0.00000  Uiso   1.00
C973   C     0.88066   0.42101   0.54272   0.00000  Uiso   1.00
C974   C     0.87644   0.43120   0.58282   0.00000  Uiso   1.00
C975   C     0.85421   0.49792   0.57992   0.00000  Uiso   1.00
C976   C     0.99431   0.51261   0.73811   0.00000  Uiso   1.00
C977   C     0.67421   0.49050   0.76048   0.00000  Uiso   1.00
C978   C     0.80776   0.57724   0.91087   0.00000  Uiso   1.00
C979   C     0.84832   0.65572   0.73771   0.00000  Uiso   1.00
C980   C     0.81839   0.34527   0.76144   0.00000  Uiso   1.00
C981   C     0.82225   0.38946   0.75904   0.00000  Uiso   1.00
C982   C     0.84369   0.61105   0.74121   0.00000  Uiso   1.00
C983   C     0.85479   0.47858   0.64392   0.00000  Uiso   1.00
C984   C     0.81208   0.52101   0.85613   0.00000  Uiso   1.00
C985   C     0.80857   0.53462   0.89799   0.00000  Uiso   1.00
C986   C     0.86320   0.46956   0.60135   0.00000  Uiso   1.00
C987   C     0.81208   0.59278   0.94808   0.00000  Uiso   1.00
C988   C     0.69147   0.54169   0.71059   0.00000  Uiso   1.00
C989   C     0.81128   0.50694   0.92394   0.00000  Uiso   1.00
C990   C     0.79038   0.46263   0.92074   0.00000  Uiso   1.00
C991   C     0.82499   0.52394   0.95803   0.00000  Uiso   1.00
C992   C     0.82185   0.56682   0.97168   0.00000  Uiso   1.00
C993   C     0.84228   0.49976   0.97855   0.00000  Uiso   1.00
C994   C     0.84586   0.51496   0.51699   0.00000  Uiso   1.00
C995   C     0.83912   0.55678   0.53119   0.00000  Uiso   1.00
C996   C     0.82885   0.58308   0.50839   0.00000  Uiso   1.00
H997   H     0.89074   0.39100   0.52886   0.00000  Uiso   1.00
H998   H     0.86243   0.45212   0.92950   0.00000  Uiso   1.00
H999   H     0.82613   0.63231   0.55203   0.00000  Uiso   1.00
H1000  H     0.85238   0.64404   0.50615   0.00000  Uiso   1.00
H1001  H     0.75148   0.55634   0.67505   0.00000  Uiso   1.00
H1002  H     0.91287   0.33587   0.71485   0.00000  Uiso   1.00
H1003  H     0.88432   0.65971   0.68121   0.00000  Uiso   1.00
H1004  H     0.75708   0.41331   0.94950   0.00000  Uiso   1.00
H1005  H     0.98501   0.46883   0.77951   0.00000  Uiso   1.00
H1006  H     0.79040   0.66483   0.78294   0.00000  Uiso   1.00
H1007  H     0.84208   0.52610   0.59629   0.00000  Uiso   1.00
H1008  H     0.88303   0.40900   0.59954   0.00000  Uiso   1.00
H1009  H     0.88436   0.40782   0.96669   0.00000  Uiso   1.00
H1010  H     0.81007   0.62573   0.95725   0.00000  Uiso   1.00
H1011  H     0.80447   0.59883   0.89180   0.00000  Uiso   1.00
H1012  H     0.84450   0.57068   0.55894   0.00000  Uiso   1.00
N1013  N     0.82519   0.62638   0.52265   0.00000  Uiso   1.00
N1014  N     0.88467   0.34139   0.70912   0.00000  Uiso   1.00
O1015  O     0.83333   0.50000   0.75000   0.00000  Uiso   1.00
O1016  O     0.82360   0.45726   0.66625   0.00000  Uiso   1.00
O1017  O     0.79354   0.53979   0.83749   0.00000  Uiso   1.00
O1018  O     0.87755   0.50826   0.65877   0.00000  Uiso   1.00
O1019  O     0.83865   0.49468   0.83749   0.00000  Uiso   1.00
O1020  O     0.67868   0.57199   0.70301   0.00000  Uiso   1.00
O1021  O     0.73442   0.53437   0.69298   0.00000  Uiso   1.00
O1022  O     0.78920   0.44370   0.88880   0.00000  Uiso   1.00
O1023  O     0.77035   0.44305   0.95511   0.00000  Uiso   1.00
O1024  O     0.84515   0.41434   0.77821   0.00000  Uiso   1.00
O1025  O     0.81247   0.59469   0.76767   0.00000  Uiso   1.00
O1026  O     0.74119   0.46584   0.73607   0.00000  Uiso   1.00
O1027  O     0.93452   0.52512   0.71806   0.00000  Uiso   1.00
O1028  O     0.73656   0.52293   0.77820   0.00000  Uiso   1.00
O1029  O     0.92106   0.48610   0.76768   0.00000  Uiso   1.00
O1030  O     0.80467   0.40236   0.73607   0.00000  Uiso   1.00
O1031  O     0.87104   0.58860   0.71806   0.00000  Uiso   1.00
Zn1032 Zn    0.85910   0.47423   0.78278   0.00000  Uiso   1.00
Zn1033 Zn    0.80125   0.45711   0.72258   0.00000  Uiso   1.00
Zn1034 Zn    0.87833   0.52997   0.71188   0.00000  Uiso   1.00
Zn1035 Zn    0.79465   0.53868   0.78277   0.00000  Uiso   1.00
C1036  C     0.05235   0.82589   0.75924   0.00000  Uiso   1.00
C1037  C     0.19240   0.79552   0.96041   0.00000  Uiso   1.00
C1038  C     0.20614   0.77036   0.98138   0.00000  Uiso   1.00
C1039  C     0.28120   0.84104   0.74143   0.00000  Uiso   1.00
C1040  C     0.20378   0.78199   0.52106   0.00000  Uiso   1.00
C1041  C     0.19064   0.82133   0.53939   0.00000  Uiso   1.00
C1042  C     0.21399   0.75434   0.54272   0.00000  Uiso   1.00
C1043  C     0.20978   0.76454   0.58282   0.00000  Uiso   1.00
C1044  C     0.18755   0.83126   0.57992   0.00000  Uiso   1.00
C1045  C     0.32765   0.84594   0.73811   0.00000  Uiso   1.00
C1046  C     0.00755   0.82383   0.76048   0.00000  Uiso   1.00
C1047  C     0.14110   0.91057   0.91087   0.00000  Uiso   1.00
C1048  C     0.18166   0.98905   0.73771   0.00000  Uiso   1.00
C1049  C     0.15173   0.67860   0.76144   0.00000  Uiso   1.00
C1050  C     0.15558   0.72279   0.75904   0.00000  Uiso   1.00
C1051  C     0.17702   0.94438   0.74121   0.00000  Uiso   1.00
C1052  C     0.18813   0.81191   0.64392   0.00000  Uiso   1.00
C1053  C     0.14541   0.85434   0.85613   0.00000  Uiso   1.00
C1054  C     0.14190   0.86796   0.89799   0.00000  Uiso   1.00
C1055  C     0.19653   0.80289   0.60135   0.00000  Uiso   1.00
C1056  C     0.14541   0.92611   0.94808   0.00000  Uiso   1.00
C1057  C     0.02480   0.87503   0.71059   0.00000  Uiso   1.00
C1058  C     0.14462   0.84027   0.92394   0.00000  Uiso   1.00
C1059  C     0.12371   0.79597   0.92074   0.00000  Uiso   1.00
C1060  C     0.15833   0.85727   0.95803   0.00000  Uiso   1.00
C1061  C     0.15518   0.90016   0.97168   0.00000  Uiso   1.00
C1062  C     0.17561   0.83309   0.97855   0.00000  Uiso   1.00
C1063  C     0.17919   0.84829   0.51699   0.00000  Uiso   1.00
C1064  C     0.17245   0.89012   0.53119   0.00000  Uiso   1.00
C1065  C     0.16218   0.91642   0.50839   0.00000  Uiso   1.00
H1066  H     0.22407   0.72433   0.52886   0.00000  Uiso   1.00
H1067  H     0.19576   0.78545   0.92950   0.00000  Uiso   1.00
H1068  H     0.15946   0.96564   0.55203   0.00000  Uiso   1.00
H1069  H     0.18572   0.97738   0.50615   0.00000  Uiso   1.00
H1070  H     0.08482   0.88968   0.67505   0.00000  Uiso   1.00
H1071  H     0.24621   0.66920   0.71485   0.00000  Uiso   1.00
H1072  H     0.21766   0.99304   0.68121   0.00000  Uiso   1.00
H1073  H     0.09042   0.74665   0.94950   0.00000  Uiso   1.00
H1074  H     0.31835   0.80216   0.77951   0.00000  Uiso   1.00
H1075  H     0.12373   0.99817   0.78294   0.00000  Uiso   1.00
H1076  H     0.17542   0.85943   0.59629   0.00000  Uiso   1.00
H1077  H     0.21636   0.74234   0.59954   0.00000  Uiso   1.00
H1078  H     0.21769   0.74116   0.96669   0.00000  Uiso   1.00
H1079  H     0.14340   0.95907   0.95725   0.00000  Uiso   1.00
H1080  H     0.13781   0.93217   0.89180   0.00000  Uiso   1.00
H1081  H     0.17783   0.90402   0.55894   0.00000  Uiso   1.00
N1082  N     0.15852   0.95971   0.52265   0.00000  Uiso   1.00
N1083  N     0.21800   0.67472   0.70912   0.00000  Uiso   1.00
O1084  O     0.16667   0.83333   0.75000   0.00000  Uiso   1.00
O1085  O     0.15693   0.79060   0.66625   0.00000  Uiso   1.00
O1086  O     0.12687   0.87313   0.83749   0.00000  Uiso   1.00
O1087  O     0.21088   0.84159   0.65877   0.00000  Uiso   1.00
O1088  O     0.17198   0.82802   0.83749   0.00000  Uiso   1.00
O1089  O     0.01201   0.90533   0.70301   0.00000  Uiso   1.00
O1090  O     0.06776   0.86770   0.69298   0.00000  Uiso   1.00
O1091  O     0.12254   0.77703   0.88880   0.00000  Uiso   1.00
O1092  O     0.10368   0.77639   0.95511   0.00000  Uiso   1.00
O1093  O     0.17849   0.74768   0.77821   0.00000  Uiso   1.00
O1094  O     0.14581   0.92803   0.76767   0.00000  Uiso   1.00
O1095  O     0.07452   0.79917   0.73607   0.00000  Uiso   1.00
O1096  O     0.26785   0.85845   0.71806   0.00000  Uiso   1.00
O1097  O     0.06990   0.85627   0.77820   0.00000  Uiso   1.00
O1098  O     0.25440   0.81944   0.76768   0.00000  Uiso   1.00
O1099  O     0.13800   0.73570   0.73607   0.00000  Uiso   1.00
O1100  O     0.20437   0.92193   0.71806   0.00000  Uiso   1.00
Zn1101 Zn    0.19244   0.80756   0.78278   0.00000  Uiso   1.00
Zn1102 Zn    0.13459   0.79044   0.72258   0.00000  Uiso   1.00
Zn1103 Zn    0.21166   0.86331   0.71188   0.00000  Uiso   1.00
Zn1104 Zn    0.12798   0.87202   0.78277   0.00000  Uiso   1.00
C1105  C     0.38568   0.82589   0.75924   0.00000  Uiso   1.00
C1106  C     0.52573   0.79552   0.96041   0.00000  Uiso   1.00
C1107  C     0.53947   0.77036   0.98138   0.00000  Uiso   1.00
C1108  C     0.61454   0.84104   0.74143   0.00000  Uiso   1.00
C1109  C     0.53711   0.78199   0.52106   0.00000  Uiso   1.00
C1110  C     0.52397   0.82133   0.53939   0.00000  Uiso   1.00
C1111  C     0.54732   0.75434   0.54272   0.00000  Uiso   1.00
C1112  C     0.54311   0.76454   0.58282   0.00000  Uiso   1.00
C1113  C     0.52088   0.83126   0.57992   0.00000  Uiso   1.00
C1114  C     0.66098   0.84594   0.73811   0.00000  Uiso   1.00
C1115  C     0.34088   0.82383   0.76048   0.00000  Uiso   1.00
C1116  C     0.47443   0.91057   0.91087   0.00000  Uiso   1.00
C1117  C     0.51499   0.98905   0.73771   0.00000  Uiso   1.00
C1118  C     0.48506   0.67860   0.76144   0.00000  Uiso   1.00
C1119  C     0.48891   0.72279   0.75904   0.00000  Uiso   1.00
C1120  C     0.51036   0.94438   0.74121   0.00000  Uiso   1.00
C1121  C     0.52146   0.81191   0.64392   0.00000  Uiso   1.00
C1122  C     0.47874   0.85434   0.85613   0.00000  Uiso   1.00
C1123  C     0.47523   0.86796   0.89799   0.00000  Uiso   1.00
C1124  C     0.52986   0.80289   0.60135   0.00000  Uiso   1.00
C1125  C     0.47874   0.92611   0.94808   0.00000  Uiso   1.00
C1126  C     0.35814   0.87503   0.71059   0.00000  Uiso   1.00
C1127  C     0.47795   0.84027   0.92394   0.00000  Uiso   1.00
C1128  C     0.45705   0.79597   0.92074   0.00000  Uiso   1.00
C1129  C     0.49166   0.85727   0.95803   0.00000  Uiso   1.00
C1130  C     0.48851   0.90016   0.97168   0.00000  Uiso   1.00
C1131  C     0.50895   0.83309   0.97855   0.00000  Uiso   1.00
C1132  C     0.51252   0.84829   0.51699   0.00000  Uiso   1.00
C1133  C     0.50579   0.89012   0.53119   0.00000  Uiso   1.00
C1134  C     0.49552   0.91642   0.50839   0.00000  Uiso   1.00
H1135  H     0.55740   0.72433   0.52886   0.00000  Uiso   1.00
H1136  H     0.52910   0.78545   0.92950   0.00000  Uiso   1.00
H1137  H     0.49279   0.96564   0.55203   0.00000  Uiso   1.00
H1138  H     0.51905   0.97738   0.50615   0.00000  Uiso   1.00
H1139  H     0.41815   0.88968   0.67505   0.00000  Uiso   1.00
H1140  H     0.57954   0.66920   0.71485   0.00000  Uiso   1.00
H1141  H     0.55099   0.99304   0.68121   0.00000  Uiso   1.00
H1142  H     0.42375   0.74665   0.94950   0.00000  Uiso   1.00
H1143  H     0.65168   0.80216   0.77951   0.00000  Uiso   1.00
H1144  H     0.45707   0.99817   0.78294   0.00000  Uiso   1.00
H1145  H     0.50875   0.85943   0.59629   0.00000  Uiso   1.00
H1146  H     0.54969   0.74234   0.59954   0.00000  Uiso   1.00
H1147  H     0.55103   0.74116   0.96669   0.00000  Uiso   1.00
H1148  H     0.47674   0.95907   0.95725   0.00000  Uiso   1.00
H1149  H     0.47114   0.93217   0.89180   0.00000  Uiso   1.00
H1150  H     0.51117   0.90402   0.55894   0.00000  Uiso   1.00
N1151  N     0.49185   0.95971   0.52265   0.00000  Uiso   1.00
N1152  N     0.55133   0.67472   0.70912   0.00000  Uiso   1.00
O1153  O     0.50000   0.83333   0.75000   0.00000  Uiso   1.00
O1154  O     0.49027   0.79060   0.66625   0.00000  Uiso   1.00
O1155  O     0.46020   0.87313   0.83749   0.00000  Uiso   1.00
O1156  O     0.54421   0.84159   0.65877   0.00000  Uiso   1.00
O1157  O     0.50532   0.82802   0.83749   0.00000  Uiso   1.00
O1158  O     0.34534   0.90533   0.70301   0.00000  Uiso   1.00
O1159  O     0.40109   0.86770   0.69298   0.00000  Uiso   1.00
O1160  O     0.45587   0.77703   0.88880   0.00000  Uiso   1.00
O1161  O     0.43702   0.77639   0.95511   0.00000  Uiso   1.00
O1162  O     0.51182   0.74768   0.77821   0.00000  Uiso   1.00
O1163  O     0.47914   0.92803   0.76767   0.00000  Uiso   1.00
O1164  O     0.40785   0.79917   0.73607   0.00000  Uiso   1.00
O1165  O     0.60119   0.85845   0.71806   0.00000  Uiso   1.00
O1166  O     0.40323   0.85627   0.77820   0.00000  Uiso   1.00
O1167  O     0.58773   0.81944   0.76768   0.00000  Uiso   1.00
O1168  O     0.47133   0.73570   0.73607   0.00000  Uiso   1.00
O1169  O     0.53771   0.92193   0.71806   0.00000  Uiso   1.00
Zn1170 Zn    0.52577   0.80756   0.78278   0.00000  Uiso   1.00
Zn1171 Zn    0.46792   0.79044   0.72258   0.00000  Uiso   1.00
Zn1172 Zn    0.54500   0.86331   0.71188   0.00000  Uiso   1.00
Zn1173 Zn    0.46131   0.87202   0.78277   0.00000  Uiso   1.00
C1174  C     0.71901   0.82589   0.75924   0.00000  Uiso   1.00
C1175  C     0.85906   0.79552   0.96041   0.00000  Uiso   1.00
C1176  C     0.87281   0.77036   0.98138   0.00000  Uiso   1.00
C1177  C     0.94787   0.84104   0.74143   0.00000  Uiso   1.00
C1178  C     0.87044   0.78199   0.52106   0.00000  Uiso   1.00
C1179  C     0.85730   0.82133   0.53939   0.00000  Uiso   1.00
C1180  C     0.88066   0.75434   0.54272   0.00000  Uiso   1.00
C1181  C     0.87644   0.76454   0.58282   0.00000  Uiso   1.00
C1182  C     0.85421   0.83126   0.57992   0.00000  Uiso   1.00
C1183  C     0.99431   0.84594   0.73811   0.00000  Uiso   1.00
C1184  C     0.67421   0.82383   0.76048   0.00000  Uiso   1.00
C1185  C     0.80776   0.91057   0.91087   0.00000  Uiso   1.00
C1186  C     0.84832   0.98905   0.73771   0.00000  Uiso   1.00
C1187  C     0.81839   0.67860   0.76144   0.00000  Uiso   1.00
C1188  C     0.82225   0.72279   0.75904   0.00000  Uiso   1.00
C1189  C     0.84369   0.94438   0.74121   0.00000  Uiso   1.00
C1190  C     0.85479   0.81191   0.64392   0.00000  Uiso   1.00
C1191  C     0.81208   0.85434   0.85613   0.00000  Uiso   1.00
C1192  C     0.80857   0.86796   0.89799   0.00000  Uiso   1.00
C1193  C     0.86320   0.80289   0.60135   0.00000  Uiso   1.00
C1194  C     0.81208   0.92611   0.94808   0.00000  Uiso   1.00
C1195  C     0.69147   0.87503   0.71059   0.00000  Uiso   1.00
C1196  C     0.81128   0.84027   0.92394   0.00000  Uiso   1.00
C1197  C     0.79038   0.79597   0.92074   0.00000  Uiso   1.00
C1198  C     0.82499   0.85727   0.95803   0.00000  Uiso   1.00
C1199  C     0.82185   0.90016   0.97168   0.00000  Uiso   1.00
C1200  C     0.84228   0.83309   0.97855   0.00000  Uiso   1.00
C1201  C     0.84586   0.84829   0.51699   0.00000  Uiso   1.00
C1202  C     0.83912   0.89012   0.53119   0.00000  Uiso   1.00
C1203  C     0.82885   0.91642   0.50839   0.00000  Uiso   1.00
H1204  H     0.89074   0.72433   0.52886   0.00000  Uiso   1.00
H1205  H     0.86243   0.78545   0.92950   0.00000  Uiso   1.00
H1206  H     0.82613   0.96564   0.55203   0.00000  Uiso   1.00
H1207  H     0.85238   0.97738   0.50615   0.00000  Uiso   1.00
H1208  H     0.75148   0.88968   0.67505   0.00000  Uiso   1.00
H1209  H     0.91287   0.66920   0.71485   0.00000  Uiso   1.00
H1210  H     0.88432   0.99304   0.68121   0.00000  Uiso   1.00
H1211  H     0.75708   0.74665   0.94950   0.00000  Uiso   1.00
H1212  H     0.98501   0.80216   0.77951   0.00000  Uiso   1.00
H1213  H     0.79040   0.99817   0.78294   0.00000  Uiso   1.00
H1214  H     0.84208   0.85943   0.59629   0.00000  Uiso   1.00
H1215  H     0.88303   0.74234   0.59954   0.00000  Uiso   1.00
H1216  H     0.88436   0.74116   0.96669   0.00000  Uiso   1.00
H1217  H     0.81007   0.95907   0.95725   0.00000  Uiso   1.00
H1218  H     0.80447   0.93217   0.89180   0.00000  Uiso   1.00
H1219  H     0.84450   0.90402   0.55894   0.00000  Uiso   1.00
N1220  N     0.82519   0.95971   0.52265   0.00000  Uiso   1.00
N1221  N     0.88467   0.67472   0.70912   0.00000  Uiso   1.00
O1222  O     0.83333   0.83333   0.75000   0.00000  Uiso   1.00
O1223  O     0.82360   0.79060   0.66625   0.00000  Uiso   1.00
O1224  O     0.79354   0.87313   0.83749   0.00000  Uiso   1.00
O1225  O     0.87755   0.84159   0.65877   0.00000  Uiso   1.00
O1226  O     0.83865   0.82802   0.83749   0.00000  Uiso   1.00
O1227  O     0.67868   0.90533   0.70301   0.00000  Uiso   1.00
O1228  O     0.73442   0.86770   0.69298   0.00000  Uiso   1.00
O1229  O     0.78920   0.77703   0.88880   0.00000  Uiso   1.00
O1230  O     0.77035   0.77639   0.95511   0.00000  Uiso   1.00
O1231  O     0.84515   0.74768   0.77821   0.00000  Uiso   1.00
O1232  O     0.81247   0.92803   0.76767   0.00000  Uiso   1.00
O1233  O     0.74119   0.79917   0.73607   0.00000  Uiso   1.00
O1234  O     0.93452   0.85845   0.71806   0.00000  Uiso   1.00
O1235  O     0.73656   0.85627   0.77820   0.00000  Uiso   1.00
O1236  O     0.92106   0.81944   0.76768   0.00000  Uiso   1.00
O1237  O     0.80467   0.73570   0.73607   0.00000  Uiso   1.00
O1238  O     0.87104   0.92193   0.71806   0.00000  Uiso   1.00
Zn1239 Zn    0.85910   0.80756   0.78278   0.00000  Uiso   1.00
Zn1240 Zn    0.80125   0.79044   0.72258   0.00000  Uiso   1.00
Zn1241 Zn    0.87833   0.86331   0.71188   0.00000  Uiso   1.00
Zn1242 Zn    0.79465   0.87202   0.78277   0.00000  Uiso   1.00
loop_
_geom_bond_atom_site_label_1
_geom_bond_atom_site_label_2
_geom_bond_distance
_geom_bond_site_symmetry_2
_ccdc_geom_bond_type
C1     C11     1.439   .     S
C1     O62     1.272   .     A
C1     O60     1.266   .     A
C2     C3      1.386   .     A
C2     C27     1.411   .     A
C2     H32     1.081   .     S
C3     H43     1.084   .     S
C3     C626    1.393   .     S
C4     O61     1.278   .     A
C4     O63     1.285   .     A
C4     C10     1.468   .     S
C5     C6      1.422   .     A
C5     C7      1.402   .     A
C5     C624    1.393   1_554 S
C6     C9      1.411   .     A
C6     C28     1.425   .     A
C7     C8      1.391   .     A
C7     H31     1.084   .     S
C8     C20     1.396   .     A
C8     H42     1.084   .     S
C9     C20     1.395   .     A
C9     H41     1.079   .     S
C10    C80     1.345   .     S
C10    C91     1.499   .     S
C11    C148    1.345   1_455 S
C11    H177    1.086   1_455 S
C12    C19     1.400   .     A
C12    C21     1.389   .     A
C12    H45     1.084   .     S
C13    C16     1.459   .     S
C13    C221    1.336   .     S
C13    N255    1.437   .     S
C14    C15     1.438   .     S
C14    C427    1.336   1_545 S
C14    H454    1.086   1_545 S
C15    O64     1.276   .     A
C15    O58     1.276   .     A
C16    O65     1.269   .     A
C16    O59     1.272   .     A
C17    O50     1.269   .     A
C17    O52     1.273   .     A
C17    C20     1.455   .     S
C18    O51     1.286   .     A
C18    C19     1.470   .     S
C18    O53     1.288   .     A
C19    C23     1.412   .     A
C21    C26     1.405   .     A
C21    H44     1.083   .     S
C22    O55     1.399   .     S
C22    O54     1.223   .     D
C22    C148    1.499   1_455 S
C23    C25     1.424   .     A
C23    C24     1.499   .     S
C24    O56     1.222   .     D
C24    O57     1.400   .     S
C25    C27     1.423   .     A
C25    C26     1.421   .     A
C26    C651    1.408   .     S
C27    C649    1.419   .     S
C28    C29     1.411   .     A
C28    C648    1.419   1_554 S
C29    H46     1.077   .     S
C29    C30     1.400   .     A
C30    N47     1.440   .     S
C30    C647    1.408   1_554 S
H33    N47     1.046   .     S
H34    N47     1.046   .     S
H35    O55     1.014   .     S
H36    N48     1.045   .     S
H37    N255    1.045   .     S
H38    O57     1.014   .     S
H39    C80     1.086   .     S
H40    C221    1.086   .     S
N48    C427    1.437   1_545 S
N48    H451    1.045   1_545 S
O49    Zn68    1.926   .     S
O49    Zn69    1.938   .     S
O49    Zn66    1.965   .     S
O49    Zn67    1.935   .     S
O50    Zn67    1.925   .     S
O51    Zn69    1.935   .     S
O52    Zn68    1.929   .     S
O53    Zn66    1.922   .     S
O58    Zn66    1.926   .     S
O59    Zn69    1.929   .     S
O60    Zn67    1.931   .     S
O61    Zn68    1.941   .     S
O62    Zn69    1.930   .     S
O63    Zn66    1.922   .     S
O64    Zn67    1.942   .     S
O65    Zn68    1.935   .     S
C70    C80     1.439   .     S
C70    O131    1.272   .     A
C70    O129    1.266   .     A
C71    C72     1.386   .     A
C71    C96     1.411   .     A
C71    H101    1.081   .     S
C72    H112    1.084   .     S
C72    C695    1.393   .     S
C73    O130    1.278   .     A
C73    O132    1.285   .     A
C73    C79     1.468   .     S
C74    C75     1.422   .     A
C74    C76     1.402   .     A
C74    C693    1.393   1_554 S
C75    C78     1.411   .     A
C75    C97     1.425   .     A
C76    C77     1.391   .     A
C76    H100    1.084   .     S
C77    C89     1.396   .     A
C77    H111    1.084   .     S
C78    C89     1.395   .     A
C78    H110    1.079   .     S
C79    C149    1.345   .     S
C79    C160    1.499   .     S
C81    C88     1.400   .     A
C81    C90     1.389   .     A
C81    H114    1.084   .     S
C82    C85     1.459   .     S
C82    C290    1.336   .     S
C82    N324    1.437   .     S
C83    C84     1.438   .     S
C83    C496    1.336   1_545 S
C83    H523    1.086   1_545 S
C84    O133    1.276   .     A
C84    O127    1.276   .     A
C85    O134    1.269   .     A
C85    O128    1.272   .     A
C86    O119    1.269   .     A
C86    O121    1.273   .     A
C86    C89     1.455   .     S
C87    O120    1.286   .     A
C87    C88     1.470   .     S
C87    O122    1.288   .     A
C88    C92     1.412   .     A
C90    C95     1.405   .     A
C90    H113    1.083   .     S
C91    O124    1.399   .     S
C91    O123    1.223   .     D
C92    C94     1.424   .     A
C92    C93     1.499   .     S
C93    O125    1.222   .     D
C93    O126    1.400   .     S
C94    C96     1.423   .     A
C94    C95     1.421   .     A
C95    C720    1.408   .     S
C96    C718    1.419   .     S
C97    C98     1.411   .     A
C97    C717    1.419   1_554 S
C98    H115    1.077   .     S
C98    C99     1.400   .     A
C99    N116    1.440   .     S
C99    C716    1.408   1_554 S
H102   N116    1.046   .     S
H103   N116    1.046   .     S
H104   O124    1.014   .     S
H105   N117    1.045   .     S
H106   N324    1.045   .     S
H107   O126    1.014   .     S
H108   C149    1.086   .     S
H109   C290    1.086   .     S
N117   C496    1.437   1_545 S
N117   H520    1.045   1_545 S
O118   Zn137   1.926   .     S
O118   Zn138   1.938   .     S
O118   Zn135   1.965   .     S
O118   Zn136   1.935   .     S
O119   Zn136   1.925   .     S
O120   Zn138   1.935   .     S
O121   Zn137   1.929   .     S
O122   Zn135   1.922   .     S
O127   Zn135   1.926   .     S
O128   Zn138   1.929   .     S
O129   Zn136   1.931   .     S
O130   Zn137   1.941   .     S
O131   Zn138   1.930   .     S
O132   Zn135   1.922   .     S
O133   Zn136   1.942   .     S
O134   Zn137   1.935   .     S
C139   C149    1.439   .     S
C139   O200    1.272   .     A
C139   O198    1.266   .     A
C140   C141    1.386   .     A
C140   C165    1.411   .     A
C140   H170    1.081   .     S
C141   H181    1.084   .     S
C141   C764    1.393   .     S
C142   O199    1.278   .     A
C142   O201    1.285   .     A
C142   C148    1.468   .     S
C143   C144    1.422   .     A
C143   C145    1.402   .     A
C143   C762    1.393   1_554 S
C144   C147    1.411   .     A
C144   C166    1.425   .     A
C145   C146    1.391   .     A
C145   H169    1.084   .     S
C146   C158    1.396   .     A
C146   H180    1.084   .     S
C147   C158    1.395   .     A
C147   H179    1.079   .     S
C148   C11     1.345   1_655 S
C148   C22     1.499   1_655 S
C150   C157    1.400   .     A
C150   C159    1.389   .     A
C150   H183    1.084   .     S
C151   C154    1.459   .     S
C151   C359    1.336   .     S
C151   N393    1.437   .     S
C152   C153    1.438   .     S
C152   C565    1.336   1_545 S
C152   H592    1.086   1_545 S
C153   O202    1.276   .     A
C153   O196    1.276   .     A
C154   O203    1.269   .     A
C154   O197    1.272   .     A
C155   O188    1.269   .     A
C155   O190    1.273   .     A
C155   C158    1.455   .     S
C156   O189    1.286   .     A
C156   C157    1.470   .     S
C156   O191    1.288   .     A
C157   C161    1.412   .     A
C159   C164    1.405   .     A
C159   H182    1.083   .     S
C160   O193    1.399   .     S
C160   O192    1.223   .     D
C161   C163    1.424   .     A
C161   C162    1.499   .     S
C162   O194    1.222   .     D
C162   O195    1.400   .     S
C163   C165    1.423   .     A
C163   C164    1.421   .     A
C164   C789    1.408   .     S
C165   C787    1.419   .     S
C166   C167    1.411   .     A
C166   C786    1.419   1_554 S
C167   H184    1.077   .     S
C167   C168    1.400   .     A
C168   N185    1.440   .     S
C168   C785    1.408   1_554 S
H171   N185    1.046   .     S
H172   N185    1.046   .     S
H173   O193    1.014   .     S
H174   N186    1.045   .     S
H175   N393    1.045   .     S
H176   O195    1.014   .     S
H177   C11     1.086   1_655 S
H178   C359    1.086   .     S
N186   C565    1.437   1_545 S
N186   H589    1.045   1_545 S
O187   Zn206   1.926   .     S
O187   Zn207   1.938   .     S
O187   Zn204   1.965   .     S
O187   Zn205   1.935   .     S
O188   Zn205   1.925   .     S
O189   Zn207   1.935   .     S
O190   Zn206   1.929   .     S
O191   Zn204   1.922   .     S
O196   Zn204   1.926   .     S
O197   Zn207   1.929   .     S
O198   Zn205   1.931   .     S
O199   Zn206   1.941   .     S
O200   Zn207   1.930   .     S
O201   Zn204   1.922   .     S
O202   Zn205   1.942   .     S
O203   Zn206   1.935   .     S
C208   C218    1.439   .     S
C208   O269    1.272   .     A
C208   O267    1.266   .     A
C209   C210    1.386   .     A
C209   C234    1.411   .     A
C209   H239    1.081   .     S
C210   H250    1.084   .     S
C210   C833    1.393   .     S
C211   O268    1.278   .     A
C211   O270    1.285   .     A
C211   C217    1.468   .     S
C212   C213    1.422   .     A
C212   C214    1.402   .     A
C212   C831    1.393   1_554 S
C213   C216    1.411   .     A
C213   C235    1.425   .     A
C214   C215    1.391   .     A
C214   H238    1.084   .     S
C215   C227    1.396   .     A
C215   H249    1.084   .     S
C216   C227    1.395   .     A
C216   H248    1.079   .     S
C217   C287    1.345   .     S
C217   C298    1.499   .     S
C218   C355    1.345   1_455 S
C218   H384    1.086   1_455 S
C219   C226    1.400   .     A
C219   C228    1.389   .     A
C219   H252    1.084   .     S
C220   C223    1.459   .     S
C220   C428    1.336   .     S
C220   N462    1.437   .     S
C221   C222    1.438   .     S
C222   O271    1.276   .     A
C222   O265    1.276   .     A
C223   O272    1.269   .     A
C223   O266    1.272   .     A
C224   O257    1.269   .     A
C224   O259    1.273   .     A
C224   C227    1.455   .     S
C225   O258    1.286   .     A
C225   C226    1.470   .     S
C225   O260    1.288   .     A
C226   C230    1.412   .     A
C228   C233    1.405   .     A
C228   H251    1.083   .     S
C229   O262    1.399   .     S
C229   O261    1.223   .     D
C229   C355    1.499   1_455 S
C230   C232    1.424   .     A
C230   C231    1.499   .     S
C231   O263    1.222   .     D
C231   O264    1.400   .     S
C232   C234    1.423   .     A
C232   C233    1.421   .     A
C233   C858    1.408   .     S
C234   C856    1.419   .     S
C235   C236    1.411   .     A
C235   C855    1.419   1_554 S
C236   H253    1.077   .     S
C236   C237    1.400   .     A
C237   N254    1.440   .     S
C237   C854    1.408   1_554 S
H240   N254    1.046   .     S
H241   N254    1.046   .     S
H242   O262    1.014   .     S
H243   N255    1.045   .     S
H244   N462    1.045   .     S
H245   O264    1.014   .     S
H246   C287    1.086   .     S
H247   C428    1.086   .     S
O256   Zn275   1.926   .     S
O256   Zn276   1.938   .     S
O256   Zn273   1.965   .     S
O256   Zn274   1.935   .     S
O257   Zn274   1.925   .     S
O258   Zn276   1.935   .     S
O259   Zn275   1.929   .     S
O260   Zn273   1.922   .     S
O265   Zn273   1.926   .     S
O266   Zn276   1.929   .     S
O267   Zn274   1.931   .     S
O268   Zn275   1.941   .     S
O269   Zn276   1.930   .     S
O270   Zn273   1.922   .     S
O271   Zn274   1.942   .     S
O272   Zn275   1.935   .     S
C277   C287    1.439   .     S
C277   O338    1.272   .     A
C277   O336    1.266   .     A
C278   C279    1.386   .     A
C278   C303    1.411   .     A
C278   H308    1.081   .     S
C279   H319    1.084   .     S
C279   C902    1.393   .     S
C280   O337    1.278   .     A
C280   O339    1.285   .     A
C280   C286    1.468   .     S
C281   C282    1.422   .     A
C281   C283    1.402   .     A
C281   C900    1.393   1_554 S
C282   C285    1.411   .     A
C282   C304    1.425   .     A
C283   C284    1.391   .     A
C283   H307    1.084   .     S
C284   C296    1.396   .     A
C284   H318    1.084   .     S
C285   C296    1.395   .     A
C285   H317    1.079   .     S
C286   C356    1.345   .     S
C286   C367    1.499   .     S
C288   C295    1.400   .     A
C288   C297    1.389   .     A
C288   H321    1.084   .     S
C289   C292    1.459   .     S
C289   C497    1.336   .     S
C289   N531    1.437   .     S
C290   C291    1.438   .     S
C291   O340    1.276   .     A
C291   O334    1.276   .     A
C292   O341    1.269   .     A
C292   O335    1.272   .     A
C293   O326    1.269   .     A
C293   O328    1.273   .     A
C293   C296    1.455   .     S
C294   O327    1.286   .     A
C294   C295    1.470   .     S
C294   O329    1.288   .     A
C295   C299    1.412   .     A
C297   C302    1.405   .     A
C297   H320    1.083   .     S
C298   O331    1.399   .     S
C298   O330    1.223   .     D
C299   C301    1.424   .     A
C299   C300    1.499   .     S
C300   O332    1.222   .     D
C300   O333    1.400   .     S
C301   C303    1.423   .     A
C301   C302    1.421   .     A
C302   C927    1.408   .     S
C303   C925    1.419   .     S
C304   C305    1.411   .     A
C304   C924    1.419   1_554 S
C305   H322    1.077   .     S
C305   C306    1.400   .     A
C306   N323    1.440   .     S
C306   C923    1.408   1_554 S
H309   N323    1.046   .     S
H310   N323    1.046   .     S
H311   O331    1.014   .     S
H312   N324    1.045   .     S
H313   N531    1.045   .     S
H314   O333    1.014   .     S
H315   C356    1.086   .     S
H316   C497    1.086   .     S
O325   Zn344   1.926   .     S
O325   Zn345   1.938   .     S
O325   Zn342   1.965   .     S
O325   Zn343   1.935   .     S
O326   Zn343   1.925   .     S
O327   Zn345   1.935   .     S
O328   Zn344   1.929   .     S
O329   Zn342   1.922   .     S
O334   Zn342   1.926   .     S
O335   Zn345   1.929   .     S
O336   Zn343   1.931   .     S
O337   Zn344   1.941   .     S
O338   Zn345   1.930   .     S
O339   Zn342   1.922   .     S
O340   Zn343   1.942   .     S
O341   Zn344   1.935   .     S
C346   C356    1.439   .     S
C346   O407    1.272   .     A
C346   O405    1.266   .     A
C347   C348    1.386   .     A
C347   C372    1.411   .     A
C347   H377    1.081   .     S
C348   H388    1.084   .     S
C348   C971    1.393   .     S
C349   O406    1.278   .     A
C349   O408    1.285   .     A
C349   C355    1.468   .     S
C350   C351    1.422   .     A
C350   C352    1.402   .     A
C350   C969    1.393   1_554 S
C351   C354    1.411   .     A
C351   C373    1.425   .     A
C352   C353    1.391   .     A
C352   H376    1.084   .     S
C353   C365    1.396   .     A
C353   H387    1.084   .     S
C354   C365    1.395   .     A
C354   H386    1.079   .     S
C355   C218    1.345   1_655 S
C355   C229    1.499   1_655 S
C357   C364    1.400   .     A
C357   C366    1.389   .     A
C357   H390    1.084   .     S
C358   C361    1.459   .     S
C358   C566    1.336   .     S
C358   N600    1.437   .     S
C359   C360    1.438   .     S
C360   O409    1.276   .     A
C360   O403    1.276   .     A
C361   O410    1.269   .     A
C361   O404    1.272   .     A
C362   O395    1.269   .     A
C362   O397    1.273   .     A
C362   C365    1.455   .     S
C363   O396    1.286   .     A
C363   C364    1.470   .     S
C363   O398    1.288   .     A
C364   C368    1.412   .     A
C366   C371    1.405   .     A
C366   H389    1.083   .     S
C367   O400    1.399   .     S
C367   O399    1.223   .     D
C368   C370    1.424   .     A
C368   C369    1.499   .     S
C369   O401    1.222   .     D
C369   O402    1.400   .     S
C370   C372    1.423   .     A
C370   C371    1.421   .     A
C371   C996    1.408   .     S
C372   C994    1.419   .     S
C373   C374    1.411   .     A
C373   C993    1.419   1_554 S
C374   H391    1.077   .     S
C374   C375    1.400   .     A
C375   N392    1.440   .     S
C375   C992    1.408   1_554 S
H378   N392    1.046   .     S
H379   N392    1.046   .     S
H380   O400    1.014   .     S
H381   N393    1.045   .     S
H382   N600    1.045   .     S
H383   O402    1.014   .     S
H384   C218    1.086   1_655 S
H385   C566    1.086   .     S
O394   Zn413   1.926   .     S
O394   Zn414   1.938   .     S
O394   Zn411   1.965   .     S
O394   Zn412   1.935   .     S
O395   Zn412   1.925   .     S
O396   Zn414   1.935   .     S
O397   Zn413   1.929   .     S
O398   Zn411   1.922   .     S
O403   Zn411   1.926   .     S
O404   Zn414   1.929   .     S
O405   Zn412   1.931   .     S
O406   Zn413   1.941   .     S
O407   Zn414   1.930   .     S
O408   Zn411   1.922   .     S
O409   Zn412   1.942   .     S
O410   Zn413   1.935   .     S
C415   C425    1.439   .     S
C415   O476    1.272   .     A
C415   O474    1.266   .     A
C416   C417    1.386   .     A
C416   C441    1.411   .     A
C416   H446    1.081   .     S
C417   H457    1.084   .     S
C417   C1040   1.393   .     S
C418   O475    1.278   .     A
C418   O477    1.285   .     A
C418   C424    1.468   .     S
C419   C420    1.422   .     A
C419   C421    1.402   .     A
C419   C1038   1.393   1_554 S
C420   C423    1.411   .     A
C420   C442    1.425   .     A
C421   C422    1.391   .     A
C421   H445    1.084   .     S
C422   C434    1.396   .     A
C422   H456    1.084   .     S
C423   C434    1.395   .     A
C423   H455    1.079   .     S
C424   C494    1.345   .     S
C424   C505    1.499   .     S
C425   C562    1.345   1_455 S
C425   H591    1.086   1_455 S
C426   C433    1.400   .     A
C426   C435    1.389   .     A
C426   H459    1.084   .     S
C427   C430    1.459   .     S
C427   C14     1.336   1_565 S
C427   N48     1.437   1_565 S
C428   C429    1.438   .     S
C429   O478    1.276   .     A
C429   O472    1.276   .     A
C430   O479    1.269   .     A
C430   O473    1.272   .     A
C431   O464    1.269   .     A
C431   O466    1.273   .     A
C431   C434    1.455   .     S
C432   O465    1.286   .     A
C432   C433    1.470   .     S
C432   O467    1.288   .     A
C433   C437    1.412   .     A
C435   C440    1.405   .     A
C435   H458    1.083   .     S
C436   O469    1.399   .     S
C436   O468    1.223   .     D
C436   C562    1.499   1_455 S
C437   C439    1.424   .     A
C437   C438    1.499   .     S
C438   O470    1.222   .     D
C438   O471    1.400   .     S
C439   C441    1.423   .     A
C439   C440    1.421   .     A
C440   C1065   1.408   .     S
C441   C1063   1.419   .     S
C442   C443    1.411   .     A
C442   C1062   1.419   1_554 S
C443   H460    1.077   .     S
C443   C444    1.400   .     A
C444   N461    1.440   .     S
C444   C1061   1.408   1_554 S
H447   N461    1.046   .     S
H448   N461    1.046   .     S
H449   O469    1.014   .     S
H450   N462    1.045   .     S
H451   N48     1.045   1_565 S
H452   O471    1.014   .     S
H453   C494    1.086   .     S
H454   C14     1.086   1_565 S
O463   Zn482   1.926   .     S
O463   Zn483   1.938   .     S
O463   Zn480   1.965   .     S
O463   Zn481   1.935   .     S
O464   Zn481   1.925   .     S
O465   Zn483   1.935   .     S
O466   Zn482   1.929   .     S
O467   Zn480   1.922   .     S
O472   Zn480   1.926   .     S
O473   Zn483   1.929   .     S
O474   Zn481   1.931   .     S
O475   Zn482   1.941   .     S
O476   Zn483   1.930   .     S
O477   Zn480   1.922   .     S
O478   Zn481   1.942   .     S
O479   Zn482   1.935   .     S
C484   C494    1.439   .     S
C484   O545    1.272   .     A
C484   O543    1.266   .     A
C485   C486    1.386   .     A
C485   C510    1.411   .     A
C485   H515    1.081   .     S
C486   H526    1.084   .     S
C486   C1109   1.393   .     S
C487   O544    1.278   .     A
C487   O546    1.285   .     A
C487   C493    1.468   .     S
C488   C489    1.422   .     A
C488   C490    1.402   .     A
C488   C1107   1.393   1_554 S
C489   C492    1.411   .     A
C489   C511    1.425   .     A
C490   C491    1.391   .     A
C490   H514    1.084   .     S
C491   C503    1.396   .     A
C491   H525    1.084   .     S
C492   C503    1.395   .     A
C492   H524    1.079   .     S
C493   C563    1.345   .     S
C493   C574    1.499   .     S
C495   C502    1.400   .     A
C495   C504    1.389   .     A
C495   H528    1.084   .     S
C496   C499    1.459   .     S
C496   C83     1.336   1_565 S
C496   N117    1.437   1_565 S
C497   C498    1.438   .     S
C498   O547    1.276   .     A
C498   O541    1.276   .     A
C499   O548    1.269   .     A
C499   O542    1.272   .     A
C500   O533    1.269   .     A
C500   O535    1.273   .     A
C500   C503    1.455   .     S
C501   O534    1.286   .     A
C501   C502    1.470   .     S
C501   O536    1.288   .     A
C502   C506    1.412   .     A
C504   C509    1.405   .     A
C504   H527    1.083   .     S
C505   O538    1.399   .     S
C505   O537    1.223   .     D
C506   C508    1.424   .     A
C506   C507    1.499   .     S
C507   O539    1.222   .     D
C507   O540    1.400   .     S
C508   C510    1.423   .     A
C508   C509    1.421   .     A
C509   C1134   1.408   .     S
C510   C1132   1.419   .     S
C511   C512    1.411   .     A
C511   C1131   1.419   1_554 S
C512   H529    1.077   .     S
C512   C513    1.400   .     A
C513   N530    1.440   .     S
C513   C1130   1.408   1_554 S
H516   N530    1.046   .     S
H517   N530    1.046   .     S
H518   O538    1.014   .     S
H519   N531    1.045   .     S
H520   N117    1.045   1_565 S
H521   O540    1.014   .     S
H522   C563    1.086   .     S
H523   C83     1.086   1_565 S
O532   Zn551   1.926   .     S
O532   Zn552   1.938   .     S
O532   Zn549   1.965   .     S
O532   Zn550   1.935   .     S
O533   Zn550   1.925   .     S
O534   Zn552   1.935   .     S
O535   Zn551   1.929   .     S
O536   Zn549   1.922   .     S
O541   Zn549   1.926   .     S
O542   Zn552   1.929   .     S
O543   Zn550   1.931   .     S
O544   Zn551   1.941   .     S
O545   Zn552   1.930   .     S
O546   Zn549   1.922   .     S
O547   Zn550   1.942   .     S
O548   Zn551   1.935   .     S
C553   C563    1.439   .     S
C553   O614    1.272   .     A
C553   O612    1.266   .     A
C554   C555    1.386   .     A
C554   C579    1.411   .     A
C554   H584    1.081   .     S
C555   H595    1.084   .     S
C555   C1178   1.393   .     S
C556   O613    1.278   .     A
C556   O615    1.285   .     A
C556   C562    1.468   .     S
C557   C558    1.422   .     A
C557   C559    1.402   .     A
C557   C1176   1.393   1_554 S
C558   C561    1.411   .     A
C558   C580    1.425   .     A
C559   C560    1.391   .     A
C559   H583    1.084   .     S
C560   C572    1.396   .     A
C560   H594    1.084   .     S
C561   C572    1.395   .     A
C561   H593    1.079   .     S
C562   C425    1.345   1_655 S
C562   C436    1.499   1_655 S
C564   C571    1.400   .     A
C564   C573    1.389   .     A
C564   H597    1.084   .     S
C565   C568    1.459   .     S
C565   C152    1.336   1_565 S
C565   N186    1.437   1_565 S
C566   C567    1.438   .     S
C567   O616    1.276   .     A
C567   O610    1.276   .     A
C568   O617    1.269   .     A
C568   O611    1.272   .     A
C569   O602    1.269   .     A
C569   O604    1.273   .     A
C569   C572    1.455   .     S
C570   O603    1.286   .     A
C570   C571    1.470   .     S
C570   O605    1.288   .     A
C571   C575    1.412   .     A
C573   C578    1.405   .     A
C573   H596    1.083   .     S
C574   O607    1.399   .     S
C574   O606    1.223   .     D
C575   C577    1.424   .     A
C575   C576    1.499   .     S
C576   O608    1.222   .     D
C576   O609    1.400   .     S
C577   C579    1.423   .     A
C577   C578    1.421   .     A
C578   C1203   1.408   .     S
C579   C1201   1.419   .     S
C580   C581    1.411   .     A
C580   C1200   1.419   1_554 S
C581   H598    1.077   .     S
C581   C582    1.400   .     A
C582   N599    1.440   .     S
C582   C1199   1.408   1_554 S
H585   N599    1.046   .     S
H586   N599    1.046   .     S
H587   O607    1.014   .     S
H588   N600    1.045   .     S
H589   N186    1.045   1_565 S
H590   O609    1.014   .     S
H591   C425    1.086   1_655 S
H592   C152    1.086   1_565 S
O601   Zn620   1.926   .     S
O601   Zn621   1.938   .     S
O601   Zn618   1.965   .     S
O601   Zn619   1.935   .     S
O602   Zn619   1.925   .     S
O603   Zn621   1.935   .     S
O604   Zn620   1.929   .     S
O605   Zn618   1.922   .     S
O610   Zn618   1.926   .     S
O611   Zn621   1.929   .     S
O612   Zn619   1.931   .     S
O613   Zn620   1.941   .     S
O614   Zn621   1.930   .     S
O615   Zn618   1.922   .     S
O616   Zn619   1.942   .     S
O617   Zn620   1.935   .     S
C622   C632    1.439   .     S
C622   O683    1.272   .     A
C622   O681    1.266   .     A
C623   C624    1.386   .     A
C623   C648    1.411   .     A
C623   H653    1.081   .     S
C624   H664    1.084   .     S
C624   C5      1.393   1_556 S
C625   O682    1.278   .     A
C625   O684    1.285   .     A
C625   C631    1.468   .     S
C626   C627    1.422   .     A
C626   C628    1.402   .     A
C627   C630    1.411   .     A
C627   C649    1.425   .     A
C628   C629    1.391   .     A
C628   H652    1.084   .     S
C629   C641    1.396   .     A
C629   H663    1.084   .     S
C630   C641    1.395   .     A
C630   H662    1.079   .     S
C631   C701    1.345   .     S
C631   C712    1.499   .     S
C632   C769    1.345   1_455 S
C632   H798    1.086   1_455 S
C633   C640    1.400   .     A
C633   C642    1.389   .     A
C633   H666    1.084   .     S
C634   C637    1.459   .     S
C634   C842    1.336   .     S
C634   N876    1.437   .     S
C635   C636    1.438   .     S
C635   C1048   1.336   1_545 S
C635   H1075   1.086   1_545 S
C636   O685    1.276   .     A
C636   O679    1.276   .     A
C637   O686    1.269   .     A
C637   O680    1.272   .     A
C638   O671    1.269   .     A
C638   O673    1.273   .     A
C638   C641    1.455   .     S
C639   O672    1.286   .     A
C639   C640    1.470   .     S
C639   O674    1.288   .     A
C640   C644    1.412   .     A
C642   C647    1.405   .     A
C642   H665    1.083   .     S
C643   O676    1.399   .     S
C643   O675    1.223   .     D
C643   C769    1.499   1_455 S
C644   C646    1.424   .     A
C644   C645    1.499   .     S
C645   O677    1.222   .     D
C645   O678    1.400   .     S
C646   C648    1.423   .     A
C646   C647    1.421   .     A
C647   C30     1.408   1_556 S
C648   C28     1.419   1_556 S
C649   C650    1.411   .     A
C650   H667    1.077   .     S
C650   C651    1.400   .     A
C651   N668    1.440   .     S
H654   N668    1.046   .     S
H655   N668    1.046   .     S
H656   O676    1.014   .     S
H657   N669    1.045   .     S
H658   N876    1.045   .     S
H659   O678    1.014   .     S
H660   C701    1.086   .     S
H661   C842    1.086   .     S
N669   C1048   1.437   1_545 S
N669   H1072   1.045   1_545 S
O670   Zn689   1.926   .     S
O670   Zn690   1.938   .     S
O670   Zn687   1.965   .     S
O670   Zn688   1.935   .     S
O671   Zn688   1.925   .     S
O672   Zn690   1.935   .     S
O673   Zn689   1.929   .     S
O674   Zn687   1.922   .     S
O679   Zn687   1.926   .     S
O680   Zn690   1.929   .     S
O681   Zn688   1.931   .     S
O682   Zn689   1.941   .     S
O683   Zn690   1.930   .     S
O684   Zn687   1.922   .     S
O685   Zn688   1.942   .     S
O686   Zn689   1.935   .     S
C691   C701    1.439   .     S
C691   O752    1.272   .     A
C691   O750    1.266   .     A
C692   C693    1.386   .     A
C692   C717    1.411   .     A
C692   H722    1.081   .     S
C693   H733    1.084   .     S
C693   C74     1.393   1_556 S
C694   O751    1.278   .     A
C694   O753    1.285   .     A
C694   C700    1.468   .     S
C695   C696    1.422   .     A
C695   C697    1.402   .     A
C696   C699    1.411   .     A
C696   C718    1.425   .     A
C697   C698    1.391   .     A
C697   H721    1.084   .     S
C698   C710    1.396   .     A
C698   H732    1.084   .     S
C699   C710    1.395   .     A
C699   H731    1.079   .     S
C700   C770    1.345   .     S
C700   C781    1.499   .     S
C702   C709    1.400   .     A
C702   C711    1.389   .     A
C702   H735    1.084   .     S
C703   C706    1.459   .     S
C703   C911    1.336   .     S
C703   N945    1.437   .     S
C704   C705    1.438   .     S
C704   C1117   1.336   1_545 S
C704   H1144   1.086   1_545 S
C705   O754    1.276   .     A
C705   O748    1.276   .     A
C706   O755    1.269   .     A
C706   O749    1.272   .     A
C707   O740    1.269   .     A
C707   O742    1.273   .     A
C707   C710    1.455   .     S
C708   O741    1.286   .     A
C708   C709    1.470   .     S
C708   O743    1.288   .     A
C709   C713    1.412   .     A
C711   C716    1.405   .     A
C711   H734    1.083   .     S
C712   O745    1.399   .     S
C712   O744    1.223   .     D
C713   C715    1.424   .     A
C713   C714    1.499   .     S
C714   O746    1.222   .     D
C714   O747    1.400   .     S
C715   C717    1.423   .     A
C715   C716    1.421   .     A
C716   C99     1.408   1_556 S
C717   C97     1.419   1_556 S
C718   C719    1.411   .     A
C719   H736    1.077   .     S
C719   C720    1.400   .     A
C720   N737    1.440   .     S
H723   N737    1.046   .     S
H724   N737    1.046   .     S
H725   O745    1.014   .     S
H726   N738    1.045   .     S
H727   N945    1.045   .     S
H728   O747    1.014   .     S
H729   C770    1.086   .     S
H730   C911    1.086   .     S
N738   C1117   1.437   1_545 S
N738   H1141   1.045   1_545 S
O739   Zn758   1.926   .     S
O739   Zn759   1.938   .     S
O739   Zn756   1.965   .     S
O739   Zn757   1.935   .     S
O740   Zn757   1.925   .     S
O741   Zn759   1.935   .     S
O742   Zn758   1.929   .     S
O743   Zn756   1.922   .     S
O748   Zn756   1.926   .     S
O749   Zn759   1.929   .     S
O750   Zn757   1.931   .     S
O751   Zn758   1.941   .     S
O752   Zn759   1.930   .     S
O753   Zn756   1.922   .     S
O754   Zn757   1.942   .     S
O755   Zn758   1.935   .     S
C760   C770    1.439   .     S
C760   O821    1.272   .     A
C760   O819    1.266   .     A
C761   C762    1.386   .     A
C761   C786    1.411   .     A
C761   H791    1.081   .     S
C762   H802    1.084   .     S
C762   C143    1.393   1_556 S
C763   O820    1.278   .     A
C763   O822    1.285   .     A
C763   C769    1.468   .     S
C764   C765    1.422   .     A
C764   C766    1.402   .     A
C765   C768    1.411   .     A
C765   C787    1.425   .     A
C766   C767    1.391   .     A
C766   H790    1.084   .     S
C767   C779    1.396   .     A
C767   H801    1.084   .     S
C768   C779    1.395   .     A
C768   H800    1.079   .     S
C769   C632    1.345   1_655 S
C769   C643    1.499   1_655 S
C771   C778    1.400   .     A
C771   C780    1.389   .     A
C771   H804    1.084   .     S
C772   C775    1.459   .     S
C772   C980    1.336   .     S
C772   N1014   1.437   .     S
C773   C774    1.438   .     S
C773   C1186   1.336   1_545 S
C773   H1213   1.086   1_545 S
C774   O823    1.276   .     A
C774   O817    1.276   .     A
C775   O824    1.269   .     A
C775   O818    1.272   .     A
C776   O809    1.269   .     A
C776   O811    1.273   .     A
C776   C779    1.455   .     S
C777   O810    1.286   .     A
C777   C778    1.470   .     S
C777   O812    1.288   .     A
C778   C782    1.412   .     A
C780   C785    1.405   .     A
C780   H803    1.083   .     S
C781   O814    1.399   .     S
C781   O813    1.223   .     D
C782   C784    1.424   .     A
C782   C783    1.499   .     S
C783   O815    1.222   .     D
C783   O816    1.400   .     S
C784   C786    1.423   .     A
C784   C785    1.421   .     A
C785   C168    1.408   1_556 S
C786   C166    1.419   1_556 S
C787   C788    1.411   .     A
C788   H805    1.077   .     S
C788   C789    1.400   .     A
C789   N806    1.440   .     S
H792   N806    1.046   .     S
H793   N806    1.046   .     S
H794   O814    1.014   .     S
H795   N807    1.045   .     S
H796   N1014   1.045   .     S
H797   O816    1.014   .     S
H798   C632    1.086   1_655 S
H799   C980    1.086   .     S
N807   C1186   1.437   1_545 S
N807   H1210   1.045   1_545 S
O808   Zn827   1.926   .     S
O808   Zn828   1.938   .     S
O808   Zn825   1.965   .     S
O808   Zn826   1.935   .     S
O809   Zn826   1.925   .     S
O810   Zn828   1.935   .     S
O811   Zn827   1.929   .     S
O812   Zn825   1.922   .     S
O817   Zn825   1.926   .     S
O818   Zn828   1.929   .     S
O819   Zn826   1.931   .     S
O820   Zn827   1.941   .     S
O821   Zn828   1.930   .     S
O822   Zn825   1.922   .     S
O823   Zn826   1.942   .     S
O824   Zn827   1.935   .     S
C829   C839    1.439   .     S
C829   O890    1.272   .     A
C829   O888    1.266   .     A
C830   C831    1.386   .     A
C830   C855    1.411   .     A
C830   H860    1.081   .     S
C831   H871    1.084   .     S
C831   C212    1.393   1_556 S
C832   O889    1.278   .     A
C832   O891    1.285   .     A
C832   C838    1.468   .     S
C833   C834    1.422   .     A
C833   C835    1.402   .     A
C834   C837    1.411   .     A
C834   C856    1.425   .     A
C835   C836    1.391   .     A
C835   H859    1.084   .     S
C836   C848    1.396   .     A
C836   H870    1.084   .     S
C837   C848    1.395   .     A
C837   H869    1.079   .     S
C838   C908    1.345   .     S
C838   C919    1.499   .     S
C839   C976    1.345   1_455 S
C839   H1005   1.086   1_455 S
C840   C847    1.400   .     A
C840   C849    1.389   .     A
C840   H873    1.084   .     S
C841   C844    1.459   .     S
C841   C1049   1.336   .     S
C841   N1083   1.437   .     S
C842   C843    1.438   .     S
C843   O892    1.276   .     A
C843   O886    1.276   .     A
C844   O893    1.269   .     A
C844   O887    1.272   .     A
C845   O878    1.269   .     A
C845   O880    1.273   .     A
C845   C848    1.455   .     S
C846   O879    1.286   .     A
C846   C847    1.470   .     S
C846   O881    1.288   .     A
C847   C851    1.412   .     A
C849   C854    1.405   .     A
C849   H872    1.083   .     S
C850   O883    1.399   .     S
C850   O882    1.223   .     D
C850   C976    1.499   1_455 S
C851   C853    1.424   .     A
C851   C852    1.499   .     S
C852   O884    1.222   .     D
C852   O885    1.400   .     S
C853   C855    1.423   .     A
C853   C854    1.421   .     A
C854   C237    1.408   1_556 S
C855   C235    1.419   1_556 S
C856   C857    1.411   .     A
C857   H874    1.077   .     S
C857   C858    1.400   .     A
C858   N875    1.440   .     S
H861   N875    1.046   .     S
H862   N875    1.046   .     S
H863   O883    1.014   .     S
H864   N876    1.045   .     S
H865   N1083   1.045   .     S
H866   O885    1.014   .     S
H867   C908    1.086   .     S
H868   C1049   1.086   .     S
O877   Zn896   1.926   .     S
O877   Zn897   1.938   .     S
O877   Zn894   1.965   .     S
O877   Zn895   1.935   .     S
O878   Zn895   1.925   .     S
O879   Zn897   1.935   .     S
O880   Zn896   1.929   .     S
O881   Zn894   1.922   .     S
O886   Zn894   1.926   .     S
O887   Zn897   1.929   .     S
O888   Zn895   1.931   .     S
O889   Zn896   1.941   .     S
O890   Zn897   1.930   .     S
O891   Zn894   1.922   .     S
O892   Zn895   1.942   .     S
O893   Zn896   1.935   .     S
C898   C908    1.439   .     S
C898   O959    1.272   .     A
C898   O957    1.266   .     A
C899   C900    1.386   .     A
C899   C924    1.411   .     A
C899   H929    1.081   .     S
C900   H940    1.084   .     S
C900   C281    1.393   1_556 S
C901   O958    1.278   .     A
C901   O960    1.285   .     A
C901   C907    1.468   .     S
C902   C903    1.422   .     A
C902   C904    1.402   .     A
C903   C906    1.411   .     A
C903   C925    1.425   .     A
C904   C905    1.391   .     A
C904   H928    1.084   .     S
C905   C917    1.396   .     A
C905   H939    1.084   .     S
C906   C917    1.395   .     A
C906   H938    1.079   .     S
C907   C977    1.345   .     S
C907   C988    1.499   .     S
C909   C916    1.400   .     A
C909   C918    1.389   .     A
C909   H942    1.084   .     S
C910   C913    1.459   .     S
C910   C1118   1.336   .     S
C910   N1152   1.437   .     S
C911   C912    1.438   .     S
C912   O961    1.276   .     A
C912   O955    1.276   .     A
C913   O962    1.269   .     A
C913   O956    1.272   .     A
C914   O947    1.269   .     A
C914   O949    1.273   .     A
C914   C917    1.455   .     S
C915   O948    1.286   .     A
C915   C916    1.470   .     S
C915   O950    1.288   .     A
C916   C920    1.412   .     A
C918   C923    1.405   .     A
C918   H941    1.083   .     S
C919   O952    1.399   .     S
C919   O951    1.223   .     D
C920   C922    1.424   .     A
C920   C921    1.499   .     S
C921   O953    1.222   .     D
C921   O954    1.400   .     S
C922   C924    1.423   .     A
C922   C923    1.421   .     A
C923   C306    1.408   1_556 S
C924   C304    1.419   1_556 S
C925   C926    1.411   .     A
C926   H943    1.077   .     S
C926   C927    1.400   .     A
C927   N944    1.440   .     S
H930   N944    1.046   .     S
H931   N944    1.046   .     S
H932   O952    1.014   .     S
H933   N945    1.045   .     S
H934   N1152   1.045   .     S
H935   O954    1.014   .     S
H936   C977    1.086   .     S
H937   C1118   1.086   .     S
O946   Zn965   1.926   .     S
O946   Zn966   1.938   .     S
O946   Zn963   1.965   .     S
O946   Zn964   1.935   .     S
O947   Zn964   1.925   .     S
O948   Zn966   1.935   .     S
O949   Zn965   1.929   .     S
O950   Zn963   1.922   .     S
O955   Zn963   1.926   .     S
O956   Zn966   1.929   .     S
O957   Zn964   1.931   .     S
O958   Zn965   1.941   .     S
O959   Zn966   1.930   .     S
O960   Zn963   1.922   .     S
O961   Zn964   1.942   .     S
O962   Zn965   1.935   .     S
C967   C977    1.439   .     S
C967   O1028   1.272   .     A
C967   O1026   1.266   .     A
C968   C969    1.386   .     A
C968   C993    1.411   .     A
C968   H998    1.081   .     S
C969   H1009   1.084   .     S
C969   C350    1.393   1_556 S
C970   O1027   1.278   .     A
C970   O1029   1.285   .     A
C970   C976    1.468   .     S
C971   C972    1.422   .     A
C971   C973    1.402   .     A
C972   C975    1.411   .     A
C972   C994    1.425   .     A
C973   C974    1.391   .     A
C973   H997    1.084   .     S
C974   C986    1.396   .     A
C974   H1008   1.084   .     S
C975   C986    1.395   .     A
C975   H1007   1.079   .     S
C976   C839    1.345   1_655 S
C976   C850    1.499   1_655 S
C978   C985    1.400   .     A
C978   C987    1.389   .     A
C978   H1011   1.084   .     S
C979   C982    1.459   .     S
C979   C1187   1.336   .     S
C979   N1221   1.437   .     S
C980   C981    1.438   .     S
C981   O1030   1.276   .     A
C981   O1024   1.276   .     A
C982   O1031   1.269   .     A
C982   O1025   1.272   .     A
C983   O1016   1.269   .     A
C983   O1018   1.273   .     A
C983   C986    1.455   .     S
C984   O1017   1.286   .     A
C984   C985    1.470   .     S
C984   O1019   1.288   .     A
C985   C989    1.412   .     A
C987   C992    1.405   .     A
C987   H1010   1.083   .     S
C988   O1021   1.399   .     S
C988   O1020   1.223   .     D
C989   C991    1.424   .     A
C989   C990    1.499   .     S
C990   O1022   1.222   .     D
C990   O1023   1.400   .     S
C991   C993    1.423   .     A
C991   C992    1.421   .     A
C992   C375    1.408   1_556 S
C993   C373    1.419   1_556 S
C994   C995    1.411   .     A
C995   H1012   1.077   .     S
C995   C996    1.400   .     A
C996   N1013   1.440   .     S
H999   N1013   1.046   .     S
H1000  N1013   1.046   .     S
H1001  O1021   1.014   .     S
H1002  N1014   1.045   .     S
H1003  N1221   1.045   .     S
H1004  O1023   1.014   .     S
H1005  C839    1.086   1_655 S
H1006  C1187   1.086   .     S
O1015  Zn1034  1.926   .     S
O1015  Zn1035  1.938   .     S
O1015  Zn1032  1.965   .     S
O1015  Zn1033  1.935   .     S
O1016  Zn1033  1.925   .     S
O1017  Zn1035  1.935   .     S
O1018  Zn1034  1.929   .     S
O1019  Zn1032  1.922   .     S
O1024  Zn1032  1.926   .     S
O1025  Zn1035  1.929   .     S
O1026  Zn1033  1.931   .     S
O1027  Zn1034  1.941   .     S
O1028  Zn1035  1.930   .     S
O1029  Zn1032  1.922   .     S
O1030  Zn1033  1.942   .     S
O1031  Zn1034  1.935   .     S
C1036  C1046   1.439   .     S
C1036  O1097   1.272   .     A
C1036  O1095   1.266   .     A
C1037  C1038   1.386   .     A
C1037  C1062   1.411   .     A
C1037  H1067   1.081   .     S
C1038  H1078   1.084   .     S
C1038  C419    1.393   1_556 S
C1039  O1096   1.278   .     A
C1039  O1098   1.285   .     A
C1039  C1045   1.468   .     S
C1040  C1041   1.422   .     A
C1040  C1042   1.402   .     A
C1041  C1044   1.411   .     A
C1041  C1063   1.425   .     A
C1042  C1043   1.391   .     A
C1042  H1066   1.084   .     S
C1043  C1055   1.396   .     A
C1043  H1077   1.084   .     S
C1044  C1055   1.395   .     A
C1044  H1076   1.079   .     S
C1045  C1115   1.345   .     S
C1045  C1126   1.499   .     S
C1046  C1183   1.345   1_455 S
C1046  H1212   1.086   1_455 S
C1047  C1054   1.400   .     A
C1047  C1056   1.389   .     A
C1047  H1080   1.084   .     S
C1048  C1051   1.459   .     S
C1048  C635    1.336   1_565 S
C1048  N669    1.437   1_565 S
C1049  C1050   1.438   .     S
C1050  O1099   1.276   .     A
C1050  O1093   1.276   .     A
C1051  O1100   1.269   .     A
C1051  O1094   1.272   .     A
C1052  O1085   1.269   .     A
C1052  O1087   1.273   .     A
C1052  C1055   1.455   .     S
C1053  O1086   1.286   .     A
C1053  C1054   1.470   .     S
C1053  O1088   1.288   .     A
C1054  C1058   1.412   .     A
C1056  C1061   1.405   .     A
C1056  H1079   1.083   .     S
C1057  O1090   1.399   .     S
C1057  O1089   1.223   .     D
C1057  C1183   1.499   1_455 S
C1058  C1060   1.424   .     A
C1058  C1059   1.499   .     S
C1059  O1091   1.222   .     D
C1059  O1092   1.400   .     S
C1060  C1062   1.423   .     A
C1060  C1061   1.421   .     A
C1061  C444    1.408   1_556 S
C1062  C442    1.419   1_556 S
C1063  C1064   1.411   .     A
C1064  H1081   1.077   .     S
C1064  C1065   1.400   .     A
C1065  N1082   1.440   .     S
H1068  N1082   1.046   .     S
H1069  N1082   1.046   .     S
H1070  O1090   1.014   .     S
H1071  N1083   1.045   .     S
H1072  N669    1.045   1_565 S
H1073  O1092   1.014   .     S
H1074  C1115   1.086   .     S
H1075  C635    1.086   1_565 S
O1084  Zn1103  1.926   .     S
O1084  Zn1104  1.938   .     S
O1084  Zn1101  1.965   .     S
O1084  Zn1102  1.935   .     S
O1085  Zn1102  1.925   .     S
O1086  Zn1104  1.935   .     S
O1087  Zn1103  1.929   .     S
O1088  Zn1101  1.922   .     S
O1093  Zn1101  1.926   .     S
O1094  Zn1104  1.929   .     S
O1095  Zn1102  1.931   .     S
O1096  Zn1103  1.941   .     S
O1097  Zn1104  1.930   .     S
O1098  Zn1101  1.922   .     S
O1099  Zn1102  1.942   .     S
O1100  Zn1103  1.935   .     S
C1105  C1115   1.439   .     S
C1105  O1166   1.272   .     A
C1105  O1164   1.266   .     A
C1106  C1107   1.386   .     A
C1106  C1131   1.411   .     A
C1106  H1136   1.081   .     S
C1107  H1147   1.084   .     S
C1107  C488    1.393   1_556 S
C1108  O1165   1.278   .     A
C1108  O1167   1.285   .     A
C1108  C1114   1.468   .     S
C1109  C1110   1.422   .     A
C1109  C1111   1.402   .     A
C1110  C1113   1.411   .     A
C1110  C1132   1.425   .     A
C1111  C1112   1.391   .     A
C1111  H1135   1.084   .     S
C1112  C1124   1.396   .     A
C1112  H1146   1.084   .     S
C1113  C1124   1.395   .     A
C1113  H1145   1.079   .     S
C1114  C1184   1.345   .     S
C1114  C1195   1.499   .     S
C1116  C1123   1.400   .     A
C1116  C1125   1.389   .     A
C1116  H1149   1.084   .     S
C1117  C1120   1.459   .     S
C1117  C704    1.336   1_565 S
C1117  N738    1.437   1_565 S
C1118  C1119   1.438   .     S
C1119  O1168   1.276   .     A
C1119  O1162   1.276   .     A
C1120  O1169   1.269   .     A
C1120  O1163   1.272   .     A
C1121  O1154   1.269   .     A
C1121  O1156   1.273   .     A
C1121  C1124   1.455   .     S
C1122  O1155   1.286   .     A
C1122  C1123   1.470   .     S
C1122  O1157   1.288   .     A
C1123  C1127   1.412   .     A
C1125  C1130   1.405   .     A
C1125  H1148   1.083   .     S
C1126  O1159   1.399   .     S
C1126  O1158   1.223   .     D
C1127  C1129   1.424   .     A
C1127  C1128   1.499   .     S
C1128  O1160   1.222   .     D
C1128  O1161   1.400   .     S
C1129  C1131   1.423   .     A
C1129  C1130   1.421   .     A
C1130  C513    1.408   1_556 S
C1131  C511    1.419   1_556 S
C1132  C1133   1.411   .     A
C1133  H1150   1.077   .     S
C1133  C1134   1.400   .     A
C1134  N1151   1.440   .     S
H1137  N1151   1.046   .     S
H1138  N1151   1.046   .     S
H1139  O1159   1.014   .     S
H1140  N1152   1.045   .     S
H1141  N738    1.045   1_565 S
H1142  O1161   1.014   .     S
H1143  C1184   1.086   .     S
H1144  C704    1.086   1_565 S
O1153  Zn1172  1.926   .     S
O1153  Zn1173  1.938   .     S
O1153  Zn1170  1.965   .     S
O1153  Zn1171  1.935   .     S
O1154  Zn1171  1.925   .     S
O1155  Zn1173  1.935   .     S
O1156  Zn1172  1.929   .     S
O1157  Zn1170  1.922   .     S
O1162  Zn1170  1.926   .     S
O1163  Zn1173  1.929   .     S
O1164  Zn1171  1.931   .     S
O1165  Zn1172  1.941   .     S
O1166  Zn1173  1.930   .     S
O1167  Zn1170  1.922   .     S
O1168  Zn1171  1.942   .     S
O1169  Zn1172  1.935   .     S
C1174  C1184   1.439   .     S
C1174  O1235   1.272   .     A
C1174  O1233   1.266   .     A
C1175  C1176   1.386   .     A
C1175  C1200   1.411   .     A
C1175  H1205   1.081   .     S
C1176  H1216   1.084   .     S
C1176  C557    1.393   1_556 S
C1177  O1234   1.278   .     A
C1177  O1236   1.285   .     A
C1177  C1183   1.468   .     S
C1178  C1179   1.422   .     A
C1178  C1180   1.402   .     A
C1179  C1182   1.411   .     A
C1179  C1201   1.425   .     A
C1180  C1181   1.391   .     A
C1180  H1204   1.084   .     S
C1181  C1193   1.396   .     A
C1181  H1215   1.084   .     S
C1182  C1193   1.395   .     A
C1182  H1214   1.079   .     S
C1183  C1046   1.345   1_655 S
C1183  C1057   1.499   1_655 S
C1185  C1192   1.400   .     A
C1185  C1194   1.389   .     A
C1185  H1218   1.084   .     S
C1186  C1189   1.459   .     S
C1186  C773    1.336   1_565 S
C1186  N807    1.437   1_565 S
C1187  C1188   1.438   .     S
C1188  O1237   1.276   .     A
C1188  O1231   1.276   .     A
C1189  O1238   1.269   .     A
C1189  O1232   1.272   .     A
C1190  O1223   1.269   .     A
C1190  O1225   1.273   .     A
C1190  C1193   1.455   .     S
C1191  O1224   1.286   .     A
C1191  C1192   1.470   .     S
C1191  O1226   1.288   .     A
C1192  C1196   1.412   .     A
C1194  C1199   1.405   .     A
C1194  H1217   1.083   .     S
C1195  O1228   1.399   .     S
C1195  O1227   1.223   .     D
C1196  C1198   1.424   .     A
C1196  C1197   1.499   .     S
C1197  O1229   1.222   .     D
C1197  O1230   1.400   .     S
C1198  C1200   1.423   .     A
C1198  C1199   1.421   .     A
C1199  C582    1.408   1_556 S
C1200  C580    1.419   1_556 S
C1201  C1202   1.411   .     A
C1202  H1219   1.077   .     S
C1202  C1203   1.400   .     A
C1203  N1220   1.440   .     S
H1206  N1220   1.046   .     S
H1207  N1220   1.046   .     S
H1208  O1228   1.014   .     S
H1209  N1221   1.045   .     S
H1210  N807    1.045   1_565 S
H1211  O1230   1.014   .     S
H1212  C1046   1.086   1_655 S
H1213  C773    1.086   1_565 S
O1222  Zn1241  1.926   .     S
O1222  Zn1242  1.938   .     S
O1222  Zn1239  1.965   .     S
O1222  Zn1240  1.935   .     S
O1223  Zn1240  1.925   .     S
O1224  Zn1242  1.935   .     S
O1225  Zn1241  1.929   .     S
O1226  Zn1239  1.922   .     S
O1231  Zn1239  1.926   .     S
O1232  Zn1242  1.929   .     S
O1233  Zn1240  1.931   .     S
O1234  Zn1241  1.941   .     S
O1235  Zn1242  1.930   .     S
O1236  Zn1239  1.922   .     S
O1237  Zn1240  1.942   .     S
O1238  Zn1241  1.935   .     S
