data_str_m1_o5_o17_pcu_sym.27
_audit_creation_date              2020-01-03
_audit_creation_method            'Materials Studio'
_symmetry_space_group_name_H-M    'P1'
_symmetry_Int_Tables_number       1
_symmetry_cell_setting            triclinic
loop_
_symmetry_equiv_pos_as_xyz
  x,y,z
_cell_length_a                    31.8326
_cell_length_b                    31.8326
_cell_length_c                    34.5276
_cell_angle_alpha                 90.0002
_cell_angle_beta                  90.0002
_cell_angle_gamma                 89.9999
loop_
_atom_site_label
_atom_site_type_symbol
_atom_site_fract_x
_atom_site_fract_y
_atom_site_fract_z
_atom_site_U_iso_or_equiv
_atom_site_adp_type
_atom_site_occupancy
C1     C     0.25000   0.00000   0.35573   0.00000  Uiso   1.00
C2     C     0.33002   0.41998   0.75000   0.00000  Uiso   1.00
C3     C     0.42311   0.24798   0.02025   0.00000  Uiso   1.00
C4     C     0.25202   0.07689   0.97975   0.00000  Uiso   1.00
C5     C     0.25203   0.42312   0.02024   0.00000  Uiso   1.00
C6     C     0.42311   0.25203   0.97975   0.00000  Uiso   1.00
C7     C     0.07689   0.25203   0.02025   0.00000  Uiso   1.00
C8     C     0.02666   0.33431   0.36819   0.00000  Uiso   1.00
C9     C     0.03537   0.38088   0.36227   0.00000  Uiso   1.00
C10    C     0.02666   0.16569   0.63181   0.00000  Uiso   1.00
C11    C     0.03537   0.11912   0.63773   0.00000  Uiso   1.00
C12    C     0.16570   0.02667   0.36819   0.00000  Uiso   1.00
C13    C     0.41999   0.16999   0.25000   0.00000  Uiso   1.00
C14    C     0.11912   0.03539   0.36227   0.00000  Uiso   1.00
C15    C     0.33431   0.02665   0.63181   0.00000  Uiso   1.00
C16    C     0.38088   0.03537   0.63773   0.00000  Uiso   1.00
C17    C     0.47334   0.16569   0.36819   0.00000  Uiso   1.00
C18    C     0.46463   0.11912   0.36227   0.00000  Uiso   1.00
C19    C     0.47334   0.33431   0.63181   0.00000  Uiso   1.00
C20    C     0.46462   0.38088   0.63773   0.00000  Uiso   1.00
C21    C     0.33431   0.47334   0.36819   0.00000  Uiso   1.00
C22    C     0.38088   0.46462   0.36227   0.00000  Uiso   1.00
C23    C     0.16569   0.47335   0.63181   0.00000  Uiso   1.00
C24    C     0.08002   0.33002   0.75000   0.00000  Uiso   1.00
C25    C     0.11912   0.46463   0.63773   0.00000  Uiso   1.00
C26    C     0.27665   0.08431   0.86819   0.00000  Uiso   1.00
C27    C     0.28537   0.13088   0.86227   0.00000  Uiso   1.00
C28    C     0.27666   0.41569   0.13181   0.00000  Uiso   1.00
C29    C     0.28538   0.36912   0.13773   0.00000  Uiso   1.00
C30    C     0.41569   0.27666   0.86819   0.00000  Uiso   1.00
C31    C     0.36912   0.28538   0.86227   0.00000  Uiso   1.00
C32    C     0.08431   0.27666   0.13181   0.00000  Uiso   1.00
C33    C     0.13088   0.28537   0.13773   0.00000  Uiso   1.00
C34    C     0.22335   0.41569   0.86819   0.00000  Uiso   1.00
C35    C     0.33001   0.41999   0.25000   0.00000  Uiso   1.00
C36    C     0.21463   0.36912   0.86227   0.00000  Uiso   1.00
C37    C     0.22333   0.08430   0.13181   0.00000  Uiso   1.00
C38    C     0.21462   0.13088   0.13773   0.00000  Uiso   1.00
C39    C     0.08431   0.22334   0.86819   0.00000  Uiso   1.00
C40    C     0.13088   0.21463   0.86227   0.00000  Uiso   1.00
C41    C     0.41569   0.22334   0.13181   0.00000  Uiso   1.00
C42    C     0.36912   0.21463   0.13773   0.00000  Uiso   1.00
C43    C     0.45630   0.11722   0.46373   0.00000  Uiso   1.00
C44    C     0.45850   0.07096   0.45258   0.00000  Uiso   1.00
C45    C     0.45630   0.38279   0.53626   0.00000  Uiso   1.00
C46    C     0.16998   0.08002   0.75000   0.00000  Uiso   1.00
C47    C     0.45851   0.42904   0.54742   0.00000  Uiso   1.00
C48    C     0.38279   0.45630   0.46374   0.00000  Uiso   1.00
C49    C     0.42904   0.45850   0.45258   0.00000  Uiso   1.00
C50    C     0.11722   0.45630   0.53626   0.00000  Uiso   1.00
C51    C     0.07096   0.45850   0.54742   0.00000  Uiso   1.00
C52    C     0.04370   0.38279   0.46374   0.00000  Uiso   1.00
C53    C     0.04150   0.42904   0.45258   0.00000  Uiso   1.00
C54    C     0.04370   0.11721   0.53626   0.00000  Uiso   1.00
C55    C     0.04149   0.07096   0.54742   0.00000  Uiso   1.00
C56    C     0.11721   0.04370   0.46374   0.00000  Uiso   1.00
C57    C     0.08001   0.33001   0.25000   0.00000  Uiso   1.00
C58    C     0.07096   0.04150   0.45258   0.00000  Uiso   1.00
C59    C     0.38278   0.04370   0.53626   0.00000  Uiso   1.00
C60    C     0.42904   0.04150   0.54742   0.00000  Uiso   1.00
C61    C     0.20630   0.36722   0.96373   0.00000  Uiso   1.00
C62    C     0.20850   0.32096   0.95258   0.00000  Uiso   1.00
C63    C     0.20630   0.13279   0.03626   0.00000  Uiso   1.00
C64    C     0.20851   0.17904   0.04742   0.00000  Uiso   1.00
C65    C     0.13279   0.20630   0.96374   0.00000  Uiso   1.00
C66    C     0.17904   0.20851   0.95258   0.00000  Uiso   1.00
C67    C     0.36722   0.20630   0.03626   0.00000  Uiso   1.00
C68    C     0.41998   0.16998   0.75000   0.00000  Uiso   1.00
C69    C     0.32096   0.20850   0.04742   0.00000  Uiso   1.00
C70    C     0.29370   0.13278   0.96373   0.00000  Uiso   1.00
C71    C     0.29150   0.17904   0.95258   0.00000  Uiso   1.00
C72    C     0.29370   0.36721   0.03626   0.00000  Uiso   1.00
C73    C     0.29150   0.32096   0.04742   0.00000  Uiso   1.00
C74    C     0.36721   0.29370   0.96374   0.00000  Uiso   1.00
C75    C     0.32096   0.29149   0.95258   0.00000  Uiso   1.00
C76    C     0.13278   0.29370   0.03626   0.00000  Uiso   1.00
C77    C     0.17904   0.29150   0.04742   0.00000  Uiso   1.00
C78    C     0.16999   0.41999   0.75000   0.00000  Uiso   1.00
C79    C     0.33002   0.08002   0.25000   0.00000  Uiso   1.00
C80    C     0.41999   0.33001   0.75000   0.00000  Uiso   1.00
C81    C     0.25000   0.00000   0.64427   0.00000  Uiso   1.00
C82    C     0.08002   0.16998   0.25000   0.00000  Uiso   1.00
C83    C     0.33001   0.08001   0.75000   0.00000  Uiso   1.00
C84    C     0.16998   0.41998   0.25000   0.00000  Uiso   1.00
C85    C     0.08001   0.16999   0.75000   0.00000  Uiso   1.00
C86    C     0.41998   0.33002   0.25000   0.00000  Uiso   1.00
C87    C     0.13832   0.38832   0.25000   0.00000  Uiso   1.00
C88    C     0.36167   0.11167   0.75000   0.00000  Uiso   1.00
C89    C     0.11168   0.13832   0.25000   0.00000  Uiso   1.00
C90    C     0.38833   0.36167   0.75000   0.00000  Uiso   1.00
C91    C     0.36168   0.11168   0.25000   0.00000  Uiso   1.00
C92    C     0.00000   0.25000   0.35573   0.00000  Uiso   1.00
C93    C     0.13833   0.38833   0.75000   0.00000  Uiso   1.00
C94    C     0.38832   0.36168   0.25000   0.00000  Uiso   1.00
C95    C     0.11167   0.13833   0.75000   0.00000  Uiso   1.00
C96    C     0.13832   0.11168   0.75000   0.00000  Uiso   1.00
C97    C     0.36167   0.38833   0.25000   0.00000  Uiso   1.00
C98    C     0.11168   0.36168   0.75000   0.00000  Uiso   1.00
C99    C     0.38833   0.13833   0.25000   0.00000  Uiso   1.00
C100   C     0.36168   0.38832   0.75000   0.00000  Uiso   1.00
C101   C     0.13833   0.11167   0.25000   0.00000  Uiso   1.00
C102   C     0.38832   0.13832   0.75000   0.00000  Uiso   1.00
C103   C     0.00000   0.25000   0.64427   0.00000  Uiso   1.00
C104   C     0.11167   0.36167   0.25000   0.00000  Uiso   1.00
C105   C     0.00139   0.28900   0.41752   0.00000  Uiso   1.00
C106   C     0.00139   0.21100   0.58248   0.00000  Uiso   1.00
C107   C     0.21100   0.00140   0.41752   0.00000  Uiso   1.00
C108   C     0.28900   0.00139   0.58248   0.00000  Uiso   1.00
C109   C     0.49861   0.21100   0.41752   0.00000  Uiso   1.00
C110   C     0.49861   0.28900   0.58248   0.00000  Uiso   1.00
C111   C     0.28900   0.49861   0.41752   0.00000  Uiso   1.00
C112   C     0.21100   0.49861   0.58248   0.00000  Uiso   1.00
C113   C     0.25139   0.03900   0.91752   0.00000  Uiso   1.00
C114   C     0.00000   0.25000   0.85573   0.00000  Uiso   1.00
C115   C     0.25139   0.46100   0.08248   0.00000  Uiso   1.00
C116   C     0.46100   0.25139   0.91752   0.00000  Uiso   1.00
C117   C     0.03900   0.25139   0.08248   0.00000  Uiso   1.00
C118   C     0.24861   0.46100   0.91752   0.00000  Uiso   1.00
C119   C     0.24860   0.03900   0.08248   0.00000  Uiso   1.00
C120   C     0.03900   0.24861   0.91752   0.00000  Uiso   1.00
C121   C     0.46100   0.24861   0.08248   0.00000  Uiso   1.00
C122   C     0.00000   0.25000   0.39763   0.00000  Uiso   1.00
C123   C    -0.00000   0.25000   0.60237   0.00000  Uiso   1.00
C124   C     0.25000   0.00000   0.39763   0.00000  Uiso   1.00
C125   C     0.00000   0.25000   0.14427   0.00000  Uiso   1.00
C126   C     0.25000   0.00000   0.60237   0.00000  Uiso   1.00
C127   C     0.25000   0.00000   0.89763   0.00000  Uiso   1.00
C128   C     0.25000   0.00000   0.10237   0.00000  Uiso   1.00
C129   C     0.00000   0.25000   0.89763   0.00000  Uiso   1.00
C130   C     0.00000   0.25000   0.10237   0.00000  Uiso   1.00
C131   C     0.49894   0.21122   0.45865   0.00000  Uiso   1.00
C132   C     0.49894   0.28878   0.54135   0.00000  Uiso   1.00
C133   C     0.28878   0.49894   0.45865   0.00000  Uiso   1.00
C134   C     0.21122   0.49894   0.54135   0.00000  Uiso   1.00
C135   C     0.00106   0.28878   0.45865   0.00000  Uiso   1.00
C136   C     0.25000   0.00000   0.85573   0.00000  Uiso   1.00
C137   C     0.00106   0.21122   0.54135   0.00000  Uiso   1.00
C138   C     0.21122   0.00106   0.45865   0.00000  Uiso   1.00
C139   C     0.28878   0.00106   0.54135   0.00000  Uiso   1.00
C140   C     0.24894   0.46122   0.95865   0.00000  Uiso   1.00
C141   C     0.24894   0.03878   0.04135   0.00000  Uiso   1.00
C142   C     0.03878   0.24894   0.95865   0.00000  Uiso   1.00
C143   C     0.46122   0.24894   0.04135   0.00000  Uiso   1.00
C144   C     0.25106   0.03878   0.95865   0.00000  Uiso   1.00
C145   C     0.25106   0.46122   0.04135   0.00000  Uiso   1.00
C146   C     0.46122   0.25106   0.95865   0.00000  Uiso   1.00
C147   C     0.25000   0.00000   0.14427   0.00000  Uiso   1.00
C148   C     0.03878   0.25106   0.04135   0.00000  Uiso   1.00
C149   C     0.00000   0.25000   0.47928   0.00000  Uiso   1.00
C150   C    -0.00000   0.25000   0.52072   0.00000  Uiso   1.00
C151   C     0.25000   0.00000   0.47928   0.00000  Uiso   1.00
C152   C     0.25000   0.00000   0.52072   0.00000  Uiso   1.00
C153   C     0.25000   0.00000   0.97928   0.00000  Uiso   1.00
C154   C     0.25000   0.00000   0.02072   0.00000  Uiso   1.00
C155   C     0.00000   0.25000   0.97928   0.00000  Uiso   1.00
C156   C     0.00000   0.25000   0.02072   0.00000  Uiso   1.00
C157   C     0.49798   0.17312   0.47975   0.00000  Uiso   1.00
C158   C     0.16999   0.08001   0.25000   0.00000  Uiso   1.00
C159   C     0.49798   0.32689   0.52025   0.00000  Uiso   1.00
C160   C     0.32689   0.49797   0.47975   0.00000  Uiso   1.00
C161   C     0.17311   0.49798   0.52025   0.00000  Uiso   1.00
C162   C     0.00202   0.32689   0.47975   0.00000  Uiso   1.00
C163   C     0.00202   0.17312   0.52025   0.00000  Uiso   1.00
C164   C     0.17311   0.00203   0.47975   0.00000  Uiso   1.00
C165   C     0.32689   0.00202   0.52025   0.00000  Uiso   1.00
C166   C     0.24798   0.42312   0.97975   0.00000  Uiso   1.00
C167   C     0.24797   0.07689   0.02025   0.00000  Uiso   1.00
C168   C     0.07689   0.24798   0.97975   0.00000  Uiso   1.00
H169   H     0.01294   0.32432   0.34015   0.00000  Uiso   1.00
H170   H     0.00624   0.10047   0.63353   0.00000  Uiso   1.00
H171   H     0.06652   0.47483   0.57538   0.00000  Uiso   1.00
H172   H     0.06548   0.36602   0.44391   0.00000  Uiso   1.00
H173   H     0.05705   0.38083   0.49346   0.00000  Uiso   1.00
H174   H     0.02319   0.44656   0.47439   0.00000  Uiso   1.00
H175   H     0.07358   0.44240   0.45048   0.00000  Uiso   1.00
H176   H     0.02517   0.43348   0.42462   0.00000  Uiso   1.00
H177   H     0.06547   0.13398   0.55608   0.00000  Uiso   1.00
H178   H     0.05705   0.11917   0.50654   0.00000  Uiso   1.00
H179   H     0.02319   0.05344   0.52561   0.00000  Uiso   1.00
H180   H     0.07358   0.05760   0.54953   0.00000  Uiso   1.00
H181   H     0.17568   0.01295   0.34015   0.00000  Uiso   1.00
H182   H     0.02516   0.06652   0.57538   0.00000  Uiso   1.00
H183   H     0.13398   0.06548   0.44392   0.00000  Uiso   1.00
H184   H     0.11917   0.05705   0.49347   0.00000  Uiso   1.00
H185   H     0.05344   0.02319   0.47438   0.00000  Uiso   1.00
H186   H     0.05760   0.07358   0.45048   0.00000  Uiso   1.00
H187   H     0.06652   0.02517   0.42461   0.00000  Uiso   1.00
H188   H     0.36602   0.06548   0.55609   0.00000  Uiso   1.00
H189   H     0.38082   0.05705   0.50654   0.00000  Uiso   1.00
H190   H     0.44656   0.02319   0.52561   0.00000  Uiso   1.00
H191   H     0.44239   0.07358   0.54952   0.00000  Uiso   1.00
H192   H     0.18198   0.05707   0.37381   0.00000  Uiso   1.00
H193   H     0.43348   0.02517   0.57538   0.00000  Uiso   1.00
H194   H     0.18453   0.38398   0.94391   0.00000  Uiso   1.00
H195   H     0.19295   0.36918   0.99346   0.00000  Uiso   1.00
H196   H     0.22681   0.30344   0.97439   0.00000  Uiso   1.00
H197   H     0.17642   0.30761   0.95048   0.00000  Uiso   1.00
H198   H     0.22483   0.31652   0.92462   0.00000  Uiso   1.00
H199   H     0.18452   0.11602   0.05608   0.00000  Uiso   1.00
H200   H     0.19295   0.13083   0.00653   0.00000  Uiso   1.00
H201   H     0.22681   0.19656   0.02562   0.00000  Uiso   1.00
H202   H     0.17642   0.19240   0.04952   0.00000  Uiso   1.00
H203   H     0.10838   0.06060   0.38195   0.00000  Uiso   1.00
H204   H     0.22484   0.18348   0.07538   0.00000  Uiso   1.00
H205   H     0.11602   0.18453   0.94391   0.00000  Uiso   1.00
H206   H     0.13083   0.19295   0.99346   0.00000  Uiso   1.00
H207   H     0.19656   0.22681   0.97439   0.00000  Uiso   1.00
H208   H     0.19240   0.17642   0.95047   0.00000  Uiso   1.00
H209   H     0.18348   0.22484   0.92462   0.00000  Uiso   1.00
H210   H     0.38398   0.18452   0.05608   0.00000  Uiso   1.00
H211   H     0.36917   0.19295   0.00654   0.00000  Uiso   1.00
H212   H     0.30344   0.22681   0.02561   0.00000  Uiso   1.00
H213   H     0.30760   0.17642   0.04952   0.00000  Uiso   1.00
H214   H     0.11369   0.04689   0.33229   0.00000  Uiso   1.00
H215   H     0.31652   0.22483   0.07538   0.00000  Uiso   1.00
H216   H     0.31547   0.11602   0.94391   0.00000  Uiso   1.00
H217   H     0.30705   0.13083   0.99346   0.00000  Uiso   1.00
H218   H     0.27319   0.19656   0.97439   0.00000  Uiso   1.00
H219   H     0.32358   0.19240   0.95048   0.00000  Uiso   1.00
H220   H     0.27517   0.18348   0.92462   0.00000  Uiso   1.00
H221   H     0.31548   0.38398   0.05608   0.00000  Uiso   1.00
H222   H     0.30705   0.36917   0.00653   0.00000  Uiso   1.00
H223   H     0.27319   0.30344   0.02561   0.00000  Uiso   1.00
H224   H     0.32358   0.30760   0.04952   0.00000  Uiso   1.00
H225   H     0.10047   0.00626   0.36646   0.00000  Uiso   1.00
H226   H     0.27516   0.31652   0.07538   0.00000  Uiso   1.00
H227   H     0.38398   0.31548   0.94392   0.00000  Uiso   1.00
H228   H     0.36917   0.30705   0.99346   0.00000  Uiso   1.00
H229   H     0.30344   0.27319   0.97439   0.00000  Uiso   1.00
H230   H     0.30760   0.32358   0.95047   0.00000  Uiso   1.00
H231   H     0.31652   0.27516   0.92462   0.00000  Uiso   1.00
H232   H     0.11602   0.31548   0.05609   0.00000  Uiso   1.00
H233   H     0.13083   0.30705   0.00654   0.00000  Uiso   1.00
H234   H     0.19656   0.27319   0.02561   0.00000  Uiso   1.00
H235   H     0.19240   0.32358   0.04952   0.00000  Uiso   1.00
H236   H     0.32432   0.01294   0.65985   0.00000  Uiso   1.00
H237   H     0.18348   0.27517   0.07538   0.00000  Uiso   1.00
H238   H     0.31803   0.05706   0.62619   0.00000  Uiso   1.00
H239   H     0.39163   0.06058   0.61806   0.00000  Uiso   1.00
H240   H     0.38632   0.04686   0.66771   0.00000  Uiso   1.00
H241   H     0.05707   0.31803   0.37381   0.00000  Uiso   1.00
H242   H     0.39953   0.00624   0.63353   0.00000  Uiso   1.00
H243   H     0.48706   0.17568   0.34015   0.00000  Uiso   1.00
H244   H     0.44294   0.18197   0.37381   0.00000  Uiso   1.00
H245   H     0.43941   0.10838   0.38194   0.00000  Uiso   1.00
H246   H     0.45313   0.11368   0.33229   0.00000  Uiso   1.00
H247   H     0.49376   0.10047   0.36647   0.00000  Uiso   1.00
H248   H     0.48706   0.32432   0.65985   0.00000  Uiso   1.00
H249   H     0.44293   0.31803   0.62619   0.00000  Uiso   1.00
H250   H     0.43941   0.39162   0.61806   0.00000  Uiso   1.00
H251   H     0.45312   0.38631   0.66771   0.00000  Uiso   1.00
H252   H     0.06059   0.39162   0.38194   0.00000  Uiso   1.00
H253   H     0.49375   0.39953   0.63353   0.00000  Uiso   1.00
H254   H     0.32432   0.48706   0.34015   0.00000  Uiso   1.00
H255   H     0.31803   0.44293   0.37381   0.00000  Uiso   1.00
H256   H     0.39162   0.43941   0.38194   0.00000  Uiso   1.00
H257   H     0.38631   0.45312   0.33229   0.00000  Uiso   1.00
H258   H     0.39953   0.49375   0.36647   0.00000  Uiso   1.00
H259   H     0.17568   0.48706   0.65984   0.00000  Uiso   1.00
H260   H     0.18197   0.44294   0.62619   0.00000  Uiso   1.00
H261   H     0.10837   0.43942   0.61806   0.00000  Uiso   1.00
H262   H     0.11368   0.45314   0.66771   0.00000  Uiso   1.00
H263   H     0.04687   0.38632   0.33229   0.00000  Uiso   1.00
H264   H     0.10047   0.49376   0.63353   0.00000  Uiso   1.00
H265   H     0.26294   0.07432   0.84015   0.00000  Uiso   1.00
H266   H     0.30706   0.06803   0.87381   0.00000  Uiso   1.00
H267   H     0.31058   0.14163   0.88194   0.00000  Uiso   1.00
H268   H     0.29686   0.13632   0.83229   0.00000  Uiso   1.00
H269   H     0.25624   0.14953   0.86647   0.00000  Uiso   1.00
H270   H     0.26295   0.42568   0.15984   0.00000  Uiso   1.00
H271   H     0.30707   0.43198   0.12619   0.00000  Uiso   1.00
H272   H     0.31059   0.35838   0.11805   0.00000  Uiso   1.00
H273   H     0.29688   0.36369   0.16771   0.00000  Uiso   1.00
H274   H     0.00624   0.39953   0.36647   0.00000  Uiso   1.00
H275   H     0.25625   0.35047   0.13353   0.00000  Uiso   1.00
H276   H     0.42568   0.26294   0.84015   0.00000  Uiso   1.00
H277   H     0.43197   0.30707   0.87381   0.00000  Uiso   1.00
H278   H     0.35838   0.31059   0.88194   0.00000  Uiso   1.00
H279   H     0.36369   0.29688   0.83229   0.00000  Uiso   1.00
H280   H     0.35047   0.25625   0.86647   0.00000  Uiso   1.00
H281   H     0.07432   0.26294   0.15985   0.00000  Uiso   1.00
H282   H     0.06803   0.30706   0.12619   0.00000  Uiso   1.00
H283   H     0.14162   0.31059   0.11806   0.00000  Uiso   1.00
H284   H     0.13632   0.29687   0.16771   0.00000  Uiso   1.00
H285   H     0.01294   0.17568   0.65984   0.00000  Uiso   1.00
H286   H     0.14953   0.25624   0.13353   0.00000  Uiso   1.00
H287   H     0.23706   0.42568   0.84015   0.00000  Uiso   1.00
H288   H     0.19294   0.43197   0.87381   0.00000  Uiso   1.00
H289   H     0.18942   0.35837   0.88194   0.00000  Uiso   1.00
H290   H     0.20314   0.36368   0.83229   0.00000  Uiso   1.00
H291   H     0.24376   0.35047   0.86647   0.00000  Uiso   1.00
H292   H     0.23705   0.07432   0.15985   0.00000  Uiso   1.00
H293   H     0.19293   0.06802   0.12619   0.00000  Uiso   1.00
H294   H     0.18940   0.14162   0.11805   0.00000  Uiso   1.00
H295   H     0.20311   0.13631   0.16771   0.00000  Uiso   1.00
H296   H     0.05707   0.18197   0.62619   0.00000  Uiso   1.00
H297   H     0.24374   0.14953   0.13354   0.00000  Uiso   1.00
H298   H     0.07432   0.23706   0.84015   0.00000  Uiso   1.00
H299   H     0.06803   0.19293   0.87381   0.00000  Uiso   1.00
H300   H     0.14163   0.18941   0.88194   0.00000  Uiso   1.00
H301   H     0.13632   0.20313   0.83229   0.00000  Uiso   1.00
H302   H     0.14953   0.24376   0.86647   0.00000  Uiso   1.00
H303   H     0.42568   0.23706   0.15984   0.00000  Uiso   1.00
H304   H     0.43197   0.19294   0.12619   0.00000  Uiso   1.00
H305   H     0.35838   0.18941   0.11806   0.00000  Uiso   1.00
H306   H     0.36368   0.20313   0.16771   0.00000  Uiso   1.00
H307   H     0.06059   0.10837   0.61806   0.00000  Uiso   1.00
H308   H     0.35047   0.24376   0.13353   0.00000  Uiso   1.00
H309   H     0.43452   0.13398   0.44391   0.00000  Uiso   1.00
H310   H     0.44295   0.11917   0.49346   0.00000  Uiso   1.00
H311   H     0.47681   0.05344   0.47439   0.00000  Uiso   1.00
H312   H     0.42642   0.05761   0.45048   0.00000  Uiso   1.00
H313   H     0.47483   0.06652   0.42462   0.00000  Uiso   1.00
H314   H     0.43452   0.36602   0.55608   0.00000  Uiso   1.00
H315   H     0.44295   0.38083   0.50654   0.00000  Uiso   1.00
H316   H     0.47681   0.44656   0.52561   0.00000  Uiso   1.00
H317   H     0.42642   0.44240   0.54953   0.00000  Uiso   1.00
H318   H     0.04687   0.11368   0.66771   0.00000  Uiso   1.00
H319   H     0.47484   0.43348   0.57538   0.00000  Uiso   1.00
H320   H     0.36602   0.43452   0.44392   0.00000  Uiso   1.00
H321   H     0.38083   0.44295   0.49346   0.00000  Uiso   1.00
H322   H     0.44656   0.47681   0.47439   0.00000  Uiso   1.00
H323   H     0.44240   0.42642   0.45047   0.00000  Uiso   1.00
H324   H     0.43348   0.47484   0.42462   0.00000  Uiso   1.00
H325   H     0.13398   0.43453   0.55609   0.00000  Uiso   1.00
H326   H     0.11918   0.44295   0.50654   0.00000  Uiso   1.00
H327   H     0.05344   0.47681   0.52561   0.00000  Uiso   1.00
H328   H     0.05761   0.42642   0.54952   0.00000  Uiso   1.00
O329   O     0.25000   0.00000   0.25000   0.00000  Uiso   1.00
O330   O     0.25000   0.46539   0.66251   0.00000  Uiso   1.00
O331   O     0.46539   0.25000   0.33749   0.00000  Uiso   1.00
O332   O     0.03462   0.25000   0.66251   0.00000  Uiso   1.00
O333   O     0.00000   0.21539   0.83749   0.00000  Uiso   1.00
O334   O     0.00000   0.28462   0.16251   0.00000  Uiso   1.00
O335   O     0.28462   0.00000   0.83749   0.00000  Uiso   1.00
O336   O     0.21539   0.00000   0.16251   0.00000  Uiso   1.00
O337   O     0.00000   0.28462   0.83749   0.00000  Uiso   1.00
O338   O     0.00000   0.21539   0.16251   0.00000  Uiso   1.00
O339   O     0.21539   0.00000   0.83749   0.00000  Uiso   1.00
O340   O     0.25000   0.00000   0.75000   0.00000  Uiso   1.00
O341   O     0.28462   0.00000   0.16251   0.00000  Uiso   1.00
O342   O     0.20127   0.08332   0.27298   0.00000  Uiso   1.00
O343   O     0.29874   0.41668   0.72702   0.00000  Uiso   1.00
O344   O     0.41668   0.20127   0.27298   0.00000  Uiso   1.00
O345   O     0.08332   0.29874   0.72702   0.00000  Uiso   1.00
O346   O     0.29874   0.41668   0.27298   0.00000  Uiso   1.00
O347   O     0.20127   0.08332   0.72702   0.00000  Uiso   1.00
O348   O     0.08332   0.29874   0.27298   0.00000  Uiso   1.00
O349   O     0.41668   0.20127   0.72702   0.00000  Uiso   1.00
O350   O     0.20127   0.41668   0.72702   0.00000  Uiso   1.00
O351   O     0.00000   0.25000   0.25000   0.00000  Uiso   1.00
O352   O     0.29874   0.08332   0.27298   0.00000  Uiso   1.00
O353   O     0.41668   0.29874   0.72702   0.00000  Uiso   1.00
O354   O     0.08332   0.20127   0.27298   0.00000  Uiso   1.00
O355   O     0.29874   0.08332   0.72702   0.00000  Uiso   1.00
O356   O     0.20127   0.41668   0.27298   0.00000  Uiso   1.00
O357   O     0.08332   0.20127   0.72702   0.00000  Uiso   1.00
O358   O     0.41668   0.29874   0.27298   0.00000  Uiso   1.00
O359   O     0.45127   0.33332   0.77298   0.00000  Uiso   1.00
O360   O     0.04874   0.16668   0.22702   0.00000  Uiso   1.00
O361   O     0.16668   0.45127   0.77298   0.00000  Uiso   1.00
O362   O     0.00000   0.25000   0.75000   0.00000  Uiso   1.00
O363   O     0.33332   0.04874   0.22702   0.00000  Uiso   1.00
O364   O     0.04874   0.16668   0.77298   0.00000  Uiso   1.00
O365   O     0.45127   0.33332   0.22702   0.00000  Uiso   1.00
O366   O     0.33332   0.04874   0.77298   0.00000  Uiso   1.00
O367   O     0.16668   0.45127   0.22702   0.00000  Uiso   1.00
O368   O     0.45127   0.16668   0.22702   0.00000  Uiso   1.00
O369   O     0.04874   0.33332   0.77298   0.00000  Uiso   1.00
O370   O     0.16668   0.04874   0.22702   0.00000  Uiso   1.00
O371   O     0.33332   0.45127   0.77298   0.00000  Uiso   1.00
O372   O     0.04874   0.33332   0.22702   0.00000  Uiso   1.00
O373   O     0.25000   0.46539   0.33749   0.00000  Uiso   1.00
O374   O     0.45127   0.16668   0.77298   0.00000  Uiso   1.00
O375   O     0.33332   0.45127   0.22702   0.00000  Uiso   1.00
O376   O     0.16668   0.04874   0.77298   0.00000  Uiso   1.00
O377   O     0.49665   0.32755   0.39805   0.00000  Uiso   1.00
O378   O     0.49665   0.17245   0.60195   0.00000  Uiso   1.00
O379   O     0.17245   0.49666   0.39805   0.00000  Uiso   1.00
O380   O     0.32755   0.49665   0.60195   0.00000  Uiso   1.00
O381   O     0.00335   0.17245   0.39805   0.00000  Uiso   1.00
O382   O     0.00335   0.32755   0.60195   0.00000  Uiso   1.00
O383   O     0.32755   0.00335   0.39805   0.00000  Uiso   1.00
O384   O     0.25000   0.03462   0.66251   0.00000  Uiso   1.00
O385   O     0.17245   0.00335   0.60195   0.00000  Uiso   1.00
O386   O     0.24665   0.07755   0.89805   0.00000  Uiso   1.00
O387   O     0.24665   0.42245   0.10195   0.00000  Uiso   1.00
O388   O     0.42245   0.24665   0.89805   0.00000  Uiso   1.00
O389   O     0.07755   0.24665   0.10195   0.00000  Uiso   1.00
O390   O     0.25335   0.42245   0.89805   0.00000  Uiso   1.00
O391   O     0.25334   0.07755   0.10195   0.00000  Uiso   1.00
O392   O     0.07755   0.25335   0.89805   0.00000  Uiso   1.00
O393   O     0.42245   0.25335   0.10195   0.00000  Uiso   1.00
O394   O     0.49696   0.13472   0.46092   0.00000  Uiso   1.00
O395   O     0.03462   0.25000   0.33749   0.00000  Uiso   1.00
O396   O     0.49697   0.36528   0.53908   0.00000  Uiso   1.00
O397   O     0.36528   0.49697   0.46092   0.00000  Uiso   1.00
O398   O     0.13472   0.49697   0.53908   0.00000  Uiso   1.00
O399   O     0.00304   0.36528   0.46092   0.00000  Uiso   1.00
O400   O     0.00303   0.13472   0.53908   0.00000  Uiso   1.00
O401   O     0.13472   0.00304   0.46092   0.00000  Uiso   1.00
O402   O     0.36528   0.00304   0.53908   0.00000  Uiso   1.00
O403   O     0.24697   0.38472   0.96092   0.00000  Uiso   1.00
O404   O     0.24696   0.11528   0.03908   0.00000  Uiso   1.00
O405   O     0.11528   0.24697   0.96092   0.00000  Uiso   1.00
O406   O     0.46539   0.25000   0.66251   0.00000  Uiso   1.00
O407   O     0.38472   0.24697   0.03908   0.00000  Uiso   1.00
O408   O     0.25303   0.11528   0.96092   0.00000  Uiso   1.00
O409   O     0.25304   0.38472   0.03907   0.00000  Uiso   1.00
O410   O     0.38472   0.25303   0.96092   0.00000  Uiso   1.00
O411   O     0.11528   0.25304   0.03908   0.00000  Uiso   1.00
O412   O     0.25000   0.03462   0.33749   0.00000  Uiso   1.00
Zn413  Zn    0.20053   0.00000   0.21730   0.00000  Uiso   1.00
Zn414  Zn    0.04948   0.25000   0.28270   0.00000  Uiso   1.00
Zn415  Zn    0.25000   0.45053   0.71730   0.00000  Uiso   1.00
Zn416  Zn    0.25000   0.04948   0.28270   0.00000  Uiso   1.00
Zn417  Zn    0.04948   0.25000   0.71730   0.00000  Uiso   1.00
Zn418  Zn    0.45053   0.25000   0.28270   0.00000  Uiso   1.00
Zn419  Zn    0.25000   0.04948   0.71730   0.00000  Uiso   1.00
Zn420  Zn    0.25000   0.45053   0.28270   0.00000  Uiso   1.00
Zn421  Zn    0.29948   0.00000   0.78270   0.00000  Uiso   1.00
Zn422  Zn    0.00000   0.20053   0.21730   0.00000  Uiso   1.00
Zn423  Zn    0.00000   0.29948   0.78270   0.00000  Uiso   1.00
Zn424  Zn    0.29948   0.00000   0.21730   0.00000  Uiso   1.00
Zn425  Zn    0.20053   0.00000   0.78270   0.00000  Uiso   1.00
Zn426  Zn    0.00000   0.29948   0.21730   0.00000  Uiso   1.00
Zn427  Zn    0.00000   0.20053   0.78270   0.00000  Uiso   1.00
Zn428  Zn    0.45053   0.25000   0.71730   0.00000  Uiso   1.00
C429   C     0.75000   0.00000   0.35573   0.00000  Uiso   1.00
C430   C     0.83002   0.41998   0.75000   0.00000  Uiso   1.00
C431   C     0.92311   0.24798   0.02025   0.00000  Uiso   1.00
C432   C     0.75202   0.07689   0.97975   0.00000  Uiso   1.00
C433   C     0.75203   0.42312   0.02024   0.00000  Uiso   1.00
C434   C     0.92311   0.25203   0.97975   0.00000  Uiso   1.00
C435   C     0.57689   0.25203   0.02025   0.00000  Uiso   1.00
C436   C     0.52666   0.33431   0.36819   0.00000  Uiso   1.00
C437   C     0.53537   0.38088   0.36227   0.00000  Uiso   1.00
C438   C     0.52666   0.16569   0.63181   0.00000  Uiso   1.00
C439   C     0.53537   0.11912   0.63773   0.00000  Uiso   1.00
C440   C     0.66570   0.02667   0.36819   0.00000  Uiso   1.00
C441   C     0.91999   0.16999   0.25000   0.00000  Uiso   1.00
C442   C     0.61912   0.03539   0.36227   0.00000  Uiso   1.00
C443   C     0.83431   0.02665   0.63181   0.00000  Uiso   1.00
C444   C     0.88088   0.03537   0.63773   0.00000  Uiso   1.00
C445   C     0.97334   0.16569   0.36819   0.00000  Uiso   1.00
C446   C     0.96463   0.11912   0.36227   0.00000  Uiso   1.00
C447   C     0.97334   0.33431   0.63181   0.00000  Uiso   1.00
C448   C     0.96462   0.38088   0.63773   0.00000  Uiso   1.00
C449   C     0.83431   0.47334   0.36819   0.00000  Uiso   1.00
C450   C     0.88088   0.46462   0.36227   0.00000  Uiso   1.00
C451   C     0.66569   0.47335   0.63181   0.00000  Uiso   1.00
C452   C     0.58002   0.33002   0.75000   0.00000  Uiso   1.00
C453   C     0.61912   0.46463   0.63773   0.00000  Uiso   1.00
C454   C     0.77665   0.08431   0.86819   0.00000  Uiso   1.00
C455   C     0.78537   0.13088   0.86227   0.00000  Uiso   1.00
C456   C     0.77666   0.41569   0.13181   0.00000  Uiso   1.00
C457   C     0.78538   0.36912   0.13773   0.00000  Uiso   1.00
C458   C     0.91569   0.27666   0.86819   0.00000  Uiso   1.00
C459   C     0.86912   0.28538   0.86227   0.00000  Uiso   1.00
C460   C     0.58431   0.27666   0.13181   0.00000  Uiso   1.00
C461   C     0.63088   0.28537   0.13773   0.00000  Uiso   1.00
C462   C     0.72335   0.41569   0.86819   0.00000  Uiso   1.00
C463   C     0.83001   0.41999   0.25000   0.00000  Uiso   1.00
C464   C     0.71463   0.36912   0.86227   0.00000  Uiso   1.00
C465   C     0.72333   0.08430   0.13181   0.00000  Uiso   1.00
C466   C     0.71462   0.13088   0.13773   0.00000  Uiso   1.00
C467   C     0.58431   0.22334   0.86819   0.00000  Uiso   1.00
C468   C     0.63088   0.21463   0.86227   0.00000  Uiso   1.00
C469   C     0.91569   0.22334   0.13181   0.00000  Uiso   1.00
C470   C     0.86912   0.21463   0.13773   0.00000  Uiso   1.00
C471   C     0.95630   0.11722   0.46373   0.00000  Uiso   1.00
C472   C     0.95850   0.07096   0.45258   0.00000  Uiso   1.00
C473   C     0.95630   0.38279   0.53626   0.00000  Uiso   1.00
C474   C     0.66998   0.08002   0.75000   0.00000  Uiso   1.00
C475   C     0.95851   0.42904   0.54742   0.00000  Uiso   1.00
C476   C     0.88279   0.45630   0.46374   0.00000  Uiso   1.00
C477   C     0.92904   0.45850   0.45258   0.00000  Uiso   1.00
C478   C     0.61722   0.45630   0.53626   0.00000  Uiso   1.00
C479   C     0.57096   0.45850   0.54742   0.00000  Uiso   1.00
C480   C     0.54370   0.38279   0.46374   0.00000  Uiso   1.00
C481   C     0.54150   0.42904   0.45258   0.00000  Uiso   1.00
C482   C     0.54370   0.11721   0.53626   0.00000  Uiso   1.00
C483   C     0.54149   0.07096   0.54742   0.00000  Uiso   1.00
C484   C     0.61721   0.04370   0.46374   0.00000  Uiso   1.00
C485   C     0.58001   0.33001   0.25000   0.00000  Uiso   1.00
C486   C     0.57096   0.04150   0.45258   0.00000  Uiso   1.00
C487   C     0.88278   0.04370   0.53626   0.00000  Uiso   1.00
C488   C     0.92904   0.04150   0.54742   0.00000  Uiso   1.00
C489   C     0.70630   0.36722   0.96373   0.00000  Uiso   1.00
C490   C     0.70850   0.32096   0.95258   0.00000  Uiso   1.00
C491   C     0.70630   0.13279   0.03626   0.00000  Uiso   1.00
C492   C     0.70851   0.17904   0.04742   0.00000  Uiso   1.00
C493   C     0.63279   0.20630   0.96374   0.00000  Uiso   1.00
C494   C     0.67904   0.20851   0.95258   0.00000  Uiso   1.00
C495   C     0.86722   0.20630   0.03626   0.00000  Uiso   1.00
C496   C     0.91998   0.16998   0.75000   0.00000  Uiso   1.00
C497   C     0.82096   0.20850   0.04742   0.00000  Uiso   1.00
C498   C     0.79370   0.13278   0.96373   0.00000  Uiso   1.00
C499   C     0.79150   0.17904   0.95258   0.00000  Uiso   1.00
C500   C     0.79370   0.36721   0.03626   0.00000  Uiso   1.00
C501   C     0.79150   0.32096   0.04742   0.00000  Uiso   1.00
C502   C     0.86721   0.29370   0.96374   0.00000  Uiso   1.00
C503   C     0.82096   0.29149   0.95258   0.00000  Uiso   1.00
C504   C     0.63278   0.29370   0.03626   0.00000  Uiso   1.00
C505   C     0.67904   0.29150   0.04742   0.00000  Uiso   1.00
C506   C     0.66999   0.41999   0.75000   0.00000  Uiso   1.00
C507   C     0.83002   0.08002   0.25000   0.00000  Uiso   1.00
C508   C     0.91999   0.33001   0.75000   0.00000  Uiso   1.00
C509   C     0.75000   0.00000   0.64427   0.00000  Uiso   1.00
C510   C     0.58002   0.16998   0.25000   0.00000  Uiso   1.00
C511   C     0.83001   0.08001   0.75000   0.00000  Uiso   1.00
C512   C     0.66998   0.41998   0.25000   0.00000  Uiso   1.00
C513   C     0.58001   0.16999   0.75000   0.00000  Uiso   1.00
C514   C     0.91998   0.33002   0.25000   0.00000  Uiso   1.00
C515   C     0.63832   0.38832   0.25000   0.00000  Uiso   1.00
C516   C     0.86167   0.11167   0.75000   0.00000  Uiso   1.00
C517   C     0.61168   0.13832   0.25000   0.00000  Uiso   1.00
C518   C     0.88833   0.36167   0.75000   0.00000  Uiso   1.00
C519   C     0.86168   0.11168   0.25000   0.00000  Uiso   1.00
C520   C     0.50000   0.25000   0.35573   0.00000  Uiso   1.00
C521   C     0.63833   0.38833   0.75000   0.00000  Uiso   1.00
C522   C     0.88832   0.36168   0.25000   0.00000  Uiso   1.00
C523   C     0.61167   0.13833   0.75000   0.00000  Uiso   1.00
C524   C     0.63832   0.11168   0.75000   0.00000  Uiso   1.00
C525   C     0.86167   0.38833   0.25000   0.00000  Uiso   1.00
C526   C     0.61168   0.36168   0.75000   0.00000  Uiso   1.00
C527   C     0.88833   0.13833   0.25000   0.00000  Uiso   1.00
C528   C     0.86168   0.38832   0.75000   0.00000  Uiso   1.00
C529   C     0.63833   0.11167   0.25000   0.00000  Uiso   1.00
C530   C     0.88832   0.13832   0.75000   0.00000  Uiso   1.00
C531   C     0.50000   0.25000   0.64427   0.00000  Uiso   1.00
C532   C     0.61167   0.36167   0.25000   0.00000  Uiso   1.00
C533   C     0.50139   0.28900   0.41752   0.00000  Uiso   1.00
C534   C     0.50139   0.21100   0.58248   0.00000  Uiso   1.00
C535   C     0.71100   0.00140   0.41752   0.00000  Uiso   1.00
C536   C     0.78900   0.00139   0.58248   0.00000  Uiso   1.00
C537   C     0.99861   0.21100   0.41752   0.00000  Uiso   1.00
C538   C     0.99861   0.28900   0.58248   0.00000  Uiso   1.00
C539   C     0.78900   0.49861   0.41752   0.00000  Uiso   1.00
C540   C     0.71100   0.49861   0.58248   0.00000  Uiso   1.00
C541   C     0.75139   0.03900   0.91752   0.00000  Uiso   1.00
C542   C     0.50000   0.25000   0.85573   0.00000  Uiso   1.00
C543   C     0.75139   0.46100   0.08248   0.00000  Uiso   1.00
C544   C     0.96100   0.25139   0.91752   0.00000  Uiso   1.00
C545   C     0.53900   0.25139   0.08248   0.00000  Uiso   1.00
C546   C     0.74861   0.46100   0.91752   0.00000  Uiso   1.00
C547   C     0.74860   0.03900   0.08248   0.00000  Uiso   1.00
C548   C     0.53900   0.24861   0.91752   0.00000  Uiso   1.00
C549   C     0.96100   0.24861   0.08248   0.00000  Uiso   1.00
C550   C     0.50000   0.25000   0.39763   0.00000  Uiso   1.00
C551   C     0.50000   0.25000   0.60237   0.00000  Uiso   1.00
C552   C     0.75000   0.00000   0.39763   0.00000  Uiso   1.00
C553   C     0.50000   0.25000   0.14427   0.00000  Uiso   1.00
C554   C     0.75000   0.00000   0.60237   0.00000  Uiso   1.00
C555   C     0.75000   0.00000   0.89763   0.00000  Uiso   1.00
C556   C     0.75000   0.00000   0.10237   0.00000  Uiso   1.00
C557   C     0.50000   0.25000   0.89763   0.00000  Uiso   1.00
C558   C     0.50000   0.25000   0.10237   0.00000  Uiso   1.00
C559   C     0.99894   0.21122   0.45865   0.00000  Uiso   1.00
C560   C     0.99894   0.28878   0.54135   0.00000  Uiso   1.00
C561   C     0.78878   0.49894   0.45865   0.00000  Uiso   1.00
C562   C     0.71122   0.49894   0.54135   0.00000  Uiso   1.00
C563   C     0.50106   0.28878   0.45865   0.00000  Uiso   1.00
C564   C     0.75000   0.00000   0.85573   0.00000  Uiso   1.00
C565   C     0.50106   0.21122   0.54135   0.00000  Uiso   1.00
C566   C     0.71122   0.00106   0.45865   0.00000  Uiso   1.00
C567   C     0.78878   0.00106   0.54135   0.00000  Uiso   1.00
C568   C     0.74894   0.46122   0.95865   0.00000  Uiso   1.00
C569   C     0.74894   0.03878   0.04135   0.00000  Uiso   1.00
C570   C     0.53878   0.24894   0.95865   0.00000  Uiso   1.00
C571   C     0.96122   0.24894   0.04135   0.00000  Uiso   1.00
C572   C     0.75106   0.03878   0.95865   0.00000  Uiso   1.00
C573   C     0.75106   0.46122   0.04135   0.00000  Uiso   1.00
C574   C     0.96122   0.25106   0.95865   0.00000  Uiso   1.00
C575   C     0.75000   0.00000   0.14427   0.00000  Uiso   1.00
C576   C     0.53878   0.25106   0.04135   0.00000  Uiso   1.00
C577   C     0.50000   0.25000   0.47928   0.00000  Uiso   1.00
C578   C     0.50000   0.25000   0.52072   0.00000  Uiso   1.00
C579   C     0.75000   0.00000   0.47928   0.00000  Uiso   1.00
C580   C     0.75000   0.00000   0.52072   0.00000  Uiso   1.00
C581   C     0.75000   0.00000   0.97928   0.00000  Uiso   1.00
C582   C     0.75000   0.00000   0.02072   0.00000  Uiso   1.00
C583   C     0.50000   0.25000   0.97928   0.00000  Uiso   1.00
C584   C     0.50000   0.25000   0.02072   0.00000  Uiso   1.00
C585   C     0.99798   0.17312   0.47975   0.00000  Uiso   1.00
C586   C     0.66999   0.08001   0.25000   0.00000  Uiso   1.00
C587   C     0.99798   0.32689   0.52025   0.00000  Uiso   1.00
C588   C     0.82689   0.49797   0.47975   0.00000  Uiso   1.00
C589   C     0.67311   0.49798   0.52025   0.00000  Uiso   1.00
C590   C     0.50202   0.32689   0.47975   0.00000  Uiso   1.00
C591   C     0.50202   0.17312   0.52025   0.00000  Uiso   1.00
C592   C     0.67311   0.00203   0.47975   0.00000  Uiso   1.00
C593   C     0.82689   0.00202   0.52025   0.00000  Uiso   1.00
C594   C     0.74798   0.42312   0.97975   0.00000  Uiso   1.00
C595   C     0.74797   0.07689   0.02025   0.00000  Uiso   1.00
C596   C     0.57689   0.24798   0.97975   0.00000  Uiso   1.00
H597   H     0.51294   0.32432   0.34015   0.00000  Uiso   1.00
H598   H     0.50624   0.10047   0.63353   0.00000  Uiso   1.00
H599   H     0.56652   0.47483   0.57538   0.00000  Uiso   1.00
H600   H     0.56548   0.36602   0.44391   0.00000  Uiso   1.00
H601   H     0.55705   0.38083   0.49346   0.00000  Uiso   1.00
H602   H     0.52319   0.44656   0.47439   0.00000  Uiso   1.00
H603   H     0.57358   0.44240   0.45048   0.00000  Uiso   1.00
H604   H     0.52517   0.43348   0.42462   0.00000  Uiso   1.00
H605   H     0.56547   0.13398   0.55608   0.00000  Uiso   1.00
H606   H     0.55705   0.11917   0.50654   0.00000  Uiso   1.00
H607   H     0.52319   0.05344   0.52561   0.00000  Uiso   1.00
H608   H     0.57358   0.05760   0.54953   0.00000  Uiso   1.00
H609   H     0.67568   0.01295   0.34015   0.00000  Uiso   1.00
H610   H     0.52516   0.06652   0.57538   0.00000  Uiso   1.00
H611   H     0.63398   0.06548   0.44392   0.00000  Uiso   1.00
H612   H     0.61917   0.05705   0.49347   0.00000  Uiso   1.00
H613   H     0.55344   0.02319   0.47438   0.00000  Uiso   1.00
H614   H     0.55760   0.07358   0.45048   0.00000  Uiso   1.00
H615   H     0.56652   0.02517   0.42461   0.00000  Uiso   1.00
H616   H     0.86602   0.06548   0.55609   0.00000  Uiso   1.00
H617   H     0.88082   0.05705   0.50654   0.00000  Uiso   1.00
H618   H     0.94656   0.02319   0.52561   0.00000  Uiso   1.00
H619   H     0.94239   0.07358   0.54952   0.00000  Uiso   1.00
H620   H     0.68198   0.05707   0.37381   0.00000  Uiso   1.00
H621   H     0.93348   0.02517   0.57538   0.00000  Uiso   1.00
H622   H     0.68453   0.38398   0.94391   0.00000  Uiso   1.00
H623   H     0.69295   0.36918   0.99346   0.00000  Uiso   1.00
H624   H     0.72681   0.30344   0.97439   0.00000  Uiso   1.00
H625   H     0.67642   0.30761   0.95048   0.00000  Uiso   1.00
H626   H     0.72483   0.31652   0.92462   0.00000  Uiso   1.00
H627   H     0.68452   0.11602   0.05608   0.00000  Uiso   1.00
H628   H     0.69295   0.13083   0.00653   0.00000  Uiso   1.00
H629   H     0.72681   0.19656   0.02562   0.00000  Uiso   1.00
H630   H     0.67642   0.19240   0.04952   0.00000  Uiso   1.00
H631   H     0.60838   0.06060   0.38195   0.00000  Uiso   1.00
H632   H     0.72484   0.18348   0.07538   0.00000  Uiso   1.00
H633   H     0.61602   0.18453   0.94391   0.00000  Uiso   1.00
H634   H     0.63083   0.19295   0.99346   0.00000  Uiso   1.00
H635   H     0.69656   0.22681   0.97439   0.00000  Uiso   1.00
H636   H     0.69240   0.17642   0.95047   0.00000  Uiso   1.00
H637   H     0.68348   0.22484   0.92462   0.00000  Uiso   1.00
H638   H     0.88398   0.18452   0.05608   0.00000  Uiso   1.00
H639   H     0.86917   0.19295   0.00654   0.00000  Uiso   1.00
H640   H     0.80344   0.22681   0.02561   0.00000  Uiso   1.00
H641   H     0.80760   0.17642   0.04952   0.00000  Uiso   1.00
H642   H     0.61369   0.04689   0.33229   0.00000  Uiso   1.00
H643   H     0.81652   0.22483   0.07538   0.00000  Uiso   1.00
H644   H     0.81547   0.11602   0.94391   0.00000  Uiso   1.00
H645   H     0.80705   0.13083   0.99346   0.00000  Uiso   1.00
H646   H     0.77319   0.19656   0.97439   0.00000  Uiso   1.00
H647   H     0.82358   0.19240   0.95048   0.00000  Uiso   1.00
H648   H     0.77517   0.18348   0.92462   0.00000  Uiso   1.00
H649   H     0.81548   0.38398   0.05608   0.00000  Uiso   1.00
H650   H     0.80705   0.36917   0.00653   0.00000  Uiso   1.00
H651   H     0.77319   0.30344   0.02561   0.00000  Uiso   1.00
H652   H     0.82358   0.30760   0.04952   0.00000  Uiso   1.00
H653   H     0.60047   0.00626   0.36646   0.00000  Uiso   1.00
H654   H     0.77516   0.31652   0.07538   0.00000  Uiso   1.00
H655   H     0.88398   0.31548   0.94392   0.00000  Uiso   1.00
H656   H     0.86917   0.30705   0.99346   0.00000  Uiso   1.00
H657   H     0.80344   0.27319   0.97439   0.00000  Uiso   1.00
H658   H     0.80760   0.32358   0.95047   0.00000  Uiso   1.00
H659   H     0.81652   0.27516   0.92462   0.00000  Uiso   1.00
H660   H     0.61602   0.31548   0.05609   0.00000  Uiso   1.00
H661   H     0.63083   0.30705   0.00654   0.00000  Uiso   1.00
H662   H     0.69656   0.27319   0.02561   0.00000  Uiso   1.00
H663   H     0.69240   0.32358   0.04952   0.00000  Uiso   1.00
H664   H     0.82432   0.01294   0.65985   0.00000  Uiso   1.00
H665   H     0.68348   0.27517   0.07538   0.00000  Uiso   1.00
H666   H     0.81803   0.05706   0.62619   0.00000  Uiso   1.00
H667   H     0.89163   0.06058   0.61806   0.00000  Uiso   1.00
H668   H     0.88632   0.04686   0.66771   0.00000  Uiso   1.00
H669   H     0.55707   0.31803   0.37381   0.00000  Uiso   1.00
H670   H     0.89953   0.00624   0.63353   0.00000  Uiso   1.00
H671   H     0.98706   0.17568   0.34015   0.00000  Uiso   1.00
H672   H     0.94294   0.18197   0.37381   0.00000  Uiso   1.00
H673   H     0.93941   0.10838   0.38194   0.00000  Uiso   1.00
H674   H     0.95313   0.11368   0.33229   0.00000  Uiso   1.00
H675   H     0.99376   0.10047   0.36647   0.00000  Uiso   1.00
H676   H     0.98706   0.32432   0.65985   0.00000  Uiso   1.00
H677   H     0.94293   0.31803   0.62619   0.00000  Uiso   1.00
H678   H     0.93941   0.39162   0.61806   0.00000  Uiso   1.00
H679   H     0.95312   0.38631   0.66771   0.00000  Uiso   1.00
H680   H     0.56059   0.39162   0.38194   0.00000  Uiso   1.00
H681   H     0.99375   0.39953   0.63353   0.00000  Uiso   1.00
H682   H     0.82432   0.48706   0.34015   0.00000  Uiso   1.00
H683   H     0.81803   0.44293   0.37381   0.00000  Uiso   1.00
H684   H     0.89162   0.43941   0.38194   0.00000  Uiso   1.00
H685   H     0.88631   0.45312   0.33229   0.00000  Uiso   1.00
H686   H     0.89953   0.49375   0.36647   0.00000  Uiso   1.00
H687   H     0.67568   0.48706   0.65984   0.00000  Uiso   1.00
H688   H     0.68197   0.44294   0.62619   0.00000  Uiso   1.00
H689   H     0.60837   0.43942   0.61806   0.00000  Uiso   1.00
H690   H     0.61368   0.45314   0.66771   0.00000  Uiso   1.00
H691   H     0.54687   0.38632   0.33229   0.00000  Uiso   1.00
H692   H     0.60047   0.49376   0.63353   0.00000  Uiso   1.00
H693   H     0.76294   0.07432   0.84015   0.00000  Uiso   1.00
H694   H     0.80706   0.06803   0.87381   0.00000  Uiso   1.00
H695   H     0.81058   0.14163   0.88194   0.00000  Uiso   1.00
H696   H     0.79686   0.13632   0.83229   0.00000  Uiso   1.00
H697   H     0.75624   0.14953   0.86647   0.00000  Uiso   1.00
H698   H     0.76295   0.42568   0.15984   0.00000  Uiso   1.00
H699   H     0.80707   0.43198   0.12619   0.00000  Uiso   1.00
H700   H     0.81059   0.35838   0.11805   0.00000  Uiso   1.00
H701   H     0.79688   0.36369   0.16771   0.00000  Uiso   1.00
H702   H     0.50624   0.39953   0.36647   0.00000  Uiso   1.00
H703   H     0.75625   0.35047   0.13353   0.00000  Uiso   1.00
H704   H     0.92568   0.26294   0.84015   0.00000  Uiso   1.00
H705   H     0.93197   0.30707   0.87381   0.00000  Uiso   1.00
H706   H     0.85838   0.31059   0.88194   0.00000  Uiso   1.00
H707   H     0.86369   0.29688   0.83229   0.00000  Uiso   1.00
H708   H     0.85047   0.25625   0.86647   0.00000  Uiso   1.00
H709   H     0.57432   0.26294   0.15985   0.00000  Uiso   1.00
H710   H     0.56803   0.30706   0.12619   0.00000  Uiso   1.00
H711   H     0.64162   0.31059   0.11806   0.00000  Uiso   1.00
H712   H     0.63632   0.29687   0.16771   0.00000  Uiso   1.00
H713   H     0.51294   0.17568   0.65984   0.00000  Uiso   1.00
H714   H     0.64953   0.25624   0.13353   0.00000  Uiso   1.00
H715   H     0.73706   0.42568   0.84015   0.00000  Uiso   1.00
H716   H     0.69294   0.43197   0.87381   0.00000  Uiso   1.00
H717   H     0.68942   0.35837   0.88194   0.00000  Uiso   1.00
H718   H     0.70314   0.36368   0.83229   0.00000  Uiso   1.00
H719   H     0.74376   0.35047   0.86647   0.00000  Uiso   1.00
H720   H     0.73705   0.07432   0.15985   0.00000  Uiso   1.00
H721   H     0.69293   0.06802   0.12619   0.00000  Uiso   1.00
H722   H     0.68940   0.14162   0.11805   0.00000  Uiso   1.00
H723   H     0.70311   0.13631   0.16771   0.00000  Uiso   1.00
H724   H     0.55707   0.18197   0.62619   0.00000  Uiso   1.00
H725   H     0.74374   0.14953   0.13354   0.00000  Uiso   1.00
H726   H     0.57432   0.23706   0.84015   0.00000  Uiso   1.00
H727   H     0.56803   0.19293   0.87381   0.00000  Uiso   1.00
H728   H     0.64163   0.18941   0.88194   0.00000  Uiso   1.00
H729   H     0.63632   0.20313   0.83229   0.00000  Uiso   1.00
H730   H     0.64953   0.24376   0.86647   0.00000  Uiso   1.00
H731   H     0.92568   0.23706   0.15984   0.00000  Uiso   1.00
H732   H     0.93197   0.19294   0.12619   0.00000  Uiso   1.00
H733   H     0.85838   0.18941   0.11806   0.00000  Uiso   1.00
H734   H     0.86368   0.20313   0.16771   0.00000  Uiso   1.00
H735   H     0.56059   0.10837   0.61806   0.00000  Uiso   1.00
H736   H     0.85047   0.24376   0.13353   0.00000  Uiso   1.00
H737   H     0.93452   0.13398   0.44391   0.00000  Uiso   1.00
H738   H     0.94295   0.11917   0.49346   0.00000  Uiso   1.00
H739   H     0.97681   0.05344   0.47439   0.00000  Uiso   1.00
H740   H     0.92642   0.05761   0.45048   0.00000  Uiso   1.00
H741   H     0.97483   0.06652   0.42462   0.00000  Uiso   1.00
H742   H     0.93452   0.36602   0.55608   0.00000  Uiso   1.00
H743   H     0.94295   0.38083   0.50654   0.00000  Uiso   1.00
H744   H     0.97681   0.44656   0.52561   0.00000  Uiso   1.00
H745   H     0.92642   0.44240   0.54953   0.00000  Uiso   1.00
H746   H     0.54687   0.11368   0.66771   0.00000  Uiso   1.00
H747   H     0.97484   0.43348   0.57538   0.00000  Uiso   1.00
H748   H     0.86602   0.43452   0.44392   0.00000  Uiso   1.00
H749   H     0.88083   0.44295   0.49346   0.00000  Uiso   1.00
H750   H     0.94656   0.47681   0.47439   0.00000  Uiso   1.00
H751   H     0.94240   0.42642   0.45047   0.00000  Uiso   1.00
H752   H     0.93348   0.47484   0.42462   0.00000  Uiso   1.00
H753   H     0.63398   0.43453   0.55609   0.00000  Uiso   1.00
H754   H     0.61918   0.44295   0.50654   0.00000  Uiso   1.00
H755   H     0.55344   0.47681   0.52561   0.00000  Uiso   1.00
H756   H     0.55761   0.42642   0.54952   0.00000  Uiso   1.00
O757   O     0.75000   0.00000   0.25000   0.00000  Uiso   1.00
O758   O     0.75000   0.46539   0.66251   0.00000  Uiso   1.00
O759   O     0.96539   0.25000   0.33749   0.00000  Uiso   1.00
O760   O     0.53462   0.25000   0.66251   0.00000  Uiso   1.00
O761   O     0.50000   0.21539   0.83749   0.00000  Uiso   1.00
O762   O     0.50000   0.28462   0.16251   0.00000  Uiso   1.00
O763   O     0.78462   0.00000   0.83749   0.00000  Uiso   1.00
O764   O     0.71539   0.00000   0.16251   0.00000  Uiso   1.00
O765   O     0.50000   0.28462   0.83749   0.00000  Uiso   1.00
O766   O     0.50000   0.21539   0.16251   0.00000  Uiso   1.00
O767   O     0.71539   0.00000   0.83749   0.00000  Uiso   1.00
O768   O     0.75000   0.00000   0.75000   0.00000  Uiso   1.00
O769   O     0.78462   0.00000   0.16251   0.00000  Uiso   1.00
O770   O     0.70127   0.08332   0.27298   0.00000  Uiso   1.00
O771   O     0.79874   0.41668   0.72702   0.00000  Uiso   1.00
O772   O     0.91668   0.20127   0.27298   0.00000  Uiso   1.00
O773   O     0.58332   0.29874   0.72702   0.00000  Uiso   1.00
O774   O     0.79874   0.41668   0.27298   0.00000  Uiso   1.00
O775   O     0.70127   0.08332   0.72702   0.00000  Uiso   1.00
O776   O     0.58332   0.29874   0.27298   0.00000  Uiso   1.00
O777   O     0.91668   0.20127   0.72702   0.00000  Uiso   1.00
O778   O     0.70127   0.41668   0.72702   0.00000  Uiso   1.00
O779   O     0.50000   0.25000   0.25000   0.00000  Uiso   1.00
O780   O     0.79874   0.08332   0.27298   0.00000  Uiso   1.00
O781   O     0.91668   0.29874   0.72702   0.00000  Uiso   1.00
O782   O     0.58332   0.20127   0.27298   0.00000  Uiso   1.00
O783   O     0.79874   0.08332   0.72702   0.00000  Uiso   1.00
O784   O     0.70127   0.41668   0.27298   0.00000  Uiso   1.00
O785   O     0.58332   0.20127   0.72702   0.00000  Uiso   1.00
O786   O     0.91668   0.29874   0.27298   0.00000  Uiso   1.00
O787   O     0.95127   0.33332   0.77298   0.00000  Uiso   1.00
O788   O     0.54874   0.16668   0.22702   0.00000  Uiso   1.00
O789   O     0.66668   0.45127   0.77298   0.00000  Uiso   1.00
O790   O     0.50000   0.25000   0.75000   0.00000  Uiso   1.00
O791   O     0.83332   0.04874   0.22702   0.00000  Uiso   1.00
O792   O     0.54874   0.16668   0.77298   0.00000  Uiso   1.00
O793   O     0.95127   0.33332   0.22702   0.00000  Uiso   1.00
O794   O     0.83332   0.04874   0.77298   0.00000  Uiso   1.00
O795   O     0.66668   0.45127   0.22702   0.00000  Uiso   1.00
O796   O     0.95127   0.16668   0.22702   0.00000  Uiso   1.00
O797   O     0.54874   0.33332   0.77298   0.00000  Uiso   1.00
O798   O     0.66668   0.04874   0.22702   0.00000  Uiso   1.00
O799   O     0.83332   0.45127   0.77298   0.00000  Uiso   1.00
O800   O     0.54874   0.33332   0.22702   0.00000  Uiso   1.00
O801   O     0.75000   0.46539   0.33749   0.00000  Uiso   1.00
O802   O     0.95127   0.16668   0.77298   0.00000  Uiso   1.00
O803   O     0.83332   0.45127   0.22702   0.00000  Uiso   1.00
O804   O     0.66668   0.04874   0.77298   0.00000  Uiso   1.00
O805   O     0.99665   0.32755   0.39805   0.00000  Uiso   1.00
O806   O     0.99665   0.17245   0.60195   0.00000  Uiso   1.00
O807   O     0.67245   0.49666   0.39805   0.00000  Uiso   1.00
O808   O     0.82755   0.49665   0.60195   0.00000  Uiso   1.00
O809   O     0.50335   0.17245   0.39805   0.00000  Uiso   1.00
O810   O     0.50335   0.32755   0.60195   0.00000  Uiso   1.00
O811   O     0.82755   0.00335   0.39805   0.00000  Uiso   1.00
O812   O     0.75000   0.03462   0.66251   0.00000  Uiso   1.00
O813   O     0.67245   0.00335   0.60195   0.00000  Uiso   1.00
O814   O     0.74665   0.07755   0.89805   0.00000  Uiso   1.00
O815   O     0.74665   0.42245   0.10195   0.00000  Uiso   1.00
O816   O     0.92245   0.24665   0.89805   0.00000  Uiso   1.00
O817   O     0.57755   0.24665   0.10195   0.00000  Uiso   1.00
O818   O     0.75335   0.42245   0.89805   0.00000  Uiso   1.00
O819   O     0.75334   0.07755   0.10195   0.00000  Uiso   1.00
O820   O     0.57755   0.25335   0.89805   0.00000  Uiso   1.00
O821   O     0.92245   0.25335   0.10195   0.00000  Uiso   1.00
O822   O     0.99696   0.13472   0.46092   0.00000  Uiso   1.00
O823   O     0.53462   0.25000   0.33749   0.00000  Uiso   1.00
O824   O     0.99697   0.36528   0.53908   0.00000  Uiso   1.00
O825   O     0.86528   0.49697   0.46092   0.00000  Uiso   1.00
O826   O     0.63472   0.49697   0.53908   0.00000  Uiso   1.00
O827   O     0.50304   0.36528   0.46092   0.00000  Uiso   1.00
O828   O     0.50303   0.13472   0.53908   0.00000  Uiso   1.00
O829   O     0.63472   0.00304   0.46092   0.00000  Uiso   1.00
O830   O     0.86528   0.00304   0.53908   0.00000  Uiso   1.00
O831   O     0.74697   0.38472   0.96092   0.00000  Uiso   1.00
O832   O     0.74696   0.11528   0.03908   0.00000  Uiso   1.00
O833   O     0.61528   0.24697   0.96092   0.00000  Uiso   1.00
O834   O     0.96539   0.25000   0.66251   0.00000  Uiso   1.00
O835   O     0.88472   0.24697   0.03908   0.00000  Uiso   1.00
O836   O     0.75303   0.11528   0.96092   0.00000  Uiso   1.00
O837   O     0.75304   0.38472   0.03907   0.00000  Uiso   1.00
O838   O     0.88472   0.25303   0.96092   0.00000  Uiso   1.00
O839   O     0.61528   0.25304   0.03908   0.00000  Uiso   1.00
O840   O     0.75000   0.03462   0.33749   0.00000  Uiso   1.00
Zn841  Zn    0.70053   0.00000   0.21730   0.00000  Uiso   1.00
Zn842  Zn    0.54948   0.25000   0.28270   0.00000  Uiso   1.00
Zn843  Zn    0.75000   0.45053   0.71730   0.00000  Uiso   1.00
Zn844  Zn    0.75000   0.04948   0.28270   0.00000  Uiso   1.00
Zn845  Zn    0.54948   0.25000   0.71730   0.00000  Uiso   1.00
Zn846  Zn    0.95053   0.25000   0.28270   0.00000  Uiso   1.00
Zn847  Zn    0.75000   0.04948   0.71730   0.00000  Uiso   1.00
Zn848  Zn    0.75000   0.45053   0.28270   0.00000  Uiso   1.00
Zn849  Zn    0.79948   0.00000   0.78270   0.00000  Uiso   1.00
Zn850  Zn    0.50000   0.20053   0.21730   0.00000  Uiso   1.00
Zn851  Zn    0.50000   0.29948   0.78270   0.00000  Uiso   1.00
Zn852  Zn    0.79948   0.00000   0.21730   0.00000  Uiso   1.00
Zn853  Zn    0.70053   0.00000   0.78270   0.00000  Uiso   1.00
Zn854  Zn    0.50000   0.29948   0.21730   0.00000  Uiso   1.00
Zn855  Zn    0.50000   0.20053   0.78270   0.00000  Uiso   1.00
Zn856  Zn    0.95053   0.25000   0.71730   0.00000  Uiso   1.00
C857   C     0.25000   0.50000   0.35573   0.00000  Uiso   1.00
C858   C     0.33002   0.91998   0.75000   0.00000  Uiso   1.00
C859   C     0.42311   0.74798   0.02025   0.00000  Uiso   1.00
C860   C     0.25202   0.57689   0.97975   0.00000  Uiso   1.00
C861   C     0.25203   0.92312   0.02024   0.00000  Uiso   1.00
C862   C     0.42311   0.75203   0.97975   0.00000  Uiso   1.00
C863   C     0.07689   0.75203   0.02025   0.00000  Uiso   1.00
C864   C     0.02666   0.83431   0.36819   0.00000  Uiso   1.00
C865   C     0.03537   0.88088   0.36227   0.00000  Uiso   1.00
C866   C     0.02666   0.66569   0.63181   0.00000  Uiso   1.00
C867   C     0.03537   0.61912   0.63773   0.00000  Uiso   1.00
C868   C     0.16570   0.52667   0.36819   0.00000  Uiso   1.00
C869   C     0.41999   0.66999   0.25000   0.00000  Uiso   1.00
C870   C     0.11912   0.53539   0.36227   0.00000  Uiso   1.00
C871   C     0.33431   0.52665   0.63181   0.00000  Uiso   1.00
C872   C     0.38088   0.53537   0.63773   0.00000  Uiso   1.00
C873   C     0.47334   0.66569   0.36819   0.00000  Uiso   1.00
C874   C     0.46463   0.61912   0.36227   0.00000  Uiso   1.00
C875   C     0.47334   0.83431   0.63181   0.00000  Uiso   1.00
C876   C     0.46462   0.88088   0.63773   0.00000  Uiso   1.00
C877   C     0.33431   0.97334   0.36819   0.00000  Uiso   1.00
C878   C     0.38088   0.96462   0.36227   0.00000  Uiso   1.00
C879   C     0.16569   0.97335   0.63181   0.00000  Uiso   1.00
C880   C     0.08002   0.83002   0.75000   0.00000  Uiso   1.00
C881   C     0.11912   0.96463   0.63773   0.00000  Uiso   1.00
C882   C     0.27665   0.58431   0.86819   0.00000  Uiso   1.00
C883   C     0.28537   0.63088   0.86227   0.00000  Uiso   1.00
C884   C     0.27666   0.91569   0.13181   0.00000  Uiso   1.00
C885   C     0.28538   0.86912   0.13773   0.00000  Uiso   1.00
C886   C     0.41569   0.77666   0.86819   0.00000  Uiso   1.00
C887   C     0.36912   0.78538   0.86227   0.00000  Uiso   1.00
C888   C     0.08431   0.77666   0.13181   0.00000  Uiso   1.00
C889   C     0.13088   0.78537   0.13773   0.00000  Uiso   1.00
C890   C     0.22335   0.91569   0.86819   0.00000  Uiso   1.00
C891   C     0.33001   0.91999   0.25000   0.00000  Uiso   1.00
C892   C     0.21463   0.86912   0.86227   0.00000  Uiso   1.00
C893   C     0.22333   0.58430   0.13181   0.00000  Uiso   1.00
C894   C     0.21462   0.63088   0.13773   0.00000  Uiso   1.00
C895   C     0.08431   0.72334   0.86819   0.00000  Uiso   1.00
C896   C     0.13088   0.71463   0.86227   0.00000  Uiso   1.00
C897   C     0.41569   0.72334   0.13181   0.00000  Uiso   1.00
C898   C     0.36912   0.71463   0.13773   0.00000  Uiso   1.00
C899   C     0.45630   0.61722   0.46373   0.00000  Uiso   1.00
C900   C     0.45850   0.57096   0.45258   0.00000  Uiso   1.00
C901   C     0.45630   0.88279   0.53626   0.00000  Uiso   1.00
C902   C     0.16998   0.58002   0.75000   0.00000  Uiso   1.00
C903   C     0.45851   0.92904   0.54742   0.00000  Uiso   1.00
C904   C     0.38279   0.95630   0.46374   0.00000  Uiso   1.00
C905   C     0.42904   0.95850   0.45258   0.00000  Uiso   1.00
C906   C     0.11722   0.95630   0.53626   0.00000  Uiso   1.00
C907   C     0.07096   0.95850   0.54742   0.00000  Uiso   1.00
C908   C     0.04370   0.88279   0.46374   0.00000  Uiso   1.00
C909   C     0.04150   0.92904   0.45258   0.00000  Uiso   1.00
C910   C     0.04370   0.61721   0.53626   0.00000  Uiso   1.00
C911   C     0.04149   0.57096   0.54742   0.00000  Uiso   1.00
C912   C     0.11721   0.54370   0.46374   0.00000  Uiso   1.00
C913   C     0.08001   0.83001   0.25000   0.00000  Uiso   1.00
C914   C     0.07096   0.54150   0.45258   0.00000  Uiso   1.00
C915   C     0.38278   0.54370   0.53626   0.00000  Uiso   1.00
C916   C     0.42904   0.54150   0.54742   0.00000  Uiso   1.00
C917   C     0.20630   0.86722   0.96373   0.00000  Uiso   1.00
C918   C     0.20850   0.82096   0.95258   0.00000  Uiso   1.00
C919   C     0.20630   0.63279   0.03626   0.00000  Uiso   1.00
C920   C     0.20851   0.67904   0.04742   0.00000  Uiso   1.00
C921   C     0.13279   0.70630   0.96374   0.00000  Uiso   1.00
C922   C     0.17904   0.70851   0.95258   0.00000  Uiso   1.00
C923   C     0.36722   0.70630   0.03626   0.00000  Uiso   1.00
C924   C     0.41998   0.66998   0.75000   0.00000  Uiso   1.00
C925   C     0.32096   0.70850   0.04742   0.00000  Uiso   1.00
C926   C     0.29370   0.63278   0.96373   0.00000  Uiso   1.00
C927   C     0.29150   0.67904   0.95258   0.00000  Uiso   1.00
C928   C     0.29370   0.86721   0.03626   0.00000  Uiso   1.00
C929   C     0.29150   0.82096   0.04742   0.00000  Uiso   1.00
C930   C     0.36721   0.79370   0.96374   0.00000  Uiso   1.00
C931   C     0.32096   0.79149   0.95258   0.00000  Uiso   1.00
C932   C     0.13278   0.79370   0.03626   0.00000  Uiso   1.00
C933   C     0.17904   0.79150   0.04742   0.00000  Uiso   1.00
C934   C     0.16999   0.91999   0.75000   0.00000  Uiso   1.00
C935   C     0.33002   0.58002   0.25000   0.00000  Uiso   1.00
C936   C     0.41999   0.83001   0.75000   0.00000  Uiso   1.00
C937   C     0.25000   0.50000   0.64427   0.00000  Uiso   1.00
C938   C     0.08002   0.66998   0.25000   0.00000  Uiso   1.00
C939   C     0.33001   0.58001   0.75000   0.00000  Uiso   1.00
C940   C     0.16998   0.91998   0.25000   0.00000  Uiso   1.00
C941   C     0.08001   0.66999   0.75000   0.00000  Uiso   1.00
C942   C     0.41998   0.83002   0.25000   0.00000  Uiso   1.00
C943   C     0.13832   0.88832   0.25000   0.00000  Uiso   1.00
C944   C     0.36167   0.61167   0.75000   0.00000  Uiso   1.00
C945   C     0.11168   0.63832   0.25000   0.00000  Uiso   1.00
C946   C     0.38833   0.86167   0.75000   0.00000  Uiso   1.00
C947   C     0.36168   0.61168   0.25000   0.00000  Uiso   1.00
C948   C     0.00000   0.75000   0.35573   0.00000  Uiso   1.00
C949   C     0.13833   0.88833   0.75000   0.00000  Uiso   1.00
C950   C     0.38832   0.86168   0.25000   0.00000  Uiso   1.00
C951   C     0.11167   0.63833   0.75000   0.00000  Uiso   1.00
C952   C     0.13832   0.61168   0.75000   0.00000  Uiso   1.00
C953   C     0.36167   0.88833   0.25000   0.00000  Uiso   1.00
C954   C     0.11168   0.86168   0.75000   0.00000  Uiso   1.00
C955   C     0.38833   0.63833   0.25000   0.00000  Uiso   1.00
C956   C     0.36168   0.88832   0.75000   0.00000  Uiso   1.00
C957   C     0.13833   0.61167   0.25000   0.00000  Uiso   1.00
C958   C     0.38832   0.63832   0.75000   0.00000  Uiso   1.00
C959   C     0.00000   0.75000   0.64427   0.00000  Uiso   1.00
C960   C     0.11167   0.86167   0.25000   0.00000  Uiso   1.00
C961   C     0.00139   0.78900   0.41752   0.00000  Uiso   1.00
C962   C     0.00139   0.71100   0.58248   0.00000  Uiso   1.00
C963   C     0.21100   0.50140   0.41752   0.00000  Uiso   1.00
C964   C     0.28900   0.50139   0.58248   0.00000  Uiso   1.00
C965   C     0.49861   0.71100   0.41752   0.00000  Uiso   1.00
C966   C     0.49861   0.78900   0.58248   0.00000  Uiso   1.00
C967   C     0.28900   0.99861   0.41752   0.00000  Uiso   1.00
C968   C     0.21100   0.99861   0.58248   0.00000  Uiso   1.00
C969   C     0.25139   0.53900   0.91752   0.00000  Uiso   1.00
C970   C     0.00000   0.75000   0.85573   0.00000  Uiso   1.00
C971   C     0.25139   0.96100   0.08248   0.00000  Uiso   1.00
C972   C     0.46100   0.75139   0.91752   0.00000  Uiso   1.00
C973   C     0.03900   0.75139   0.08248   0.00000  Uiso   1.00
C974   C     0.24861   0.96100   0.91752   0.00000  Uiso   1.00
C975   C     0.24860   0.53900   0.08248   0.00000  Uiso   1.00
C976   C     0.03900   0.74861   0.91752   0.00000  Uiso   1.00
C977   C     0.46100   0.74861   0.08248   0.00000  Uiso   1.00
C978   C     0.00000   0.75000   0.39763   0.00000  Uiso   1.00
C979   C    -0.00000   0.75000   0.60237   0.00000  Uiso   1.00
C980   C     0.25000   0.50000   0.39763   0.00000  Uiso   1.00
C981   C     0.00000   0.75000   0.14427   0.00000  Uiso   1.00
C982   C     0.25000   0.50000   0.60237   0.00000  Uiso   1.00
C983   C     0.25000   0.50000   0.89763   0.00000  Uiso   1.00
C984   C     0.25000   0.50000   0.10237   0.00000  Uiso   1.00
C985   C     0.00000   0.75000   0.89763   0.00000  Uiso   1.00
C986   C     0.00000   0.75000   0.10237   0.00000  Uiso   1.00
C987   C     0.49894   0.71122   0.45865   0.00000  Uiso   1.00
C988   C     0.49894   0.78878   0.54135   0.00000  Uiso   1.00
C989   C     0.28878   0.99894   0.45865   0.00000  Uiso   1.00
C990   C     0.21122   0.99894   0.54135   0.00000  Uiso   1.00
C991   C     0.00106   0.78878   0.45865   0.00000  Uiso   1.00
C992   C     0.25000   0.50000   0.85573   0.00000  Uiso   1.00
C993   C     0.00106   0.71122   0.54135   0.00000  Uiso   1.00
C994   C     0.21122   0.50106   0.45865   0.00000  Uiso   1.00
C995   C     0.28878   0.50106   0.54135   0.00000  Uiso   1.00
C996   C     0.24894   0.96122   0.95865   0.00000  Uiso   1.00
C997   C     0.24894   0.53878   0.04135   0.00000  Uiso   1.00
C998   C     0.03878   0.74894   0.95865   0.00000  Uiso   1.00
C999   C     0.46122   0.74894   0.04135   0.00000  Uiso   1.00
C1000  C     0.25106   0.53878   0.95865   0.00000  Uiso   1.00
C1001  C     0.25106   0.96122   0.04135   0.00000  Uiso   1.00
C1002  C     0.46122   0.75106   0.95865   0.00000  Uiso   1.00
C1003  C     0.25000   0.50000   0.14427   0.00000  Uiso   1.00
C1004  C     0.03878   0.75106   0.04135   0.00000  Uiso   1.00
C1005  C     0.00000   0.75000   0.47928   0.00000  Uiso   1.00
C1006  C    -0.00000   0.75000   0.52072   0.00000  Uiso   1.00
C1007  C     0.25000   0.50000   0.47928   0.00000  Uiso   1.00
C1008  C     0.25000   0.50000   0.52072   0.00000  Uiso   1.00
C1009  C     0.25000   0.50000   0.97928   0.00000  Uiso   1.00
C1010  C     0.25000   0.50000   0.02072   0.00000  Uiso   1.00
C1011  C     0.00000   0.75000   0.97928   0.00000  Uiso   1.00
C1012  C     0.00000   0.75000   0.02072   0.00000  Uiso   1.00
C1013  C     0.49798   0.67312   0.47975   0.00000  Uiso   1.00
C1014  C     0.16999   0.58001   0.25000   0.00000  Uiso   1.00
C1015  C     0.49798   0.82689   0.52025   0.00000  Uiso   1.00
C1016  C     0.32689   0.99797   0.47975   0.00000  Uiso   1.00
C1017  C     0.17311   0.99798   0.52025   0.00000  Uiso   1.00
C1018  C     0.00202   0.82689   0.47975   0.00000  Uiso   1.00
C1019  C     0.00202   0.67312   0.52025   0.00000  Uiso   1.00
C1020  C     0.17311   0.50203   0.47975   0.00000  Uiso   1.00
C1021  C     0.32689   0.50202   0.52025   0.00000  Uiso   1.00
C1022  C     0.24798   0.92312   0.97975   0.00000  Uiso   1.00
C1023  C     0.24797   0.57689   0.02025   0.00000  Uiso   1.00
C1024  C     0.07689   0.74798   0.97975   0.00000  Uiso   1.00
H1025  H     0.01294   0.82432   0.34015   0.00000  Uiso   1.00
H1026  H     0.00624   0.60047   0.63353   0.00000  Uiso   1.00
H1027  H     0.06652   0.97483   0.57538   0.00000  Uiso   1.00
H1028  H     0.06548   0.86602   0.44391   0.00000  Uiso   1.00
H1029  H     0.05705   0.88083   0.49346   0.00000  Uiso   1.00
H1030  H     0.02319   0.94656   0.47439   0.00000  Uiso   1.00
H1031  H     0.07358   0.94240   0.45048   0.00000  Uiso   1.00
H1032  H     0.02517   0.93348   0.42462   0.00000  Uiso   1.00
H1033  H     0.06547   0.63398   0.55608   0.00000  Uiso   1.00
H1034  H     0.05705   0.61917   0.50654   0.00000  Uiso   1.00
H1035  H     0.02319   0.55344   0.52561   0.00000  Uiso   1.00
H1036  H     0.07358   0.55760   0.54953   0.00000  Uiso   1.00
H1037  H     0.17568   0.51295   0.34015   0.00000  Uiso   1.00
H1038  H     0.02516   0.56652   0.57538   0.00000  Uiso   1.00
H1039  H     0.13398   0.56548   0.44392   0.00000  Uiso   1.00
H1040  H     0.11917   0.55705   0.49347   0.00000  Uiso   1.00
H1041  H     0.05344   0.52319   0.47438   0.00000  Uiso   1.00
H1042  H     0.05760   0.57358   0.45048   0.00000  Uiso   1.00
H1043  H     0.06652   0.52517   0.42461   0.00000  Uiso   1.00
H1044  H     0.36602   0.56548   0.55609   0.00000  Uiso   1.00
H1045  H     0.38082   0.55705   0.50654   0.00000  Uiso   1.00
H1046  H     0.44656   0.52319   0.52561   0.00000  Uiso   1.00
H1047  H     0.44239   0.57358   0.54952   0.00000  Uiso   1.00
H1048  H     0.18198   0.55707   0.37381   0.00000  Uiso   1.00
H1049  H     0.43348   0.52517   0.57538   0.00000  Uiso   1.00
H1050  H     0.18453   0.88398   0.94391   0.00000  Uiso   1.00
H1051  H     0.19295   0.86918   0.99346   0.00000  Uiso   1.00
H1052  H     0.22681   0.80344   0.97439   0.00000  Uiso   1.00
H1053  H     0.17642   0.80761   0.95048   0.00000  Uiso   1.00
H1054  H     0.22483   0.81652   0.92462   0.00000  Uiso   1.00
H1055  H     0.18452   0.61602   0.05608   0.00000  Uiso   1.00
H1056  H     0.19295   0.63083   0.00653   0.00000  Uiso   1.00
H1057  H     0.22681   0.69656   0.02562   0.00000  Uiso   1.00
H1058  H     0.17642   0.69240   0.04952   0.00000  Uiso   1.00
H1059  H     0.10838   0.56060   0.38195   0.00000  Uiso   1.00
H1060  H     0.22484   0.68348   0.07538   0.00000  Uiso   1.00
H1061  H     0.11602   0.68453   0.94391   0.00000  Uiso   1.00
H1062  H     0.13083   0.69295   0.99346   0.00000  Uiso   1.00
H1063  H     0.19656   0.72681   0.97439   0.00000  Uiso   1.00
H1064  H     0.19240   0.67642   0.95047   0.00000  Uiso   1.00
H1065  H     0.18348   0.72484   0.92462   0.00000  Uiso   1.00
H1066  H     0.38398   0.68452   0.05608   0.00000  Uiso   1.00
H1067  H     0.36917   0.69295   0.00654   0.00000  Uiso   1.00
H1068  H     0.30344   0.72681   0.02561   0.00000  Uiso   1.00
H1069  H     0.30760   0.67642   0.04952   0.00000  Uiso   1.00
H1070  H     0.11369   0.54689   0.33229   0.00000  Uiso   1.00
H1071  H     0.31652   0.72483   0.07538   0.00000  Uiso   1.00
H1072  H     0.31547   0.61602   0.94391   0.00000  Uiso   1.00
H1073  H     0.30705   0.63083   0.99346   0.00000  Uiso   1.00
H1074  H     0.27319   0.69656   0.97439   0.00000  Uiso   1.00
H1075  H     0.32358   0.69240   0.95048   0.00000  Uiso   1.00
H1076  H     0.27517   0.68348   0.92462   0.00000  Uiso   1.00
H1077  H     0.31548   0.88398   0.05608   0.00000  Uiso   1.00
H1078  H     0.30705   0.86917   0.00653   0.00000  Uiso   1.00
H1079  H     0.27319   0.80344   0.02561   0.00000  Uiso   1.00
H1080  H     0.32358   0.80760   0.04952   0.00000  Uiso   1.00
H1081  H     0.10047   0.50626   0.36646   0.00000  Uiso   1.00
H1082  H     0.27516   0.81652   0.07538   0.00000  Uiso   1.00
H1083  H     0.38398   0.81548   0.94392   0.00000  Uiso   1.00
H1084  H     0.36917   0.80705   0.99346   0.00000  Uiso   1.00
H1085  H     0.30344   0.77319   0.97439   0.00000  Uiso   1.00
H1086  H     0.30760   0.82358   0.95047   0.00000  Uiso   1.00
H1087  H     0.31652   0.77516   0.92462   0.00000  Uiso   1.00
H1088  H     0.11602   0.81548   0.05609   0.00000  Uiso   1.00
H1089  H     0.13083   0.80705   0.00654   0.00000  Uiso   1.00
H1090  H     0.19656   0.77319   0.02561   0.00000  Uiso   1.00
H1091  H     0.19240   0.82358   0.04952   0.00000  Uiso   1.00
H1092  H     0.32432   0.51294   0.65985   0.00000  Uiso   1.00
H1093  H     0.18348   0.77517   0.07538   0.00000  Uiso   1.00
H1094  H     0.31803   0.55706   0.62619   0.00000  Uiso   1.00
H1095  H     0.39163   0.56058   0.61806   0.00000  Uiso   1.00
H1096  H     0.38632   0.54686   0.66771   0.00000  Uiso   1.00
H1097  H     0.05707   0.81803   0.37381   0.00000  Uiso   1.00
H1098  H     0.39953   0.50624   0.63353   0.00000  Uiso   1.00
H1099  H     0.48706   0.67568   0.34015   0.00000  Uiso   1.00
H1100  H     0.44294   0.68197   0.37381   0.00000  Uiso   1.00
H1101  H     0.43941   0.60838   0.38194   0.00000  Uiso   1.00
H1102  H     0.45313   0.61368   0.33229   0.00000  Uiso   1.00
H1103  H     0.49376   0.60047   0.36647   0.00000  Uiso   1.00
H1104  H     0.48706   0.82432   0.65985   0.00000  Uiso   1.00
H1105  H     0.44293   0.81803   0.62619   0.00000  Uiso   1.00
H1106  H     0.43941   0.89162   0.61806   0.00000  Uiso   1.00
H1107  H     0.45312   0.88631   0.66771   0.00000  Uiso   1.00
H1108  H     0.06059   0.89162   0.38194   0.00000  Uiso   1.00
H1109  H     0.49375   0.89953   0.63353   0.00000  Uiso   1.00
H1110  H     0.32432   0.98706   0.34015   0.00000  Uiso   1.00
H1111  H     0.31803   0.94293   0.37381   0.00000  Uiso   1.00
H1112  H     0.39162   0.93941   0.38194   0.00000  Uiso   1.00
H1113  H     0.38631   0.95312   0.33229   0.00000  Uiso   1.00
H1114  H     0.39953   0.99375   0.36647   0.00000  Uiso   1.00
H1115  H     0.17568   0.98706   0.65984   0.00000  Uiso   1.00
H1116  H     0.18197   0.94294   0.62619   0.00000  Uiso   1.00
H1117  H     0.10837   0.93942   0.61806   0.00000  Uiso   1.00
H1118  H     0.11368   0.95314   0.66771   0.00000  Uiso   1.00
H1119  H     0.04687   0.88632   0.33229   0.00000  Uiso   1.00
H1120  H     0.10047   0.99376   0.63353   0.00000  Uiso   1.00
H1121  H     0.26294   0.57432   0.84015   0.00000  Uiso   1.00
H1122  H     0.30706   0.56803   0.87381   0.00000  Uiso   1.00
H1123  H     0.31058   0.64163   0.88194   0.00000  Uiso   1.00
H1124  H     0.29686   0.63632   0.83229   0.00000  Uiso   1.00
H1125  H     0.25624   0.64953   0.86647   0.00000  Uiso   1.00
H1126  H     0.26295   0.92568   0.15984   0.00000  Uiso   1.00
H1127  H     0.30707   0.93198   0.12619   0.00000  Uiso   1.00
H1128  H     0.31059   0.85838   0.11805   0.00000  Uiso   1.00
H1129  H     0.29688   0.86369   0.16771   0.00000  Uiso   1.00
H1130  H     0.00624   0.89953   0.36647   0.00000  Uiso   1.00
H1131  H     0.25625   0.85047   0.13353   0.00000  Uiso   1.00
H1132  H     0.42568   0.76294   0.84015   0.00000  Uiso   1.00
H1133  H     0.43197   0.80707   0.87381   0.00000  Uiso   1.00
H1134  H     0.35838   0.81059   0.88194   0.00000  Uiso   1.00
H1135  H     0.36369   0.79688   0.83229   0.00000  Uiso   1.00
H1136  H     0.35047   0.75625   0.86647   0.00000  Uiso   1.00
H1137  H     0.07432   0.76294   0.15985   0.00000  Uiso   1.00
H1138  H     0.06803   0.80706   0.12619   0.00000  Uiso   1.00
H1139  H     0.14162   0.81059   0.11806   0.00000  Uiso   1.00
H1140  H     0.13632   0.79687   0.16771   0.00000  Uiso   1.00
H1141  H     0.01294   0.67568   0.65984   0.00000  Uiso   1.00
H1142  H     0.14953   0.75624   0.13353   0.00000  Uiso   1.00
H1143  H     0.23706   0.92568   0.84015   0.00000  Uiso   1.00
H1144  H     0.19294   0.93197   0.87381   0.00000  Uiso   1.00
H1145  H     0.18942   0.85837   0.88194   0.00000  Uiso   1.00
H1146  H     0.20314   0.86368   0.83229   0.00000  Uiso   1.00
H1147  H     0.24376   0.85047   0.86647   0.00000  Uiso   1.00
H1148  H     0.23705   0.57432   0.15985   0.00000  Uiso   1.00
H1149  H     0.19293   0.56802   0.12619   0.00000  Uiso   1.00
H1150  H     0.18940   0.64162   0.11805   0.00000  Uiso   1.00
H1151  H     0.20311   0.63631   0.16771   0.00000  Uiso   1.00
H1152  H     0.05707   0.68197   0.62619   0.00000  Uiso   1.00
H1153  H     0.24374   0.64953   0.13354   0.00000  Uiso   1.00
H1154  H     0.07432   0.73706   0.84015   0.00000  Uiso   1.00
H1155  H     0.06803   0.69293   0.87381   0.00000  Uiso   1.00
H1156  H     0.14163   0.68941   0.88194   0.00000  Uiso   1.00
H1157  H     0.13632   0.70313   0.83229   0.00000  Uiso   1.00
H1158  H     0.14953   0.74376   0.86647   0.00000  Uiso   1.00
H1159  H     0.42568   0.73706   0.15984   0.00000  Uiso   1.00
H1160  H     0.43197   0.69294   0.12619   0.00000  Uiso   1.00
H1161  H     0.35838   0.68941   0.11806   0.00000  Uiso   1.00
H1162  H     0.36368   0.70313   0.16771   0.00000  Uiso   1.00
H1163  H     0.06059   0.60837   0.61806   0.00000  Uiso   1.00
H1164  H     0.35047   0.74376   0.13353   0.00000  Uiso   1.00
H1165  H     0.43452   0.63398   0.44391   0.00000  Uiso   1.00
H1166  H     0.44295   0.61917   0.49346   0.00000  Uiso   1.00
H1167  H     0.47681   0.55344   0.47439   0.00000  Uiso   1.00
H1168  H     0.42642   0.55761   0.45048   0.00000  Uiso   1.00
H1169  H     0.47483   0.56652   0.42462   0.00000  Uiso   1.00
H1170  H     0.43452   0.86602   0.55608   0.00000  Uiso   1.00
H1171  H     0.44295   0.88083   0.50654   0.00000  Uiso   1.00
H1172  H     0.47681   0.94656   0.52561   0.00000  Uiso   1.00
H1173  H     0.42642   0.94240   0.54953   0.00000  Uiso   1.00
H1174  H     0.04687   0.61368   0.66771   0.00000  Uiso   1.00
H1175  H     0.47484   0.93348   0.57538   0.00000  Uiso   1.00
H1176  H     0.36602   0.93452   0.44392   0.00000  Uiso   1.00
H1177  H     0.38083   0.94295   0.49346   0.00000  Uiso   1.00
H1178  H     0.44656   0.97681   0.47439   0.00000  Uiso   1.00
H1179  H     0.44240   0.92642   0.45047   0.00000  Uiso   1.00
H1180  H     0.43348   0.97484   0.42462   0.00000  Uiso   1.00
H1181  H     0.13398   0.93453   0.55609   0.00000  Uiso   1.00
H1182  H     0.11918   0.94295   0.50654   0.00000  Uiso   1.00
H1183  H     0.05344   0.97681   0.52561   0.00000  Uiso   1.00
H1184  H     0.05761   0.92642   0.54952   0.00000  Uiso   1.00
O1185  O     0.25000   0.50000   0.25000   0.00000  Uiso   1.00
O1186  O     0.25000   0.96539   0.66251   0.00000  Uiso   1.00
O1187  O     0.46539   0.75000   0.33749   0.00000  Uiso   1.00
O1188  O     0.03462   0.75000   0.66251   0.00000  Uiso   1.00
O1189  O     0.00000   0.71539   0.83749   0.00000  Uiso   1.00
O1190  O     0.00000   0.78462   0.16251   0.00000  Uiso   1.00
O1191  O     0.28462   0.50000   0.83749   0.00000  Uiso   1.00
O1192  O     0.21539   0.50000   0.16251   0.00000  Uiso   1.00
O1193  O     0.00000   0.78462   0.83749   0.00000  Uiso   1.00
O1194  O     0.00000   0.71539   0.16251   0.00000  Uiso   1.00
O1195  O     0.21539   0.50000   0.83749   0.00000  Uiso   1.00
O1196  O     0.25000   0.50000   0.75000   0.00000  Uiso   1.00
O1197  O     0.28462   0.50000   0.16251   0.00000  Uiso   1.00
O1198  O     0.20127   0.58332   0.27298   0.00000  Uiso   1.00
O1199  O     0.29874   0.91668   0.72702   0.00000  Uiso   1.00
O1200  O     0.41668   0.70127   0.27298   0.00000  Uiso   1.00
O1201  O     0.08332   0.79874   0.72702   0.00000  Uiso   1.00
O1202  O     0.29874   0.91668   0.27298   0.00000  Uiso   1.00
O1203  O     0.20127   0.58332   0.72702   0.00000  Uiso   1.00
O1204  O     0.08332   0.79874   0.27298   0.00000  Uiso   1.00
O1205  O     0.41668   0.70127   0.72702   0.00000  Uiso   1.00
O1206  O     0.20127   0.91668   0.72702   0.00000  Uiso   1.00
O1207  O     0.00000   0.75000   0.25000   0.00000  Uiso   1.00
O1208  O     0.29874   0.58332   0.27298   0.00000  Uiso   1.00
O1209  O     0.41668   0.79874   0.72702   0.00000  Uiso   1.00
O1210  O     0.08332   0.70127   0.27298   0.00000  Uiso   1.00
O1211  O     0.29874   0.58332   0.72702   0.00000  Uiso   1.00
O1212  O     0.20127   0.91668   0.27298   0.00000  Uiso   1.00
O1213  O     0.08332   0.70127   0.72702   0.00000  Uiso   1.00
O1214  O     0.41668   0.79874   0.27298   0.00000  Uiso   1.00
O1215  O     0.45127   0.83332   0.77298   0.00000  Uiso   1.00
O1216  O     0.04874   0.66668   0.22702   0.00000  Uiso   1.00
O1217  O     0.16668   0.95127   0.77298   0.00000  Uiso   1.00
O1218  O     0.00000   0.75000   0.75000   0.00000  Uiso   1.00
O1219  O     0.33332   0.54874   0.22702   0.00000  Uiso   1.00
O1220  O     0.04874   0.66668   0.77298   0.00000  Uiso   1.00
O1221  O     0.45127   0.83332   0.22702   0.00000  Uiso   1.00
O1222  O     0.33332   0.54874   0.77298   0.00000  Uiso   1.00
O1223  O     0.16668   0.95127   0.22702   0.00000  Uiso   1.00
O1224  O     0.45127   0.66668   0.22702   0.00000  Uiso   1.00
O1225  O     0.04874   0.83332   0.77298   0.00000  Uiso   1.00
O1226  O     0.16668   0.54874   0.22702   0.00000  Uiso   1.00
O1227  O     0.33332   0.95127   0.77298   0.00000  Uiso   1.00
O1228  O     0.04874   0.83332   0.22702   0.00000  Uiso   1.00
O1229  O     0.25000   0.96539   0.33749   0.00000  Uiso   1.00
O1230  O     0.45127   0.66668   0.77298   0.00000  Uiso   1.00
O1231  O     0.33332   0.95127   0.22702   0.00000  Uiso   1.00
O1232  O     0.16668   0.54874   0.77298   0.00000  Uiso   1.00
O1233  O     0.49665   0.82755   0.39805   0.00000  Uiso   1.00
O1234  O     0.49665   0.67245   0.60195   0.00000  Uiso   1.00
O1235  O     0.17245   0.99666   0.39805   0.00000  Uiso   1.00
O1236  O     0.32755   0.99665   0.60195   0.00000  Uiso   1.00
O1237  O     0.00335   0.67245   0.39805   0.00000  Uiso   1.00
O1238  O     0.00335   0.82755   0.60195   0.00000  Uiso   1.00
O1239  O     0.32755   0.50335   0.39805   0.00000  Uiso   1.00
O1240  O     0.25000   0.53462   0.66251   0.00000  Uiso   1.00
O1241  O     0.17245   0.50335   0.60195   0.00000  Uiso   1.00
O1242  O     0.24665   0.57755   0.89805   0.00000  Uiso   1.00
O1243  O     0.24665   0.92245   0.10195   0.00000  Uiso   1.00
O1244  O     0.42245   0.74665   0.89805   0.00000  Uiso   1.00
O1245  O     0.07755   0.74665   0.10195   0.00000  Uiso   1.00
O1246  O     0.25335   0.92245   0.89805   0.00000  Uiso   1.00
O1247  O     0.25334   0.57755   0.10195   0.00000  Uiso   1.00
O1248  O     0.07755   0.75335   0.89805   0.00000  Uiso   1.00
O1249  O     0.42245   0.75335   0.10195   0.00000  Uiso   1.00
O1250  O     0.49696   0.63472   0.46092   0.00000  Uiso   1.00
O1251  O     0.03462   0.75000   0.33749   0.00000  Uiso   1.00
O1252  O     0.49697   0.86528   0.53908   0.00000  Uiso   1.00
O1253  O     0.36528   0.99697   0.46092   0.00000  Uiso   1.00
O1254  O     0.13472   0.99697   0.53908   0.00000  Uiso   1.00
O1255  O     0.00304   0.86528   0.46092   0.00000  Uiso   1.00
O1256  O     0.00303   0.63472   0.53908   0.00000  Uiso   1.00
O1257  O     0.13472   0.50304   0.46092   0.00000  Uiso   1.00
O1258  O     0.36528   0.50304   0.53908   0.00000  Uiso   1.00
O1259  O     0.24697   0.88472   0.96092   0.00000  Uiso   1.00
O1260  O     0.24696   0.61528   0.03908   0.00000  Uiso   1.00
O1261  O     0.11528   0.74697   0.96092   0.00000  Uiso   1.00
O1262  O     0.46539   0.75000   0.66251   0.00000  Uiso   1.00
O1263  O     0.38472   0.74697   0.03908   0.00000  Uiso   1.00
O1264  O     0.25303   0.61528   0.96092   0.00000  Uiso   1.00
O1265  O     0.25304   0.88472   0.03907   0.00000  Uiso   1.00
O1266  O     0.38472   0.75303   0.96092   0.00000  Uiso   1.00
O1267  O     0.11528   0.75304   0.03908   0.00000  Uiso   1.00
O1268  O     0.25000   0.53462   0.33749   0.00000  Uiso   1.00
Zn1269 Zn    0.20053   0.50000   0.21730   0.00000  Uiso   1.00
Zn1270 Zn    0.04948   0.75000   0.28270   0.00000  Uiso   1.00
Zn1271 Zn    0.25000   0.95053   0.71730   0.00000  Uiso   1.00
Zn1272 Zn    0.25000   0.54948   0.28270   0.00000  Uiso   1.00
Zn1273 Zn    0.04948   0.75000   0.71730   0.00000  Uiso   1.00
Zn1274 Zn    0.45053   0.75000   0.28270   0.00000  Uiso   1.00
Zn1275 Zn    0.25000   0.54948   0.71730   0.00000  Uiso   1.00
Zn1276 Zn    0.25000   0.95053   0.28270   0.00000  Uiso   1.00
Zn1277 Zn    0.29948   0.50000   0.78270   0.00000  Uiso   1.00
Zn1278 Zn    0.00000   0.70053   0.21730   0.00000  Uiso   1.00
Zn1279 Zn    0.00000   0.79948   0.78270   0.00000  Uiso   1.00
Zn1280 Zn    0.29948   0.50000   0.21730   0.00000  Uiso   1.00
Zn1281 Zn    0.20053   0.50000   0.78270   0.00000  Uiso   1.00
Zn1282 Zn    0.00000   0.79948   0.21730   0.00000  Uiso   1.00
Zn1283 Zn    0.00000   0.70053   0.78270   0.00000  Uiso   1.00
Zn1284 Zn    0.45053   0.75000   0.71730   0.00000  Uiso   1.00
C1285  C     0.75000   0.50000   0.35573   0.00000  Uiso   1.00
C1286  C     0.83002   0.91998   0.75000   0.00000  Uiso   1.00
C1287  C     0.92311   0.74798   0.02025   0.00000  Uiso   1.00
C1288  C     0.75202   0.57689   0.97975   0.00000  Uiso   1.00
C1289  C     0.75203   0.92312   0.02024   0.00000  Uiso   1.00
C1290  C     0.92311   0.75203   0.97975   0.00000  Uiso   1.00
C1291  C     0.57689   0.75203   0.02025   0.00000  Uiso   1.00
C1292  C     0.52666   0.83431   0.36819   0.00000  Uiso   1.00
C1293  C     0.53537   0.88088   0.36227   0.00000  Uiso   1.00
C1294  C     0.52666   0.66569   0.63181   0.00000  Uiso   1.00
C1295  C     0.53537   0.61912   0.63773   0.00000  Uiso   1.00
C1296  C     0.66570   0.52667   0.36819   0.00000  Uiso   1.00
C1297  C     0.91999   0.66999   0.25000   0.00000  Uiso   1.00
C1298  C     0.61912   0.53539   0.36227   0.00000  Uiso   1.00
C1299  C     0.83431   0.52665   0.63181   0.00000  Uiso   1.00
C1300  C     0.88088   0.53537   0.63773   0.00000  Uiso   1.00
C1301  C     0.97334   0.66569   0.36819   0.00000  Uiso   1.00
C1302  C     0.96463   0.61912   0.36227   0.00000  Uiso   1.00
C1303  C     0.97334   0.83431   0.63181   0.00000  Uiso   1.00
C1304  C     0.96462   0.88088   0.63773   0.00000  Uiso   1.00
C1305  C     0.83431   0.97334   0.36819   0.00000  Uiso   1.00
C1306  C     0.88088   0.96462   0.36227   0.00000  Uiso   1.00
C1307  C     0.66569   0.97335   0.63181   0.00000  Uiso   1.00
C1308  C     0.58002   0.83002   0.75000   0.00000  Uiso   1.00
C1309  C     0.61912   0.96463   0.63773   0.00000  Uiso   1.00
C1310  C     0.77665   0.58431   0.86819   0.00000  Uiso   1.00
C1311  C     0.78537   0.63088   0.86227   0.00000  Uiso   1.00
C1312  C     0.77666   0.91569   0.13181   0.00000  Uiso   1.00
C1313  C     0.78538   0.86912   0.13773   0.00000  Uiso   1.00
C1314  C     0.91569   0.77666   0.86819   0.00000  Uiso   1.00
C1315  C     0.86912   0.78538   0.86227   0.00000  Uiso   1.00
C1316  C     0.58431   0.77666   0.13181   0.00000  Uiso   1.00
C1317  C     0.63088   0.78537   0.13773   0.00000  Uiso   1.00
C1318  C     0.72335   0.91569   0.86819   0.00000  Uiso   1.00
C1319  C     0.83001   0.91999   0.25000   0.00000  Uiso   1.00
C1320  C     0.71463   0.86912   0.86227   0.00000  Uiso   1.00
C1321  C     0.72333   0.58430   0.13181   0.00000  Uiso   1.00
C1322  C     0.71462   0.63088   0.13773   0.00000  Uiso   1.00
C1323  C     0.58431   0.72334   0.86819   0.00000  Uiso   1.00
C1324  C     0.63088   0.71463   0.86227   0.00000  Uiso   1.00
C1325  C     0.91569   0.72334   0.13181   0.00000  Uiso   1.00
C1326  C     0.86912   0.71463   0.13773   0.00000  Uiso   1.00
C1327  C     0.95630   0.61722   0.46373   0.00000  Uiso   1.00
C1328  C     0.95850   0.57096   0.45258   0.00000  Uiso   1.00
C1329  C     0.95630   0.88279   0.53626   0.00000  Uiso   1.00
C1330  C     0.66998   0.58002   0.75000   0.00000  Uiso   1.00
C1331  C     0.95851   0.92904   0.54742   0.00000  Uiso   1.00
C1332  C     0.88279   0.95630   0.46374   0.00000  Uiso   1.00
C1333  C     0.92904   0.95850   0.45258   0.00000  Uiso   1.00
C1334  C     0.61722   0.95630   0.53626   0.00000  Uiso   1.00
C1335  C     0.57096   0.95850   0.54742   0.00000  Uiso   1.00
C1336  C     0.54370   0.88279   0.46374   0.00000  Uiso   1.00
C1337  C     0.54150   0.92904   0.45258   0.00000  Uiso   1.00
C1338  C     0.54370   0.61721   0.53626   0.00000  Uiso   1.00
C1339  C     0.54149   0.57096   0.54742   0.00000  Uiso   1.00
C1340  C     0.61721   0.54370   0.46374   0.00000  Uiso   1.00
C1341  C     0.58001   0.83001   0.25000   0.00000  Uiso   1.00
C1342  C     0.57096   0.54150   0.45258   0.00000  Uiso   1.00
C1343  C     0.88278   0.54370   0.53626   0.00000  Uiso   1.00
C1344  C     0.92904   0.54150   0.54742   0.00000  Uiso   1.00
C1345  C     0.70630   0.86722   0.96373   0.00000  Uiso   1.00
C1346  C     0.70850   0.82096   0.95258   0.00000  Uiso   1.00
C1347  C     0.70630   0.63279   0.03626   0.00000  Uiso   1.00
C1348  C     0.70851   0.67904   0.04742   0.00000  Uiso   1.00
C1349  C     0.63279   0.70630   0.96374   0.00000  Uiso   1.00
C1350  C     0.67904   0.70851   0.95258   0.00000  Uiso   1.00
C1351  C     0.86722   0.70630   0.03626   0.00000  Uiso   1.00
C1352  C     0.91998   0.66998   0.75000   0.00000  Uiso   1.00
C1353  C     0.82096   0.70850   0.04742   0.00000  Uiso   1.00
C1354  C     0.79370   0.63278   0.96373   0.00000  Uiso   1.00
C1355  C     0.79150   0.67904   0.95258   0.00000  Uiso   1.00
C1356  C     0.79370   0.86721   0.03626   0.00000  Uiso   1.00
C1357  C     0.79150   0.82096   0.04742   0.00000  Uiso   1.00
C1358  C     0.86721   0.79370   0.96374   0.00000  Uiso   1.00
C1359  C     0.82096   0.79149   0.95258   0.00000  Uiso   1.00
C1360  C     0.63278   0.79370   0.03626   0.00000  Uiso   1.00
C1361  C     0.67904   0.79150   0.04742   0.00000  Uiso   1.00
C1362  C     0.66999   0.91999   0.75000   0.00000  Uiso   1.00
C1363  C     0.83002   0.58002   0.25000   0.00000  Uiso   1.00
C1364  C     0.91999   0.83001   0.75000   0.00000  Uiso   1.00
C1365  C     0.75000   0.50000   0.64427   0.00000  Uiso   1.00
C1366  C     0.58002   0.66998   0.25000   0.00000  Uiso   1.00
C1367  C     0.83001   0.58001   0.75000   0.00000  Uiso   1.00
C1368  C     0.66998   0.91998   0.25000   0.00000  Uiso   1.00
C1369  C     0.58001   0.66999   0.75000   0.00000  Uiso   1.00
C1370  C     0.91998   0.83002   0.25000   0.00000  Uiso   1.00
C1371  C     0.63832   0.88832   0.25000   0.00000  Uiso   1.00
C1372  C     0.86167   0.61167   0.75000   0.00000  Uiso   1.00
C1373  C     0.61168   0.63832   0.25000   0.00000  Uiso   1.00
C1374  C     0.88833   0.86167   0.75000   0.00000  Uiso   1.00
C1375  C     0.86168   0.61168   0.25000   0.00000  Uiso   1.00
C1376  C     0.50000   0.75000   0.35573   0.00000  Uiso   1.00
C1377  C     0.63833   0.88833   0.75000   0.00000  Uiso   1.00
C1378  C     0.88832   0.86168   0.25000   0.00000  Uiso   1.00
C1379  C     0.61167   0.63833   0.75000   0.00000  Uiso   1.00
C1380  C     0.63832   0.61168   0.75000   0.00000  Uiso   1.00
C1381  C     0.86167   0.88833   0.25000   0.00000  Uiso   1.00
C1382  C     0.61168   0.86168   0.75000   0.00000  Uiso   1.00
C1383  C     0.88833   0.63833   0.25000   0.00000  Uiso   1.00
C1384  C     0.86168   0.88832   0.75000   0.00000  Uiso   1.00
C1385  C     0.63833   0.61167   0.25000   0.00000  Uiso   1.00
C1386  C     0.88832   0.63832   0.75000   0.00000  Uiso   1.00
C1387  C     0.50000   0.75000   0.64427   0.00000  Uiso   1.00
C1388  C     0.61167   0.86167   0.25000   0.00000  Uiso   1.00
C1389  C     0.50139   0.78900   0.41752   0.00000  Uiso   1.00
C1390  C     0.50139   0.71100   0.58248   0.00000  Uiso   1.00
C1391  C     0.71100   0.50140   0.41752   0.00000  Uiso   1.00
C1392  C     0.78900   0.50139   0.58248   0.00000  Uiso   1.00
C1393  C     0.99861   0.71100   0.41752   0.00000  Uiso   1.00
C1394  C     0.99861   0.78900   0.58248   0.00000  Uiso   1.00
C1395  C     0.78900   0.99861   0.41752   0.00000  Uiso   1.00
C1396  C     0.71100   0.99861   0.58248   0.00000  Uiso   1.00
C1397  C     0.75139   0.53900   0.91752   0.00000  Uiso   1.00
C1398  C     0.50000   0.75000   0.85573   0.00000  Uiso   1.00
C1399  C     0.75139   0.96100   0.08248   0.00000  Uiso   1.00
C1400  C     0.96100   0.75139   0.91752   0.00000  Uiso   1.00
C1401  C     0.53900   0.75139   0.08248   0.00000  Uiso   1.00
C1402  C     0.74861   0.96100   0.91752   0.00000  Uiso   1.00
C1403  C     0.74860   0.53900   0.08248   0.00000  Uiso   1.00
C1404  C     0.53900   0.74861   0.91752   0.00000  Uiso   1.00
C1405  C     0.96100   0.74861   0.08248   0.00000  Uiso   1.00
C1406  C     0.50000   0.75000   0.39763   0.00000  Uiso   1.00
C1407  C     0.50000   0.75000   0.60237   0.00000  Uiso   1.00
C1408  C     0.75000   0.50000   0.39763   0.00000  Uiso   1.00
C1409  C     0.50000   0.75000   0.14427   0.00000  Uiso   1.00
C1410  C     0.75000   0.50000   0.60237   0.00000  Uiso   1.00
C1411  C     0.75000   0.50000   0.89763   0.00000  Uiso   1.00
C1412  C     0.75000   0.50000   0.10237   0.00000  Uiso   1.00
C1413  C     0.50000   0.75000   0.89763   0.00000  Uiso   1.00
C1414  C     0.50000   0.75000   0.10237   0.00000  Uiso   1.00
C1415  C     0.99894   0.71122   0.45865   0.00000  Uiso   1.00
C1416  C     0.99894   0.78878   0.54135   0.00000  Uiso   1.00
C1417  C     0.78878   0.99894   0.45865   0.00000  Uiso   1.00
C1418  C     0.71122   0.99894   0.54135   0.00000  Uiso   1.00
C1419  C     0.50106   0.78878   0.45865   0.00000  Uiso   1.00
C1420  C     0.75000   0.50000   0.85573   0.00000  Uiso   1.00
C1421  C     0.50106   0.71122   0.54135   0.00000  Uiso   1.00
C1422  C     0.71122   0.50106   0.45865   0.00000  Uiso   1.00
C1423  C     0.78878   0.50106   0.54135   0.00000  Uiso   1.00
C1424  C     0.74894   0.96122   0.95865   0.00000  Uiso   1.00
C1425  C     0.74894   0.53878   0.04135   0.00000  Uiso   1.00
C1426  C     0.53878   0.74894   0.95865   0.00000  Uiso   1.00
C1427  C     0.96122   0.74894   0.04135   0.00000  Uiso   1.00
C1428  C     0.75106   0.53878   0.95865   0.00000  Uiso   1.00
C1429  C     0.75106   0.96122   0.04135   0.00000  Uiso   1.00
C1430  C     0.96122   0.75106   0.95865   0.00000  Uiso   1.00
C1431  C     0.75000   0.50000   0.14427   0.00000  Uiso   1.00
C1432  C     0.53878   0.75106   0.04135   0.00000  Uiso   1.00
C1433  C     0.50000   0.75000   0.47928   0.00000  Uiso   1.00
C1434  C     0.50000   0.75000   0.52072   0.00000  Uiso   1.00
C1435  C     0.75000   0.50000   0.47928   0.00000  Uiso   1.00
C1436  C     0.75000   0.50000   0.52072   0.00000  Uiso   1.00
C1437  C     0.75000   0.50000   0.97928   0.00000  Uiso   1.00
C1438  C     0.75000   0.50000   0.02072   0.00000  Uiso   1.00
C1439  C     0.50000   0.75000   0.97928   0.00000  Uiso   1.00
C1440  C     0.50000   0.75000   0.02072   0.00000  Uiso   1.00
C1441  C     0.99798   0.67312   0.47975   0.00000  Uiso   1.00
C1442  C     0.66999   0.58001   0.25000   0.00000  Uiso   1.00
C1443  C     0.99798   0.82689   0.52025   0.00000  Uiso   1.00
C1444  C     0.82689   0.99797   0.47975   0.00000  Uiso   1.00
C1445  C     0.67311   0.99798   0.52025   0.00000  Uiso   1.00
C1446  C     0.50202   0.82689   0.47975   0.00000  Uiso   1.00
C1447  C     0.50202   0.67312   0.52025   0.00000  Uiso   1.00
C1448  C     0.67311   0.50203   0.47975   0.00000  Uiso   1.00
C1449  C     0.82689   0.50202   0.52025   0.00000  Uiso   1.00
C1450  C     0.74798   0.92312   0.97975   0.00000  Uiso   1.00
C1451  C     0.74797   0.57689   0.02025   0.00000  Uiso   1.00
C1452  C     0.57689   0.74798   0.97975   0.00000  Uiso   1.00
H1453  H     0.51294   0.82432   0.34015   0.00000  Uiso   1.00
H1454  H     0.50624   0.60047   0.63353   0.00000  Uiso   1.00
H1455  H     0.56652   0.97483   0.57538   0.00000  Uiso   1.00
H1456  H     0.56548   0.86602   0.44391   0.00000  Uiso   1.00
H1457  H     0.55705   0.88083   0.49346   0.00000  Uiso   1.00
H1458  H     0.52319   0.94656   0.47439   0.00000  Uiso   1.00
H1459  H     0.57358   0.94240   0.45048   0.00000  Uiso   1.00
H1460  H     0.52517   0.93348   0.42462   0.00000  Uiso   1.00
H1461  H     0.56547   0.63398   0.55608   0.00000  Uiso   1.00
H1462  H     0.55705   0.61917   0.50654   0.00000  Uiso   1.00
H1463  H     0.52319   0.55344   0.52561   0.00000  Uiso   1.00
H1464  H     0.57358   0.55760   0.54953   0.00000  Uiso   1.00
H1465  H     0.67568   0.51295   0.34015   0.00000  Uiso   1.00
H1466  H     0.52516   0.56652   0.57538   0.00000  Uiso   1.00
H1467  H     0.63398   0.56548   0.44392   0.00000  Uiso   1.00
H1468  H     0.61917   0.55705   0.49347   0.00000  Uiso   1.00
H1469  H     0.55344   0.52319   0.47438   0.00000  Uiso   1.00
H1470  H     0.55760   0.57358   0.45048   0.00000  Uiso   1.00
H1471  H     0.56652   0.52517   0.42461   0.00000  Uiso   1.00
H1472  H     0.86602   0.56548   0.55609   0.00000  Uiso   1.00
H1473  H     0.88082   0.55705   0.50654   0.00000  Uiso   1.00
H1474  H     0.94656   0.52319   0.52561   0.00000  Uiso   1.00
H1475  H     0.94239   0.57358   0.54952   0.00000  Uiso   1.00
H1476  H     0.68198   0.55707   0.37381   0.00000  Uiso   1.00
H1477  H     0.93348   0.52517   0.57538   0.00000  Uiso   1.00
H1478  H     0.68453   0.88398   0.94391   0.00000  Uiso   1.00
H1479  H     0.69295   0.86918   0.99346   0.00000  Uiso   1.00
H1480  H     0.72681   0.80344   0.97439   0.00000  Uiso   1.00
H1481  H     0.67642   0.80761   0.95048   0.00000  Uiso   1.00
H1482  H     0.72483   0.81652   0.92462   0.00000  Uiso   1.00
H1483  H     0.68452   0.61602   0.05608   0.00000  Uiso   1.00
H1484  H     0.69295   0.63083   0.00653   0.00000  Uiso   1.00
H1485  H     0.72681   0.69656   0.02562   0.00000  Uiso   1.00
H1486  H     0.67642   0.69240   0.04952   0.00000  Uiso   1.00
H1487  H     0.60838   0.56060   0.38195   0.00000  Uiso   1.00
H1488  H     0.72484   0.68348   0.07538   0.00000  Uiso   1.00
H1489  H     0.61602   0.68453   0.94391   0.00000  Uiso   1.00
H1490  H     0.63083   0.69295   0.99346   0.00000  Uiso   1.00
H1491  H     0.69656   0.72681   0.97439   0.00000  Uiso   1.00
H1492  H     0.69240   0.67642   0.95047   0.00000  Uiso   1.00
H1493  H     0.68348   0.72484   0.92462   0.00000  Uiso   1.00
H1494  H     0.88398   0.68452   0.05608   0.00000  Uiso   1.00
H1495  H     0.86917   0.69295   0.00654   0.00000  Uiso   1.00
H1496  H     0.80344   0.72681   0.02561   0.00000  Uiso   1.00
H1497  H     0.80760   0.67642   0.04952   0.00000  Uiso   1.00
H1498  H     0.61369   0.54689   0.33229   0.00000  Uiso   1.00
H1499  H     0.81652   0.72483   0.07538   0.00000  Uiso   1.00
H1500  H     0.81547   0.61602   0.94391   0.00000  Uiso   1.00
H1501  H     0.80705   0.63083   0.99346   0.00000  Uiso   1.00
H1502  H     0.77319   0.69656   0.97439   0.00000  Uiso   1.00
H1503  H     0.82358   0.69240   0.95048   0.00000  Uiso   1.00
H1504  H     0.77517   0.68348   0.92462   0.00000  Uiso   1.00
H1505  H     0.81548   0.88398   0.05608   0.00000  Uiso   1.00
H1506  H     0.80705   0.86917   0.00653   0.00000  Uiso   1.00
H1507  H     0.77319   0.80344   0.02561   0.00000  Uiso   1.00
H1508  H     0.82358   0.80760   0.04952   0.00000  Uiso   1.00
H1509  H     0.60047   0.50626   0.36646   0.00000  Uiso   1.00
H1510  H     0.77516   0.81652   0.07538   0.00000  Uiso   1.00
H1511  H     0.88398   0.81548   0.94392   0.00000  Uiso   1.00
H1512  H     0.86917   0.80705   0.99346   0.00000  Uiso   1.00
H1513  H     0.80344   0.77319   0.97439   0.00000  Uiso   1.00
H1514  H     0.80760   0.82358   0.95047   0.00000  Uiso   1.00
H1515  H     0.81652   0.77516   0.92462   0.00000  Uiso   1.00
H1516  H     0.61602   0.81548   0.05609   0.00000  Uiso   1.00
H1517  H     0.63083   0.80705   0.00654   0.00000  Uiso   1.00
H1518  H     0.69656   0.77319   0.02561   0.00000  Uiso   1.00
H1519  H     0.69240   0.82358   0.04952   0.00000  Uiso   1.00
H1520  H     0.82432   0.51294   0.65985   0.00000  Uiso   1.00
H1521  H     0.68348   0.77517   0.07538   0.00000  Uiso   1.00
H1522  H     0.81803   0.55706   0.62619   0.00000  Uiso   1.00
H1523  H     0.89163   0.56058   0.61806   0.00000  Uiso   1.00
H1524  H     0.88632   0.54686   0.66771   0.00000  Uiso   1.00
H1525  H     0.55707   0.81803   0.37381   0.00000  Uiso   1.00
H1526  H     0.89953   0.50624   0.63353   0.00000  Uiso   1.00
H1527  H     0.98706   0.67568   0.34015   0.00000  Uiso   1.00
H1528  H     0.94294   0.68197   0.37381   0.00000  Uiso   1.00
H1529  H     0.93941   0.60838   0.38194   0.00000  Uiso   1.00
H1530  H     0.95313   0.61368   0.33229   0.00000  Uiso   1.00
H1531  H     0.99376   0.60047   0.36647   0.00000  Uiso   1.00
H1532  H     0.98706   0.82432   0.65985   0.00000  Uiso   1.00
H1533  H     0.94293   0.81803   0.62619   0.00000  Uiso   1.00
H1534  H     0.93941   0.89162   0.61806   0.00000  Uiso   1.00
H1535  H     0.95312   0.88631   0.66771   0.00000  Uiso   1.00
H1536  H     0.56059   0.89162   0.38194   0.00000  Uiso   1.00
H1537  H     0.99375   0.89953   0.63353   0.00000  Uiso   1.00
H1538  H     0.82432   0.98706   0.34015   0.00000  Uiso   1.00
H1539  H     0.81803   0.94293   0.37381   0.00000  Uiso   1.00
H1540  H     0.89162   0.93941   0.38194   0.00000  Uiso   1.00
H1541  H     0.88631   0.95312   0.33229   0.00000  Uiso   1.00
H1542  H     0.89953   0.99375   0.36647   0.00000  Uiso   1.00
H1543  H     0.67568   0.98706   0.65984   0.00000  Uiso   1.00
H1544  H     0.68197   0.94294   0.62619   0.00000  Uiso   1.00
H1545  H     0.60837   0.93942   0.61806   0.00000  Uiso   1.00
H1546  H     0.61368   0.95314   0.66771   0.00000  Uiso   1.00
H1547  H     0.54687   0.88632   0.33229   0.00000  Uiso   1.00
H1548  H     0.60047   0.99376   0.63353   0.00000  Uiso   1.00
H1549  H     0.76294   0.57432   0.84015   0.00000  Uiso   1.00
H1550  H     0.80706   0.56803   0.87381   0.00000  Uiso   1.00
H1551  H     0.81058   0.64163   0.88194   0.00000  Uiso   1.00
H1552  H     0.79686   0.63632   0.83229   0.00000  Uiso   1.00
H1553  H     0.75624   0.64953   0.86647   0.00000  Uiso   1.00
H1554  H     0.76295   0.92568   0.15984   0.00000  Uiso   1.00
H1555  H     0.80707   0.93198   0.12619   0.00000  Uiso   1.00
H1556  H     0.81059   0.85838   0.11805   0.00000  Uiso   1.00
H1557  H     0.79688   0.86369   0.16771   0.00000  Uiso   1.00
H1558  H     0.50624   0.89953   0.36647   0.00000  Uiso   1.00
H1559  H     0.75625   0.85047   0.13353   0.00000  Uiso   1.00
H1560  H     0.92568   0.76294   0.84015   0.00000  Uiso   1.00
H1561  H     0.93197   0.80707   0.87381   0.00000  Uiso   1.00
H1562  H     0.85838   0.81059   0.88194   0.00000  Uiso   1.00
H1563  H     0.86369   0.79688   0.83229   0.00000  Uiso   1.00
H1564  H     0.85047   0.75625   0.86647   0.00000  Uiso   1.00
H1565  H     0.57432   0.76294   0.15985   0.00000  Uiso   1.00
H1566  H     0.56803   0.80706   0.12619   0.00000  Uiso   1.00
H1567  H     0.64162   0.81059   0.11806   0.00000  Uiso   1.00
H1568  H     0.63632   0.79687   0.16771   0.00000  Uiso   1.00
H1569  H     0.51294   0.67568   0.65984   0.00000  Uiso   1.00
H1570  H     0.64953   0.75624   0.13353   0.00000  Uiso   1.00
H1571  H     0.73706   0.92568   0.84015   0.00000  Uiso   1.00
H1572  H     0.69294   0.93197   0.87381   0.00000  Uiso   1.00
H1573  H     0.68942   0.85837   0.88194   0.00000  Uiso   1.00
H1574  H     0.70314   0.86368   0.83229   0.00000  Uiso   1.00
H1575  H     0.74376   0.85047   0.86647   0.00000  Uiso   1.00
H1576  H     0.73705   0.57432   0.15985   0.00000  Uiso   1.00
H1577  H     0.69293   0.56802   0.12619   0.00000  Uiso   1.00
H1578  H     0.68940   0.64162   0.11805   0.00000  Uiso   1.00
H1579  H     0.70311   0.63631   0.16771   0.00000  Uiso   1.00
H1580  H     0.55707   0.68197   0.62619   0.00000  Uiso   1.00
H1581  H     0.74374   0.64953   0.13354   0.00000  Uiso   1.00
H1582  H     0.57432   0.73706   0.84015   0.00000  Uiso   1.00
H1583  H     0.56803   0.69293   0.87381   0.00000  Uiso   1.00
H1584  H     0.64163   0.68941   0.88194   0.00000  Uiso   1.00
H1585  H     0.63632   0.70313   0.83229   0.00000  Uiso   1.00
H1586  H     0.64953   0.74376   0.86647   0.00000  Uiso   1.00
H1587  H     0.92568   0.73706   0.15984   0.00000  Uiso   1.00
H1588  H     0.93197   0.69294   0.12619   0.00000  Uiso   1.00
H1589  H     0.85838   0.68941   0.11806   0.00000  Uiso   1.00
H1590  H     0.86368   0.70313   0.16771   0.00000  Uiso   1.00
H1591  H     0.56059   0.60837   0.61806   0.00000  Uiso   1.00
H1592  H     0.85047   0.74376   0.13353   0.00000  Uiso   1.00
H1593  H     0.93452   0.63398   0.44391   0.00000  Uiso   1.00
H1594  H     0.94295   0.61917   0.49346   0.00000  Uiso   1.00
H1595  H     0.97681   0.55344   0.47439   0.00000  Uiso   1.00
H1596  H     0.92642   0.55761   0.45048   0.00000  Uiso   1.00
H1597  H     0.97483   0.56652   0.42462   0.00000  Uiso   1.00
H1598  H     0.93452   0.86602   0.55608   0.00000  Uiso   1.00
H1599  H     0.94295   0.88083   0.50654   0.00000  Uiso   1.00
H1600  H     0.97681   0.94656   0.52561   0.00000  Uiso   1.00
H1601  H     0.92642   0.94240   0.54953   0.00000  Uiso   1.00
H1602  H     0.54687   0.61368   0.66771   0.00000  Uiso   1.00
H1603  H     0.97484   0.93348   0.57538   0.00000  Uiso   1.00
H1604  H     0.86602   0.93452   0.44392   0.00000  Uiso   1.00
H1605  H     0.88083   0.94295   0.49346   0.00000  Uiso   1.00
H1606  H     0.94656   0.97681   0.47439   0.00000  Uiso   1.00
H1607  H     0.94240   0.92642   0.45047   0.00000  Uiso   1.00
H1608  H     0.93348   0.97484   0.42462   0.00000  Uiso   1.00
H1609  H     0.63398   0.93453   0.55609   0.00000  Uiso   1.00
H1610  H     0.61918   0.94295   0.50654   0.00000  Uiso   1.00
H1611  H     0.55344   0.97681   0.52561   0.00000  Uiso   1.00
H1612  H     0.55761   0.92642   0.54952   0.00000  Uiso   1.00
O1613  O     0.75000   0.50000   0.25000   0.00000  Uiso   1.00
O1614  O     0.75000   0.96539   0.66251   0.00000  Uiso   1.00
O1615  O     0.96539   0.75000   0.33749   0.00000  Uiso   1.00
O1616  O     0.53462   0.75000   0.66251   0.00000  Uiso   1.00
O1617  O     0.50000   0.71539   0.83749   0.00000  Uiso   1.00
O1618  O     0.50000   0.78462   0.16251   0.00000  Uiso   1.00
O1619  O     0.78462   0.50000   0.83749   0.00000  Uiso   1.00
O1620  O     0.71539   0.50000   0.16251   0.00000  Uiso   1.00
O1621  O     0.50000   0.78462   0.83749   0.00000  Uiso   1.00
O1622  O     0.50000   0.71539   0.16251   0.00000  Uiso   1.00
O1623  O     0.71539   0.50000   0.83749   0.00000  Uiso   1.00
O1624  O     0.75000   0.50000   0.75000   0.00000  Uiso   1.00
O1625  O     0.78462   0.50000   0.16251   0.00000  Uiso   1.00
O1626  O     0.70127   0.58332   0.27298   0.00000  Uiso   1.00
O1627  O     0.79874   0.91668   0.72702   0.00000  Uiso   1.00
O1628  O     0.91668   0.70127   0.27298   0.00000  Uiso   1.00
O1629  O     0.58332   0.79874   0.72702   0.00000  Uiso   1.00
O1630  O     0.79874   0.91668   0.27298   0.00000  Uiso   1.00
O1631  O     0.70127   0.58332   0.72702   0.00000  Uiso   1.00
O1632  O     0.58332   0.79874   0.27298   0.00000  Uiso   1.00
O1633  O     0.91668   0.70127   0.72702   0.00000  Uiso   1.00
O1634  O     0.70127   0.91668   0.72702   0.00000  Uiso   1.00
O1635  O     0.50000   0.75000   0.25000   0.00000  Uiso   1.00
O1636  O     0.79874   0.58332   0.27298   0.00000  Uiso   1.00
O1637  O     0.91668   0.79874   0.72702   0.00000  Uiso   1.00
O1638  O     0.58332   0.70127   0.27298   0.00000  Uiso   1.00
O1639  O     0.79874   0.58332   0.72702   0.00000  Uiso   1.00
O1640  O     0.70127   0.91668   0.27298   0.00000  Uiso   1.00
O1641  O     0.58332   0.70127   0.72702   0.00000  Uiso   1.00
O1642  O     0.91668   0.79874   0.27298   0.00000  Uiso   1.00
O1643  O     0.95127   0.83332   0.77298   0.00000  Uiso   1.00
O1644  O     0.54874   0.66668   0.22702   0.00000  Uiso   1.00
O1645  O     0.66668   0.95127   0.77298   0.00000  Uiso   1.00
O1646  O     0.50000   0.75000   0.75000   0.00000  Uiso   1.00
O1647  O     0.83332   0.54874   0.22702   0.00000  Uiso   1.00
O1648  O     0.54874   0.66668   0.77298   0.00000  Uiso   1.00
O1649  O     0.95127   0.83332   0.22702   0.00000  Uiso   1.00
O1650  O     0.83332   0.54874   0.77298   0.00000  Uiso   1.00
O1651  O     0.66668   0.95127   0.22702   0.00000  Uiso   1.00
O1652  O     0.95127   0.66668   0.22702   0.00000  Uiso   1.00
O1653  O     0.54874   0.83332   0.77298   0.00000  Uiso   1.00
O1654  O     0.66668   0.54874   0.22702   0.00000  Uiso   1.00
O1655  O     0.83332   0.95127   0.77298   0.00000  Uiso   1.00
O1656  O     0.54874   0.83332   0.22702   0.00000  Uiso   1.00
O1657  O     0.75000   0.96539   0.33749   0.00000  Uiso   1.00
O1658  O     0.95127   0.66668   0.77298   0.00000  Uiso   1.00
O1659  O     0.83332   0.95127   0.22702   0.00000  Uiso   1.00
O1660  O     0.66668   0.54874   0.77298   0.00000  Uiso   1.00
O1661  O     0.99665   0.82755   0.39805   0.00000  Uiso   1.00
O1662  O     0.99665   0.67245   0.60195   0.00000  Uiso   1.00
O1663  O     0.67245   0.99666   0.39805   0.00000  Uiso   1.00
O1664  O     0.82755   0.99665   0.60195   0.00000  Uiso   1.00
O1665  O     0.50335   0.67245   0.39805   0.00000  Uiso   1.00
O1666  O     0.50335   0.82755   0.60195   0.00000  Uiso   1.00
O1667  O     0.82755   0.50335   0.39805   0.00000  Uiso   1.00
O1668  O     0.75000   0.53462   0.66251   0.00000  Uiso   1.00
O1669  O     0.67245   0.50335   0.60195   0.00000  Uiso   1.00
O1670  O     0.74665   0.57755   0.89805   0.00000  Uiso   1.00
O1671  O     0.74665   0.92245   0.10195   0.00000  Uiso   1.00
O1672  O     0.92245   0.74665   0.89805   0.00000  Uiso   1.00
O1673  O     0.57755   0.74665   0.10195   0.00000  Uiso   1.00
O1674  O     0.75335   0.92245   0.89805   0.00000  Uiso   1.00
O1675  O     0.75334   0.57755   0.10195   0.00000  Uiso   1.00
O1676  O     0.57755   0.75335   0.89805   0.00000  Uiso   1.00
O1677  O     0.92245   0.75335   0.10195   0.00000  Uiso   1.00
O1678  O     0.99696   0.63472   0.46092   0.00000  Uiso   1.00
O1679  O     0.53462   0.75000   0.33749   0.00000  Uiso   1.00
O1680  O     0.99697   0.86528   0.53908   0.00000  Uiso   1.00
O1681  O     0.86528   0.99697   0.46092   0.00000  Uiso   1.00
O1682  O     0.63472   0.99697   0.53908   0.00000  Uiso   1.00
O1683  O     0.50304   0.86528   0.46092   0.00000  Uiso   1.00
O1684  O     0.50303   0.63472   0.53908   0.00000  Uiso   1.00
O1685  O     0.63472   0.50304   0.46092   0.00000  Uiso   1.00
O1686  O     0.86528   0.50304   0.53908   0.00000  Uiso   1.00
O1687  O     0.74697   0.88472   0.96092   0.00000  Uiso   1.00
O1688  O     0.74696   0.61528   0.03908   0.00000  Uiso   1.00
O1689  O     0.61528   0.74697   0.96092   0.00000  Uiso   1.00
O1690  O     0.96539   0.75000   0.66251   0.00000  Uiso   1.00
O1691  O     0.88472   0.74697   0.03908   0.00000  Uiso   1.00
O1692  O     0.75303   0.61528   0.96092   0.00000  Uiso   1.00
O1693  O     0.75304   0.88472   0.03907   0.00000  Uiso   1.00
O1694  O     0.88472   0.75303   0.96092   0.00000  Uiso   1.00
O1695  O     0.61528   0.75304   0.03908   0.00000  Uiso   1.00
O1696  O     0.75000   0.53462   0.33749   0.00000  Uiso   1.00
Zn1697 Zn    0.70053   0.50000   0.21730   0.00000  Uiso   1.00
Zn1698 Zn    0.54948   0.75000   0.28270   0.00000  Uiso   1.00
Zn1699 Zn    0.75000   0.95053   0.71730   0.00000  Uiso   1.00
Zn1700 Zn    0.75000   0.54948   0.28270   0.00000  Uiso   1.00
Zn1701 Zn    0.54948   0.75000   0.71730   0.00000  Uiso   1.00
Zn1702 Zn    0.95053   0.75000   0.28270   0.00000  Uiso   1.00
Zn1703 Zn    0.75000   0.54948   0.71730   0.00000  Uiso   1.00
Zn1704 Zn    0.75000   0.95053   0.28270   0.00000  Uiso   1.00
Zn1705 Zn    0.79948   0.50000   0.78270   0.00000  Uiso   1.00
Zn1706 Zn    0.50000   0.70053   0.21730   0.00000  Uiso   1.00
Zn1707 Zn    0.50000   0.79948   0.78270   0.00000  Uiso   1.00
Zn1708 Zn    0.79948   0.50000   0.21730   0.00000  Uiso   1.00
Zn1709 Zn    0.70053   0.50000   0.78270   0.00000  Uiso   1.00
Zn1710 Zn    0.50000   0.79948   0.21730   0.00000  Uiso   1.00
Zn1711 Zn    0.50000   0.70053   0.78270   0.00000  Uiso   1.00
Zn1712 Zn    0.95053   0.75000   0.71730   0.00000  Uiso   1.00
loop_
_geom_bond_atom_site_label_1
_geom_bond_atom_site_label_2
_geom_bond_distance
_geom_bond_site_symmetry_2
_ccdc_geom_bond_type
C1     C124    1.447   .     S
C1     O412    1.269   .     A
C1     O1229   1.269   1_545 S
C2     O343    1.278   .     A
C2     C100    1.425   .     S
C2     O371    1.278   .     A
C3     C143    1.415   .     A
C3     O407    1.385   .     S
C3     C6      1.404   1_554 S
C4     C144    1.415   .     A
C4     O408    1.385   .     S
C4     C167    1.404   1_556 S
C5     C145    1.415   .     A
C5     O409    1.385   .     S
C5     C166    1.404   1_554 S
C6     C146    1.415   .     A
C6     O410    1.385   .     S
C6     C3      1.404   1_556 S
C7     O411    1.385   .     S
C7     C148    1.415   .     A
C7     C168    1.404   1_554 S
C8     H169    1.108   .     S
C8     H241    1.115   .     S
C8     C9      1.522   .     S
C8     O805    1.422   1_455 S
C9     H252    1.106   .     S
C9     H274    1.111   .     S
C9     H263    1.112   .     S
C10    H285    1.108   .     S
C10    H296    1.115   .     S
C10    C11     1.522   .     S
C10    O806    1.422   1_455 S
C11    H307    1.106   .     S
C11    H318    1.112   .     S
C11    H170    1.111   .     S
C12    H192    1.115   .     S
C12    H181    1.108   .     S
C12    C14     1.522   .     S
C12    O1235   1.422   1_545 S
C13    C99     1.425   .     S
C13    O344    1.278   .     A
C13    O368    1.278   .     A
C14    H225    1.111   .     S
C14    H203    1.106   .     S
C14    H214    1.112   .     S
C15    H236    1.108   .     S
C15    H238    1.115   .     S
C15    C16     1.522   .     S
C15    O1236   1.422   1_545 S
C16    H239    1.106   .     S
C16    H242    1.111   .     S
C16    H240    1.112   .     S
C17    H243    1.108   .     S
C17    C18     1.522   .     S
C17    H244    1.115   .     S
C17    O809    1.422   .     S
C18    H247    1.111   .     S
C18    H245    1.106   .     S
C18    H246    1.112   .     S
C19    C20     1.522   .     S
C19    H248    1.108   .     S
C19    H249    1.115   .     S
C19    O810    1.422   .     S
C20    H253    1.111   .     S
C20    H250    1.106   .     S
C20    H251    1.112   .     S
C21    H254    1.108   .     S
C21    C22     1.522   .     S
C21    H255    1.115   .     S
C21    O1239   1.422   .     S
C22    H257    1.112   .     S
C22    H258    1.111   .     S
C22    H256    1.106   .     S
C23    H260    1.115   .     S
C23    H259    1.108   .     S
C23    C25     1.522   .     S
C23    O1241   1.422   .     S
C24    C98     1.425   .     S
C24    O345    1.278   .     A
C24    O369    1.278   .     A
C25    H262    1.112   .     S
C25    H264    1.111   .     S
C25    H261    1.106   .     S
C26    H266    1.115   .     S
C26    O386    1.422   .     S
C26    C27     1.522   .     S
C26    H265    1.108   .     S
C27    H269    1.111   .     S
C27    H267    1.106   .     S
C27    H268    1.112   .     S
C28    H270    1.108   .     S
C28    O387    1.422   .     S
C28    C29     1.522   .     S
C28    H271    1.115   .     S
C29    H273    1.112   .     S
C29    H275    1.111   .     S
C29    H272    1.106   .     S
C30    H276    1.108   .     S
C30    C31     1.522   .     S
C30    O388    1.422   .     S
C30    H277    1.115   .     S
C31    H280    1.111   .     S
C31    H278    1.106   .     S
C31    H279    1.112   .     S
C32    H281    1.108   .     S
C32    C33     1.522   .     S
C32    H282    1.115   .     S
C32    O389    1.422   .     S
C33    H283    1.106   .     S
C33    H284    1.112   .     S
C33    H286    1.111   .     S
C34    H288    1.115   .     S
C34    C36     1.522   .     S
C34    O390    1.422   .     S
C34    H287    1.108   .     S
C35    O346    1.278   .     A
C35    O375    1.278   .     A
C35    C97     1.425   .     S
C36    H289    1.106   .     S
C36    H291    1.111   .     S
C36    H290    1.112   .     S
C37    C38     1.522   .     S
C37    H293    1.115   .     S
C37    H292    1.108   .     S
C37    O391    1.422   .     S
C38    H294    1.106   .     S
C38    H295    1.112   .     S
C38    H297    1.111   .     S
C39    H298    1.108   .     S
C39    C40     1.522   .     S
C39    H299    1.115   .     S
C39    O392    1.422   .     S
C40    H300    1.106   .     S
C40    H301    1.112   .     S
C40    H302    1.111   .     S
C41    H303    1.108   .     S
C41    O393    1.422   .     S
C41    C42     1.522   .     S
C41    H304    1.115   .     S
C42    H305    1.106   .     S
C42    H308    1.111   .     S
C42    H306    1.112   .     S
C43    C44     1.524   .     S
C43    H310    1.113   .     S
C43    O394    1.413   .     S
C43    H309    1.111   .     S
C44    H312    1.109   .     S
C44    H313    1.106   .     S
C44    H311    1.103   .     S
C45    C47     1.524   .     S
C45    H315    1.113   .     S
C45    H314    1.111   .     S
C45    O396    1.413   .     S
C46    O376    1.278   .     A
C46    C96     1.425   .     S
C46    O347    1.278   .     A
C47    H319    1.106   .     S
C47    H316    1.103   .     S
C47    H317    1.109   .     S
C48    O397    1.413   .     S
C48    H320    1.111   .     S
C48    H321    1.113   .     S
C48    C49     1.524   .     S
C49    H324    1.106   .     S
C49    H323    1.109   .     S
C49    H322    1.104   .     S
C50    H325    1.111   .     S
C50    H326    1.113   .     S
C50    C51     1.524   .     S
C50    O398    1.413   .     S
C51    H328    1.109   .     S
C51    H327    1.104   .     S
C51    H171    1.106   .     S
C52    H172    1.111   .     S
C52    H173    1.113   .     S
C52    C53     1.524   .     S
C52    O399    1.413   .     S
C53    H175    1.109   .     S
C53    H174    1.104   .     S
C53    H176    1.106   .     S
C54    H178    1.113   .     S
C54    O400    1.413   .     S
C54    H177    1.111   .     S
C54    C55     1.524   .     S
C55    H180    1.109   .     S
C55    H182    1.106   .     S
C55    H179    1.103   .     S
C56    H184    1.113   .     S
C56    C58     1.524   .     S
C56    H183    1.111   .     S
C56    O401    1.413   .     S
C57    C104    1.425   .     S
C57    O372    1.278   .     A
C57    O348    1.278   .     A
C58    H186    1.109   .     S
C58    H187    1.106   .     S
C58    H185    1.103   .     S
C59    C60     1.524   .     S
C59    O402    1.413   .     S
C59    H188    1.111   .     S
C59    H189    1.113   .     S
C60    H193    1.106   .     S
C60    H190    1.103   .     S
C60    H191    1.109   .     S
C61    O403    1.413   .     S
C61    C62     1.524   .     S
C61    H195    1.113   .     S
C61    H194    1.111   .     S
C62    H196    1.103   .     S
C62    H197    1.109   .     S
C62    H198    1.106   .     S
C63    C64     1.524   .     S
C63    O404    1.413   .     S
C63    H200    1.113   .     S
C63    H199    1.111   .     S
C64    H204    1.106   .     S
C64    H201    1.103   .     S
C64    H202    1.109   .     S
C65    H205    1.111   .     S
C65    O405    1.413   .     S
C65    H206    1.113   .     S
C65    C66     1.524   .     S
C66    H207    1.104   .     S
C66    H208    1.109   .     S
C66    H209    1.106   .     S
C67    H211    1.113   .     S
C67    O407    1.413   .     S
C67    H210    1.111   .     S
C67    C69     1.524   .     S
C68    O349    1.278   .     A
C68    C102    1.425   .     S
C68    O374    1.278   .     A
C69    H213    1.109   .     S
C69    H212    1.104   .     S
C69    H215    1.106   .     S
C70    O408    1.413   .     S
C70    C71     1.524   .     S
C70    H217    1.113   .     S
C70    H216    1.111   .     S
C71    H220    1.106   .     S
C71    H219    1.109   .     S
C71    H218    1.104   .     S
C72    C73     1.524   .     S
C72    O409    1.413   .     S
C72    H222    1.113   .     S
C72    H221    1.111   .     S
C73    H226    1.106   .     S
C73    H223    1.104   .     S
C73    H224    1.109   .     S
C74    H228    1.113   .     S
C74    C75     1.524   .     S
C74    H227    1.111   .     S
C74    O410    1.413   .     S
C75    H229    1.104   .     S
C75    H230    1.109   .     S
C75    H231    1.106   .     S
C76    H232    1.111   .     S
C76    O411    1.413   .     S
C76    H233    1.113   .     S
C76    C77     1.524   .     S
C77    H235    1.109   .     S
C77    H234    1.103   .     S
C77    H237    1.106   .     S
C78    O361    1.278   .     A
C78    O350    1.278   .     A
C78    C93     1.425   .     S
C79    O363    1.278   .     A
C79    O352    1.278   .     A
C79    C91     1.425   .     S
C80    O359    1.278   .     A
C80    O353    1.278   .     A
C80    C90     1.425   .     S
C81    O1186   1.269   1_545 A
C81    C126    1.447   .     S
C81    O384    1.269   .     S
C82    C89     1.425   .     S
C82    O354    1.278   .     A
C82    O360    1.278   .     A
C83    O366    1.278   .     A
C83    C88     1.425   .     S
C83    O355    1.278   .     A
C84    O356    1.278   .     A
C84    C87     1.425   .     S
C84    O367    1.278   .     A
C85    O357    1.278   .     A
C85    C95     1.425   .     S
C85    O364    1.278   .     A
C86    O358    1.278   .     A
C86    C94     1.425   .     S
C86    O365    1.278   .     A
C87    C104    1.200   .     T
C88    C102    1.200   .     T
C89    C101    1.200   .     T
C90    C100    1.200   .     T
C91    C99     1.200   .     T
C92    C122    1.447   .     S
C92    O395    1.269   .     A
C92    O759    1.269   1_455 S
C93    C98     1.200   .     T
C94    C97     1.200   .     T
C95    C96     1.200   .     T
C101   C158    1.425   .     S
C103   C123    1.447   .     S
C103   O834    1.269   1_455 A
C103   O332    1.269   .     S
C105   C135    1.420   .     A
C105   C122    1.419   .     A
C105   O805    1.407   1_455 S
C106   C137    1.420   .     A
C106   C123    1.419   .     S
C106   O806    1.407   1_455 S
C107   C124    1.420   .     A
C107   C138    1.420   .     A
C107   O1235   1.407   1_545 S
C108   C139    1.420   .     A
C108   C126    1.420   .     S
C108   O1236   1.407   1_545 S
C109   C131    1.420   .     A
C109   C550    1.420   .     S
C109   O809    1.407   .     S
C110   C551    1.420   .     A
C110   C132    1.420   .     A
C110   O810    1.407   .     S
C111   C133    1.420   .     A
C111   C980    1.420   .     S
C111   O1239   1.407   .     S
C112   C134    1.420   .     A
C112   C982    1.419   .     A
C112   O1241   1.407   .     S
C113   C144    1.420   .     A
C113   O386    1.407   .     S
C113   C127    1.419   .     S
C114   O333    1.269   .     A
C114   C129    1.447   .     S
C114   O337    1.269   .     S
C115   O387    1.407   .     S
C115   C145    1.420   .     A
C115   C984    1.420   .     S
C116   O388    1.407   .     S
C116   C146    1.420   .     A
C116   C557    1.420   .     A
C117   C148    1.420   .     A
C117   O389    1.407   .     S
C117   C130    1.420   .     A
C118   C140    1.420   .     A
C118   C983    1.420   .     A
C118   O390    1.407   .     S
C119   C128    1.420   .     A
C119   C141    1.420   .     A
C119   O391    1.407   .     S
C120   C142    1.420   .     A
C120   O392    1.407   .     S
C120   C129    1.419   .     S
C121   C143    1.420   .     A
C121   O393    1.407   .     S
C121   C558    1.419   .     S
C122   C537    1.420   1_455 S
C123   C538    1.420   1_455 A
C124   C967    1.420   1_545 S
C125   C130    1.447   .     S
C125   O334    1.269   .     S
C125   O338    1.269   .     S
C126   C968    1.419   1_545 A
C127   C136    1.447   .     S
C127   C974    1.420   1_545 A
C128   C147    1.447   .     S
C128   C971    1.420   1_545 S
C129   C544    1.420   1_455 A
C130   C549    1.419   1_455 S
C131   C577    1.426   .     A
C131   C157    1.415   .     A
C132   C578    1.426   .     A
C132   C159    1.415   .     A
C133   C160    1.415   .     A
C133   C1007   1.426   .     S
C134   C161    1.415   .     A
C134   C1008   1.426   .     S
C135   C162    1.415   .     A
C135   C149    1.426   .     S
C136   O335    1.269   .     S
C136   O339    1.269   .     S
C137   C163    1.415   .     A
C137   C150    1.426   .     S
C138   C151    1.426   .     A
C138   C164    1.415   .     A
C139   C152    1.426   .     A
C139   C165    1.415   .     A
C140   C166    1.415   .     A
C140   C1009   1.426   .     S
C141   C154    1.426   .     A
C141   C167    1.415   .     A
C142   C168    1.415   .     A
C142   C155    1.426   .     S
C143   C584    1.426   .     A
C144   C153    1.426   .     A
C145   C1010   1.426   .     S
C146   C583    1.426   .     A
C147   O336    1.269   .     A
C147   O341    1.269   .     A
C148   C156    1.426   .     S
C149   C559    1.426   1_455 A
C149   C150    1.431   .     A
C150   C560    1.426   1_455 A
C151   C152    1.431   .     A
C151   C989    1.426   1_545 S
C152   C990    1.426   1_545 S
C153   C996    1.426   1_545 S
C153   C154    1.431   1_556 S
C154   C1001   1.426   1_545 S
C154   C153    1.431   1_554 S
C155   C574    1.426   1_455 A
C155   C156    1.431   1_556 S
C156   C571    1.426   1_455 A
C156   C155    1.431   1_554 S
C157   O394    1.385   .     S
C157   C591    1.404   .     S
C158   O370    1.278   .     A
C158   O342    1.278   .     A
C159   O396    1.385   .     S
C159   C590    1.404   .     S
C160   O397    1.385   .     S
C160   C1021   1.404   .     S
C161   O398    1.385   .     S
C161   C1020   1.404   .     S
C162   O399    1.385   .     S
C162   C587    1.404   1_455 S
C163   O400    1.385   .     S
C163   C585    1.404   1_455 S
C164   O401    1.385   .     S
C164   C1017   1.404   1_545 S
C165   O402    1.385   .     S
C165   C1016   1.404   1_545 S
C166   O403    1.385   .     S
C166   C5      1.404   1_556 S
C167   O404    1.385   .     S
C167   C4      1.404   1_554 S
C168   O405    1.385   .     S
C168   C7      1.404   1_556 S
O329   Zn416   1.938   .     S
O329   Zn424   1.938   .     S
O329   Zn413   1.938   .     S
O329   Zn1276  1.938   1_545 S
O330   C937    1.269   .     A
O330   Zn415   1.950   .     S
O331   Zn418   1.950   .     S
O331   C520    1.269   .     S
O332   Zn417   1.950   .     S
O333   Zn427   1.950   .     S
O334   Zn426   1.950   .     S
O335   Zn421   1.950   .     S
O336   Zn413   1.950   .     S
O337   Zn423   1.950   .     S
O338   Zn422   1.950   .     S
O339   Zn425   1.950   .     S
O340   Zn421   1.938   .     S
O340   Zn425   1.938   .     S
O340   Zn419   1.938   .     S
O340   Zn1271  1.938   1_545 S
O341   Zn424   1.950   .     S
O342   Zn416   1.918   .     S
O343   Zn415   1.918   .     S
O344   Zn418   1.918   .     S
O345   Zn417   1.918   .     S
O346   Zn420   1.918   .     S
O347   Zn419   1.918   .     S
O348   Zn414   1.918   .     S
O349   Zn428   1.918   .     S
O350   Zn415   1.918   .     S
O351   Zn846   1.938   1_455 S
O351   Zn414   1.938   .     S
O351   Zn422   1.938   .     S
O351   Zn426   1.938   .     S
O352   Zn416   1.918   .     S
O353   Zn428   1.918   .     S
O354   Zn414   1.918   .     S
O355   Zn419   1.918   .     S
O356   Zn420   1.918   .     S
O357   Zn417   1.918   .     S
O358   Zn418   1.918   .     S
O359   Zn851   1.918   .     S
O360   Zn422   1.918   .     S
O361   Zn1281  1.918   .     S
O362   Zn427   1.938   .     S
O362   Zn417   1.938   .     S
O362   Zn423   1.938   .     S
O362   Zn856   1.938   1_455 S
O363   Zn424   1.918   .     S
O364   Zn427   1.918   .     S
O365   Zn854   1.918   .     S
O366   Zn421   1.918   .     S
O367   Zn1269  1.918   .     S
O368   Zn850   1.918   .     S
O369   Zn423   1.918   .     S
O370   Zn413   1.918   .     S
O371   Zn1277  1.918   .     S
O372   Zn426   1.918   .     S
O373   Zn420   1.950   .     S
O373   C857    1.269   .     S
O374   Zn855   1.918   .     S
O375   Zn1280  1.918   .     S
O376   Zn425   1.918   .     S
O377   C436    1.422   .     S
O377   C533    1.407   .     S
O378   C438    1.422   .     S
O378   C534    1.407   .     S
O379   C868    1.422   .     S
O379   C963    1.407   .     S
O380   C964    1.407   .     S
O380   C871    1.422   .     S
O381   C445    1.422   1_455 S
O381   C537    1.407   1_455 S
O382   C447    1.422   1_455 S
O382   C538    1.407   1_455 S
O383   C877    1.422   1_545 S
O383   C967    1.407   1_545 S
O384   Zn419   1.950   .     S
O385   C879    1.422   1_545 S
O385   C968    1.407   1_545 S
O395   Zn414   1.950   .     S
O406   Zn428   1.950   .     S
O406   C531    1.269   .     A
O412   Zn416   1.950   .     S
Zn413  O1223   1.918   1_545 S
Zn415  O1196   1.938   .     S
Zn418  O779    1.938   .     S
Zn420  O1185   1.938   .     S
Zn421  O1227   1.918   1_545 S
Zn422  O796    1.918   1_455 S
Zn423  O787    1.918   1_455 S
Zn424  O1231   1.918   1_545 S
Zn425  O1217   1.918   1_545 S
Zn426  O793    1.918   1_455 S
Zn427  O802    1.918   1_455 S
Zn428  O790    1.938   .     S
C429   C552    1.447   .     S
C429   O840    1.269   .     A
C429   O1657   1.269   1_545 S
C430   O771    1.278   .     A
C430   C528    1.425   .     S
C430   O799    1.278   .     A
C431   C571    1.415   .     A
C431   O835    1.385   .     S
C431   C434    1.404   1_554 S
C432   C572    1.415   .     A
C432   O836    1.385   .     S
C432   C595    1.404   1_556 S
C433   C573    1.415   .     A
C433   O837    1.385   .     S
C433   C594    1.404   1_554 S
C434   C574    1.415   .     A
C434   O838    1.385   .     S
C434   C431    1.404   1_556 S
C435   O839    1.385   .     S
C435   C576    1.415   .     A
C435   C596    1.404   1_554 S
C436   H597    1.108   .     S
C436   H669    1.115   .     S
C436   C437    1.522   .     S
C437   H680    1.106   .     S
C437   H702    1.111   .     S
C437   H691    1.112   .     S
C438   H713    1.108   .     S
C438   H724    1.115   .     S
C438   C439    1.522   .     S
C439   H735    1.106   .     S
C439   H746    1.112   .     S
C439   H598    1.111   .     S
C440   H620    1.115   .     S
C440   H609    1.108   .     S
C440   C442    1.522   .     S
C440   O1663   1.422   1_545 S
C441   C527    1.425   .     S
C441   O772    1.278   .     A
C441   O796    1.278   .     A
C442   H653    1.111   .     S
C442   H631    1.106   .     S
C442   H642    1.112   .     S
C443   H664    1.108   .     S
C443   H666    1.115   .     S
C443   C444    1.522   .     S
C443   O1664   1.422   1_545 S
C444   H667    1.106   .     S
C444   H670    1.111   .     S
C444   H668    1.112   .     S
C445   H671    1.108   .     S
C445   C446    1.522   .     S
C445   H672    1.115   .     S
C445   O381    1.422   1_655 S
C446   H675    1.111   .     S
C446   H673    1.106   .     S
C446   H674    1.112   .     S
C447   C448    1.522   .     S
C447   H676    1.108   .     S
C447   H677    1.115   .     S
C447   O382    1.422   1_655 S
C448   H681    1.111   .     S
C448   H678    1.106   .     S
C448   H679    1.112   .     S
C449   H682    1.108   .     S
C449   C450    1.522   .     S
C449   H683    1.115   .     S
C449   O1667   1.422   .     S
C450   H685    1.112   .     S
C450   H686    1.111   .     S
C450   H684    1.106   .     S
C451   H688    1.115   .     S
C451   H687    1.108   .     S
C451   C453    1.522   .     S
C451   O1669   1.422   .     S
C452   C526    1.425   .     S
C452   O773    1.278   .     A
C452   O797    1.278   .     A
C453   H690    1.112   .     S
C453   H692    1.111   .     S
C453   H689    1.106   .     S
C454   H694    1.115   .     S
C454   O814    1.422   .     S
C454   C455    1.522   .     S
C454   H693    1.108   .     S
C455   H697    1.111   .     S
C455   H695    1.106   .     S
C455   H696    1.112   .     S
C456   H698    1.108   .     S
C456   O815    1.422   .     S
C456   C457    1.522   .     S
C456   H699    1.115   .     S
C457   H701    1.112   .     S
C457   H703    1.111   .     S
C457   H700    1.106   .     S
C458   H704    1.108   .     S
C458   C459    1.522   .     S
C458   O816    1.422   .     S
C458   H705    1.115   .     S
C459   H708    1.111   .     S
C459   H706    1.106   .     S
C459   H707    1.112   .     S
C460   H709    1.108   .     S
C460   C461    1.522   .     S
C460   H710    1.115   .     S
C460   O817    1.422   .     S
C461   H711    1.106   .     S
C461   H712    1.112   .     S
C461   H714    1.111   .     S
C462   H716    1.115   .     S
C462   C464    1.522   .     S
C462   O818    1.422   .     S
C462   H715    1.108   .     S
C463   O774    1.278   .     A
C463   O803    1.278   .     A
C463   C525    1.425   .     S
C464   H717    1.106   .     S
C464   H719    1.111   .     S
C464   H718    1.112   .     S
C465   C466    1.522   .     S
C465   H721    1.115   .     S
C465   H720    1.108   .     S
C465   O819    1.422   .     S
C466   H722    1.106   .     S
C466   H723    1.112   .     S
C466   H725    1.111   .     S
C467   H726    1.108   .     S
C467   C468    1.522   .     S
C467   H727    1.115   .     S
C467   O820    1.422   .     S
C468   H728    1.106   .     S
C468   H729    1.112   .     S
C468   H730    1.111   .     S
C469   H731    1.108   .     S
C469   O821    1.422   .     S
C469   C470    1.522   .     S
C469   H732    1.115   .     S
C470   H733    1.106   .     S
C470   H736    1.111   .     S
C470   H734    1.112   .     S
C471   C472    1.524   .     S
C471   H738    1.113   .     S
C471   O822    1.413   .     S
C471   H737    1.111   .     S
C472   H740    1.109   .     S
C472   H741    1.106   .     S
C472   H739    1.103   .     S
C473   C475    1.524   .     S
C473   H743    1.113   .     S
C473   H742    1.111   .     S
C473   O824    1.413   .     S
C474   O804    1.278   .     A
C474   C524    1.425   .     S
C474   O775    1.278   .     A
C475   H747    1.106   .     S
C475   H744    1.103   .     S
C475   H745    1.109   .     S
C476   O825    1.413   .     S
C476   H748    1.111   .     S
C476   H749    1.113   .     S
C476   C477    1.524   .     S
C477   H752    1.106   .     S
C477   H751    1.109   .     S
C477   H750    1.104   .     S
C478   H753    1.111   .     S
C478   H754    1.113   .     S
C478   C479    1.524   .     S
C478   O826    1.413   .     S
C479   H756    1.109   .     S
C479   H755    1.104   .     S
C479   H599    1.106   .     S
C480   H600    1.111   .     S
C480   H601    1.113   .     S
C480   C481    1.524   .     S
C480   O827    1.413   .     S
C481   H603    1.109   .     S
C481   H602    1.104   .     S
C481   H604    1.106   .     S
C482   H606    1.113   .     S
C482   O828    1.413   .     S
C482   H605    1.111   .     S
C482   C483    1.524   .     S
C483   H608    1.109   .     S
C483   H610    1.106   .     S
C483   H607    1.103   .     S
C484   H612    1.113   .     S
C484   C486    1.524   .     S
C484   H611    1.111   .     S
C484   O829    1.413   .     S
C485   C532    1.425   .     S
C485   O800    1.278   .     A
C485   O776    1.278   .     A
C486   H614    1.109   .     S
C486   H615    1.106   .     S
C486   H613    1.103   .     S
C487   C488    1.524   .     S
C487   O830    1.413   .     S
C487   H616    1.111   .     S
C487   H617    1.113   .     S
C488   H621    1.106   .     S
C488   H618    1.103   .     S
C488   H619    1.109   .     S
C489   O831    1.413   .     S
C489   C490    1.524   .     S
C489   H623    1.113   .     S
C489   H622    1.111   .     S
C490   H624    1.103   .     S
C490   H625    1.109   .     S
C490   H626    1.106   .     S
C491   C492    1.524   .     S
C491   O832    1.413   .     S
C491   H628    1.113   .     S
C491   H627    1.111   .     S
C492   H632    1.106   .     S
C492   H629    1.103   .     S
C492   H630    1.109   .     S
C493   H633    1.111   .     S
C493   O833    1.413   .     S
C493   H634    1.113   .     S
C493   C494    1.524   .     S
C494   H635    1.104   .     S
C494   H636    1.109   .     S
C494   H637    1.106   .     S
C495   H639    1.113   .     S
C495   O835    1.413   .     S
C495   H638    1.111   .     S
C495   C497    1.524   .     S
C496   O777    1.278   .     A
C496   C530    1.425   .     S
C496   O802    1.278   .     A
C497   H641    1.109   .     S
C497   H640    1.104   .     S
C497   H643    1.106   .     S
C498   O836    1.413   .     S
C498   C499    1.524   .     S
C498   H645    1.113   .     S
C498   H644    1.111   .     S
C499   H648    1.106   .     S
C499   H647    1.109   .     S
C499   H646    1.104   .     S
C500   C501    1.524   .     S
C500   O837    1.413   .     S
C500   H650    1.113   .     S
C500   H649    1.111   .     S
C501   H654    1.106   .     S
C501   H651    1.104   .     S
C501   H652    1.109   .     S
C502   H656    1.113   .     S
C502   C503    1.524   .     S
C502   H655    1.111   .     S
C502   O838    1.413   .     S
C503   H657    1.104   .     S
C503   H658    1.109   .     S
C503   H659    1.106   .     S
C504   H660    1.111   .     S
C504   O839    1.413   .     S
C504   H661    1.113   .     S
C504   C505    1.524   .     S
C505   H663    1.109   .     S
C505   H662    1.103   .     S
C505   H665    1.106   .     S
C506   O789    1.278   .     A
C506   O778    1.278   .     A
C506   C521    1.425   .     S
C507   O791    1.278   .     A
C507   O780    1.278   .     A
C507   C519    1.425   .     S
C508   O787    1.278   .     A
C508   O781    1.278   .     A
C508   C518    1.425   .     S
C509   O1614   1.269   1_545 A
C509   C554    1.447   .     S
C509   O812    1.269   .     S
C510   C517    1.425   .     S
C510   O782    1.278   .     A
C510   O788    1.278   .     A
C511   O794    1.278   .     A
C511   C516    1.425   .     S
C511   O783    1.278   .     A
C512   O784    1.278   .     A
C512   C515    1.425   .     S
C512   O795    1.278   .     A
C513   O785    1.278   .     A
C513   C523    1.425   .     S
C513   O792    1.278   .     A
C514   O786    1.278   .     A
C514   C522    1.425   .     S
C514   O793    1.278   .     A
C515   C532    1.200   .     T
C516   C530    1.200   .     T
C517   C529    1.200   .     T
C518   C528    1.200   .     T
C519   C527    1.200   .     T
C520   C550    1.447   .     S
C520   O823    1.269   .     A
C521   C526    1.200   .     T
C522   C525    1.200   .     T
C523   C524    1.200   .     T
C529   C586    1.425   .     S
C531   C551    1.447   .     S
C531   O760    1.269   .     S
C533   C563    1.420   .     A
C533   C550    1.419   .     A
C534   C565    1.420   .     A
C534   C551    1.419   .     S
C535   C552    1.420   .     A
C535   C566    1.420   .     A
C535   O1663   1.407   1_545 S
C536   C567    1.420   .     A
C536   C554    1.420   .     S
C536   O1664   1.407   1_545 S
C537   C559    1.420   .     A
C537   C122    1.420   1_655 S
C537   O381    1.407   1_655 S
C538   C123    1.420   1_655 A
C538   C560    1.420   .     A
C538   O382    1.407   1_655 S
C539   C561    1.420   .     A
C539   C1408   1.420   .     S
C539   O1667   1.407   .     S
C540   C562    1.420   .     A
C540   C1410   1.419   .     A
C540   O1669   1.407   .     S
C541   C572    1.420   .     A
C541   O814    1.407   .     S
C541   C555    1.419   .     S
C542   O761    1.269   .     A
C542   C557    1.447   .     S
C542   O765    1.269   .     S
C543   O815    1.407   .     S
C543   C573    1.420   .     A
C543   C1412   1.420   .     S
C544   O816    1.407   .     S
C544   C574    1.420   .     A
C544   C129    1.420   1_655 A
C545   C576    1.420   .     A
C545   O817    1.407   .     S
C545   C558    1.420   .     A
C546   C568    1.420   .     A
C546   C1411   1.420   .     A
C546   O818    1.407   .     S
C547   C556    1.420   .     A
C547   C569    1.420   .     A
C547   O819    1.407   .     S
C548   C570    1.420   .     A
C548   O820    1.407   .     S
C548   C557    1.419   .     S
C549   C571    1.420   .     A
C549   O821    1.407   .     S
C549   C130    1.419   1_655 S
C552   C1395   1.420   1_545 S
C553   C558    1.447   .     S
C553   O762    1.269   .     S
C553   O766    1.269   .     S
C554   C1396   1.419   1_545 A
C555   C564    1.447   .     S
C555   C1402   1.420   1_545 A
C556   C575    1.447   .     S
C556   C1399   1.420   1_545 S
C559   C149    1.426   1_655 A
C559   C585    1.415   .     A
C560   C150    1.426   1_655 A
C560   C587    1.415   .     A
C561   C588    1.415   .     A
C561   C1435   1.426   .     S
C562   C589    1.415   .     A
C562   C1436   1.426   .     S
C563   C590    1.415   .     A
C563   C577    1.426   .     S
C564   O763    1.269   .     S
C564   O767    1.269   .     S
C565   C591    1.415   .     A
C565   C578    1.426   .     S
C566   C579    1.426   .     A
C566   C592    1.415   .     A
C567   C580    1.426   .     A
C567   C593    1.415   .     A
C568   C594    1.415   .     A
C568   C1437   1.426   .     S
C569   C582    1.426   .     A
C569   C595    1.415   .     A
C570   C596    1.415   .     A
C570   C583    1.426   .     S
C571   C156    1.426   1_655 A
C572   C581    1.426   .     A
C573   C1438   1.426   .     S
C574   C155    1.426   1_655 A
C575   O764    1.269   .     A
C575   O769    1.269   .     A
C576   C584    1.426   .     S
C577   C578    1.431   .     A
C579   C580    1.431   .     A
C579   C1417   1.426   1_545 S
C580   C1418   1.426   1_545 S
C581   C1424   1.426   1_545 S
C581   C582    1.431   1_556 S
C582   C1429   1.426   1_545 S
C582   C581    1.431   1_554 S
C583   C584    1.431   1_556 S
C584   C583    1.431   1_554 S
C585   O822    1.385   .     S
C585   C163    1.404   1_655 S
C586   O798    1.278   .     A
C586   O770    1.278   .     A
C587   O824    1.385   .     S
C587   C162    1.404   1_655 S
C588   O825    1.385   .     S
C588   C1449   1.404   .     S
C589   O826    1.385   .     S
C589   C1448   1.404   .     S
C590   O827    1.385   .     S
C591   O828    1.385   .     S
C592   O829    1.385   .     S
C592   C1445   1.404   1_545 S
C593   O830    1.385   .     S
C593   C1444   1.404   1_545 S
C594   O831    1.385   .     S
C594   C433    1.404   1_556 S
C595   O832    1.385   .     S
C595   C432    1.404   1_554 S
C596   O833    1.385   .     S
C596   C435    1.404   1_556 S
O757   Zn844   1.938   .     S
O757   Zn852   1.938   .     S
O757   Zn841   1.938   .     S
O757   Zn1704  1.938   1_545 S
O758   C1365   1.269   .     A
O758   Zn843   1.950   .     S
O759   Zn846   1.950   .     S
O759   C92     1.269   1_655 S
O760   Zn845   1.950   .     S
O761   Zn855   1.950   .     S
O762   Zn854   1.950   .     S
O763   Zn849   1.950   .     S
O764   Zn841   1.950   .     S
O765   Zn851   1.950   .     S
O766   Zn850   1.950   .     S
O767   Zn853   1.950   .     S
O768   Zn849   1.938   .     S
O768   Zn853   1.938   .     S
O768   Zn847   1.938   .     S
O768   Zn1699  1.938   1_545 S
O769   Zn852   1.950   .     S
O770   Zn844   1.918   .     S
O771   Zn843   1.918   .     S
O772   Zn846   1.918   .     S
O773   Zn845   1.918   .     S
O774   Zn848   1.918   .     S
O775   Zn847   1.918   .     S
O776   Zn842   1.918   .     S
O777   Zn856   1.918   .     S
O778   Zn843   1.918   .     S
O779   Zn842   1.938   .     S
O779   Zn850   1.938   .     S
O779   Zn854   1.938   .     S
O780   Zn844   1.918   .     S
O781   Zn856   1.918   .     S
O782   Zn842   1.918   .     S
O783   Zn847   1.918   .     S
O784   Zn848   1.918   .     S
O785   Zn845   1.918   .     S
O786   Zn846   1.918   .     S
O787   Zn423   1.918   1_655 S
O788   Zn850   1.918   .     S
O789   Zn1709  1.918   .     S
O790   Zn855   1.938   .     S
O790   Zn845   1.938   .     S
O790   Zn851   1.938   .     S
O791   Zn852   1.918   .     S
O792   Zn855   1.918   .     S
O793   Zn426   1.918   1_655 S
O794   Zn849   1.918   .     S
O795   Zn1697  1.918   .     S
O796   Zn422   1.918   1_655 S
O797   Zn851   1.918   .     S
O798   Zn841   1.918   .     S
O799   Zn1705  1.918   .     S
O800   Zn854   1.918   .     S
O801   Zn848   1.950   .     S
O801   C1285   1.269   .     S
O802   Zn427   1.918   1_655 S
O803   Zn1708  1.918   .     S
O804   Zn853   1.918   .     S
O805   C8      1.422   1_655 S
O805   C105    1.407   1_655 S
O806   C10     1.422   1_655 S
O806   C106    1.407   1_655 S
O807   C1296   1.422   .     S
O807   C1391   1.407   .     S
O808   C1392   1.407   .     S
O808   C1299   1.422   .     S
O811   C1305   1.422   1_545 S
O811   C1395   1.407   1_545 S
O812   Zn847   1.950   .     S
O813   C1307   1.422   1_545 S
O813   C1396   1.407   1_545 S
O823   Zn842   1.950   .     S
O834   Zn856   1.950   .     S
O834   C103    1.269   1_655 A
O840   Zn844   1.950   .     S
Zn841  O1651   1.918   1_545 S
Zn843  O1624   1.938   .     S
Zn846  O351    1.938   1_655 S
Zn848  O1613   1.938   .     S
Zn849  O1655   1.918   1_545 S
Zn852  O1659   1.918   1_545 S
Zn853  O1645   1.918   1_545 S
Zn856  O362    1.938   1_655 S
C857   C980    1.447   .     S
C857   O1268   1.269   .     A
C858   O1199   1.278   .     A
C858   C956    1.425   .     S
C858   O1227   1.278   .     A
C859   C999    1.415   .     A
C859   O1263   1.385   .     S
C859   C862    1.404   1_554 S
C860   C1000   1.415   .     A
C860   O1264   1.385   .     S
C860   C1023   1.404   1_556 S
C861   C1001   1.415   .     A
C861   O1265   1.385   .     S
C861   C1022   1.404   1_554 S
C862   C1002   1.415   .     A
C862   O1266   1.385   .     S
C862   C859    1.404   1_556 S
C863   O1267   1.385   .     S
C863   C1004   1.415   .     A
C863   C1024   1.404   1_554 S
C864   H1025   1.108   .     S
C864   H1097   1.115   .     S
C864   C865    1.522   .     S
C864   O1661   1.422   1_455 S
C865   H1108   1.106   .     S
C865   H1130   1.111   .     S
C865   H1119   1.112   .     S
C866   H1141   1.108   .     S
C866   H1152   1.115   .     S
C866   C867    1.522   .     S
C866   O1662   1.422   1_455 S
C867   H1163   1.106   .     S
C867   H1174   1.112   .     S
C867   H1026   1.111   .     S
C868   H1048   1.115   .     S
C868   H1037   1.108   .     S
C868   C870    1.522   .     S
C869   C955    1.425   .     S
C869   O1200   1.278   .     A
C869   O1224   1.278   .     A
C870   H1081   1.111   .     S
C870   H1059   1.106   .     S
C870   H1070   1.112   .     S
C871   H1092   1.108   .     S
C871   H1094   1.115   .     S
C871   C872    1.522   .     S
C872   H1095   1.106   .     S
C872   H1098   1.111   .     S
C872   H1096   1.112   .     S
C873   H1099   1.108   .     S
C873   C874    1.522   .     S
C873   H1100   1.115   .     S
C873   O1665   1.422   .     S
C874   H1103   1.111   .     S
C874   H1101   1.106   .     S
C874   H1102   1.112   .     S
C875   C876    1.522   .     S
C875   H1104   1.108   .     S
C875   H1105   1.115   .     S
C875   O1666   1.422   .     S
C876   H1109   1.111   .     S
C876   H1106   1.106   .     S
C876   H1107   1.112   .     S
C877   H1110   1.108   .     S
C877   C878    1.522   .     S
C877   H1111   1.115   .     S
C877   O383    1.422   1_565 S
C878   H1113   1.112   .     S
C878   H1114   1.111   .     S
C878   H1112   1.106   .     S
C879   H1116   1.115   .     S
C879   H1115   1.108   .     S
C879   C881    1.522   .     S
C879   O385    1.422   1_565 S
C880   C954    1.425   .     S
C880   O1201   1.278   .     A
C880   O1225   1.278   .     A
C881   H1118   1.112   .     S
C881   H1120   1.111   .     S
C881   H1117   1.106   .     S
C882   H1122   1.115   .     S
C882   O1242   1.422   .     S
C882   C883    1.522   .     S
C882   H1121   1.108   .     S
C883   H1125   1.111   .     S
C883   H1123   1.106   .     S
C883   H1124   1.112   .     S
C884   H1126   1.108   .     S
C884   O1243   1.422   .     S
C884   C885    1.522   .     S
C884   H1127   1.115   .     S
C885   H1129   1.112   .     S
C885   H1131   1.111   .     S
C885   H1128   1.106   .     S
C886   H1132   1.108   .     S
C886   C887    1.522   .     S
C886   O1244   1.422   .     S
C886   H1133   1.115   .     S
C887   H1136   1.111   .     S
C887   H1134   1.106   .     S
C887   H1135   1.112   .     S
C888   H1137   1.108   .     S
C888   C889    1.522   .     S
C888   H1138   1.115   .     S
C888   O1245   1.422   .     S
C889   H1139   1.106   .     S
C889   H1140   1.112   .     S
C889   H1142   1.111   .     S
C890   H1144   1.115   .     S
C890   C892    1.522   .     S
C890   O1246   1.422   .     S
C890   H1143   1.108   .     S
C891   O1202   1.278   .     A
C891   O1231   1.278   .     A
C891   C953    1.425   .     S
C892   H1145   1.106   .     S
C892   H1147   1.111   .     S
C892   H1146   1.112   .     S
C893   C894    1.522   .     S
C893   H1149   1.115   .     S
C893   H1148   1.108   .     S
C893   O1247   1.422   .     S
C894   H1150   1.106   .     S
C894   H1151   1.112   .     S
C894   H1153   1.111   .     S
C895   H1154   1.108   .     S
C895   C896    1.522   .     S
C895   H1155   1.115   .     S
C895   O1248   1.422   .     S
C896   H1156   1.106   .     S
C896   H1157   1.112   .     S
C896   H1158   1.111   .     S
C897   H1159   1.108   .     S
C897   O1249   1.422   .     S
C897   C898    1.522   .     S
C897   H1160   1.115   .     S
C898   H1161   1.106   .     S
C898   H1164   1.111   .     S
C898   H1162   1.112   .     S
C899   C900    1.524   .     S
C899   H1166   1.113   .     S
C899   O1250   1.413   .     S
C899   H1165   1.111   .     S
C900   H1168   1.109   .     S
C900   H1169   1.106   .     S
C900   H1167   1.103   .     S
C901   C903    1.524   .     S
C901   H1171   1.113   .     S
C901   H1170   1.111   .     S
C901   O1252   1.413   .     S
C902   O1232   1.278   .     A
C902   C952    1.425   .     S
C902   O1203   1.278   .     A
C903   H1175   1.106   .     S
C903   H1172   1.103   .     S
C903   H1173   1.109   .     S
C904   O1253   1.413   .     S
C904   H1176   1.111   .     S
C904   H1177   1.113   .     S
C904   C905    1.524   .     S
C905   H1180   1.106   .     S
C905   H1179   1.109   .     S
C905   H1178   1.104   .     S
C906   H1181   1.111   .     S
C906   H1182   1.113   .     S
C906   C907    1.524   .     S
C906   O1254   1.413   .     S
C907   H1184   1.109   .     S
C907   H1183   1.104   .     S
C907   H1027   1.106   .     S
C908   H1028   1.111   .     S
C908   H1029   1.113   .     S
C908   C909    1.524   .     S
C908   O1255   1.413   .     S
C909   H1031   1.109   .     S
C909   H1030   1.104   .     S
C909   H1032   1.106   .     S
C910   H1034   1.113   .     S
C910   O1256   1.413   .     S
C910   H1033   1.111   .     S
C910   C911    1.524   .     S
C911   H1036   1.109   .     S
C911   H1038   1.106   .     S
C911   H1035   1.103   .     S
C912   H1040   1.113   .     S
C912   C914    1.524   .     S
C912   H1039   1.111   .     S
C912   O1257   1.413   .     S
C913   C960    1.425   .     S
C913   O1228   1.278   .     A
C913   O1204   1.278   .     A
C914   H1042   1.109   .     S
C914   H1043   1.106   .     S
C914   H1041   1.103   .     S
C915   C916    1.524   .     S
C915   O1258   1.413   .     S
C915   H1044   1.111   .     S
C915   H1045   1.113   .     S
C916   H1049   1.106   .     S
C916   H1046   1.103   .     S
C916   H1047   1.109   .     S
C917   O1259   1.413   .     S
C917   C918    1.524   .     S
C917   H1051   1.113   .     S
C917   H1050   1.111   .     S
C918   H1052   1.103   .     S
C918   H1053   1.109   .     S
C918   H1054   1.106   .     S
C919   C920    1.524   .     S
C919   O1260   1.413   .     S
C919   H1056   1.113   .     S
C919   H1055   1.111   .     S
C920   H1060   1.106   .     S
C920   H1057   1.103   .     S
C920   H1058   1.109   .     S
C921   H1061   1.111   .     S
C921   O1261   1.413   .     S
C921   H1062   1.113   .     S
C921   C922    1.524   .     S
C922   H1063   1.104   .     S
C922   H1064   1.109   .     S
C922   H1065   1.106   .     S
C923   H1067   1.113   .     S
C923   O1263   1.413   .     S
C923   H1066   1.111   .     S
C923   C925    1.524   .     S
C924   O1205   1.278   .     A
C924   C958    1.425   .     S
C924   O1230   1.278   .     A
C925   H1069   1.109   .     S
C925   H1068   1.104   .     S
C925   H1071   1.106   .     S
C926   O1264   1.413   .     S
C926   C927    1.524   .     S
C926   H1073   1.113   .     S
C926   H1072   1.111   .     S
C927   H1076   1.106   .     S
C927   H1075   1.109   .     S
C927   H1074   1.104   .     S
C928   C929    1.524   .     S
C928   O1265   1.413   .     S
C928   H1078   1.113   .     S
C928   H1077   1.111   .     S
C929   H1082   1.106   .     S
C929   H1079   1.104   .     S
C929   H1080   1.109   .     S
C930   H1084   1.113   .     S
C930   C931    1.524   .     S
C930   H1083   1.111   .     S
C930   O1266   1.413   .     S
C931   H1085   1.104   .     S
C931   H1086   1.109   .     S
C931   H1087   1.106   .     S
C932   H1088   1.111   .     S
C932   O1267   1.413   .     S
C932   H1089   1.113   .     S
C932   C933    1.524   .     S
C933   H1091   1.109   .     S
C933   H1090   1.103   .     S
C933   H1093   1.106   .     S
C934   O1217   1.278   .     A
C934   O1206   1.278   .     A
C934   C949    1.425   .     S
C935   O1219   1.278   .     A
C935   O1208   1.278   .     A
C935   C947    1.425   .     S
C936   O1215   1.278   .     A
C936   O1209   1.278   .     A
C936   C946    1.425   .     S
C937   C982    1.447   .     S
C937   O1240   1.269   .     S
C938   C945    1.425   .     S
C938   O1210   1.278   .     A
C938   O1216   1.278   .     A
C939   O1222   1.278   .     A
C939   C944    1.425   .     S
C939   O1211   1.278   .     A
C940   O1212   1.278   .     A
C940   C943    1.425   .     S
C940   O1223   1.278   .     A
C941   O1213   1.278   .     A
C941   C951    1.425   .     S
C941   O1220   1.278   .     A
C942   O1214   1.278   .     A
C942   C950    1.425   .     S
C942   O1221   1.278   .     A
C943   C960    1.200   .     T
C944   C958    1.200   .     T
C945   C957    1.200   .     T
C946   C956    1.200   .     T
C947   C955    1.200   .     T
C948   C978    1.447   .     S
C948   O1251   1.269   .     A
C948   O1615   1.269   1_455 S
C949   C954    1.200   .     T
C950   C953    1.200   .     T
C951   C952    1.200   .     T
C957   C1014   1.425   .     S
C959   C979    1.447   .     S
C959   O1690   1.269   1_455 A
C959   O1188   1.269   .     S
C961   C991    1.420   .     A
C961   C978    1.419   .     A
C961   O1661   1.407   1_455 S
C962   C993    1.420   .     A
C962   C979    1.419   .     S
C962   O1662   1.407   1_455 S
C963   C980    1.420   .     A
C963   C994    1.420   .     A
C964   C995    1.420   .     A
C964   C982    1.420   .     S
C965   C987    1.420   .     A
C965   C1406   1.420   .     S
C965   O1665   1.407   .     S
C966   C1407   1.420   .     A
C966   C988    1.420   .     A
C966   O1666   1.407   .     S
C967   C989    1.420   .     A
C967   C124    1.420   1_565 S
C967   O383    1.407   1_565 S
C968   C990    1.420   .     A
C968   C126    1.419   1_565 A
C968   O385    1.407   1_565 S
C969   C1000   1.420   .     A
C969   O1242   1.407   .     S
C969   C983    1.419   .     S
C970   O1189   1.269   .     A
C970   C985    1.447   .     S
C970   O1193   1.269   .     S
C971   O1243   1.407   .     S
C971   C1001   1.420   .     A
C971   C128    1.420   1_565 S
C972   O1244   1.407   .     S
C972   C1002   1.420   .     A
C972   C1413   1.420   .     A
C973   C1004   1.420   .     A
C973   O1245   1.407   .     S
C973   C986    1.420   .     A
C974   C996    1.420   .     A
C974   C127    1.420   1_565 A
C974   O1246   1.407   .     S
C975   C984    1.420   .     A
C975   C997    1.420   .     A
C975   O1247   1.407   .     S
C976   C998    1.420   .     A
C976   O1248   1.407   .     S
C976   C985    1.419   .     S
C977   C999    1.420   .     A
C977   O1249   1.407   .     S
C977   C1414   1.419   .     S
C978   C1393   1.420   1_455 S
C979   C1394   1.420   1_455 A
C981   C986    1.447   .     S
C981   O1190   1.269   .     S
C981   O1194   1.269   .     S
C983   C992    1.447   .     S
C984   C1003   1.447   .     S
C985   C1400   1.420   1_455 A
C986   C1405   1.419   1_455 S
C987   C1433   1.426   .     A
C987   C1013   1.415   .     A
C988   C1434   1.426   .     A
C988   C1015   1.415   .     A
C989   C1016   1.415   .     A
C989   C151    1.426   1_565 S
C990   C1017   1.415   .     A
C990   C152    1.426   1_565 S
C991   C1018   1.415   .     A
C991   C1005   1.426   .     S
C992   O1191   1.269   .     S
C992   O1195   1.269   .     S
C993   C1019   1.415   .     A
C993   C1006   1.426   .     S
C994   C1007   1.426   .     A
C994   C1020   1.415   .     A
C995   C1008   1.426   .     A
C995   C1021   1.415   .     A
C996   C1022   1.415   .     A
C996   C153    1.426   1_565 S
C997   C1010   1.426   .     A
C997   C1023   1.415   .     A
C998   C1024   1.415   .     A
C998   C1011   1.426   .     S
C999   C1440   1.426   .     A
C1000  C1009   1.426   .     A
C1001  C154    1.426   1_565 S
C1002  C1439   1.426   .     A
C1003  O1192   1.269   .     A
C1003  O1197   1.269   .     A
C1004  C1012   1.426   .     S
C1005  C1415   1.426   1_455 A
C1005  C1006   1.431   .     A
C1006  C1416   1.426   1_455 A
C1007  C1008   1.431   .     A
C1009  C1010   1.431   1_556 S
C1010  C1009   1.431   1_554 S
C1011  C1430   1.426   1_455 A
C1011  C1012   1.431   1_556 S
C1012  C1427   1.426   1_455 A
C1012  C1011   1.431   1_554 S
C1013  O1250   1.385   .     S
C1013  C1447   1.404   .     S
C1014  O1226   1.278   .     A
C1014  O1198   1.278   .     A
C1015  O1252   1.385   .     S
C1015  C1446   1.404   .     S
C1016  O1253   1.385   .     S
C1016  C165    1.404   1_565 S
C1017  O1254   1.385   .     S
C1017  C164    1.404   1_565 S
C1018  O1255   1.385   .     S
C1018  C1443   1.404   1_455 S
C1019  O1256   1.385   .     S
C1019  C1441   1.404   1_455 S
C1020  O1257   1.385   .     S
C1021  O1258   1.385   .     S
C1022  O1259   1.385   .     S
C1022  C861    1.404   1_556 S
C1023  O1260   1.385   .     S
C1023  C860    1.404   1_554 S
C1024  O1261   1.385   .     S
C1024  C863    1.404   1_556 S
O1185  Zn1272  1.938   .     S
O1185  Zn1280  1.938   .     S
O1185  Zn1269  1.938   .     S
O1186  C81     1.269   1_565 A
O1186  Zn1271  1.950   .     S
O1187  Zn1274  1.950   .     S
O1187  C1376   1.269   .     S
O1188  Zn1273  1.950   .     S
O1189  Zn1283  1.950   .     S
O1190  Zn1282  1.950   .     S
O1191  Zn1277  1.950   .     S
O1192  Zn1269  1.950   .     S
O1193  Zn1279  1.950   .     S
O1194  Zn1278  1.950   .     S
O1195  Zn1281  1.950   .     S
O1196  Zn1277  1.938   .     S
O1196  Zn1281  1.938   .     S
O1196  Zn1275  1.938   .     S
O1197  Zn1280  1.950   .     S
O1198  Zn1272  1.918   .     S
O1199  Zn1271  1.918   .     S
O1200  Zn1274  1.918   .     S
O1201  Zn1273  1.918   .     S
O1202  Zn1276  1.918   .     S
O1203  Zn1275  1.918   .     S
O1204  Zn1270  1.918   .     S
O1205  Zn1284  1.918   .     S
O1206  Zn1271  1.918   .     S
O1207  Zn1702  1.938   1_455 S
O1207  Zn1270  1.938   .     S
O1207  Zn1278  1.938   .     S
O1207  Zn1282  1.938   .     S
O1208  Zn1272  1.918   .     S
O1209  Zn1284  1.918   .     S
O1210  Zn1270  1.918   .     S
O1211  Zn1275  1.918   .     S
O1212  Zn1276  1.918   .     S
O1213  Zn1273  1.918   .     S
O1214  Zn1274  1.918   .     S
O1215  Zn1707  1.918   .     S
O1216  Zn1278  1.918   .     S
O1217  Zn425   1.918   1_565 S
O1218  Zn1283  1.938   .     S
O1218  Zn1273  1.938   .     S
O1218  Zn1279  1.938   .     S
O1218  Zn1712  1.938   1_455 S
O1219  Zn1280  1.918   .     S
O1220  Zn1283  1.918   .     S
O1221  Zn1710  1.918   .     S
O1222  Zn1277  1.918   .     S
O1223  Zn413   1.918   1_565 S
O1224  Zn1706  1.918   .     S
O1225  Zn1279  1.918   .     S
O1226  Zn1269  1.918   .     S
O1227  Zn421   1.918   1_565 S
O1228  Zn1282  1.918   .     S
O1229  Zn1276  1.950   .     S
O1229  C1      1.269   1_565 S
O1230  Zn1711  1.918   .     S
O1231  Zn424   1.918   1_565 S
O1232  Zn1281  1.918   .     S
O1233  C1292   1.422   .     S
O1233  C1389   1.407   .     S
O1234  C1294   1.422   .     S
O1234  C1390   1.407   .     S
O1235  C12     1.422   1_565 S
O1235  C107    1.407   1_565 S
O1236  C108    1.407   1_565 S
O1236  C15     1.422   1_565 S
O1237  C1301   1.422   1_455 S
O1237  C1393   1.407   1_455 S
O1238  C1303   1.422   1_455 S
O1238  C1394   1.407   1_455 S
O1240  Zn1275  1.950   .     S
O1251  Zn1270  1.950   .     S
O1262  Zn1284  1.950   .     S
O1262  C1387   1.269   .     A
O1268  Zn1272  1.950   .     S
Zn1271 O340    1.938   1_565 S
Zn1274 O1635   1.938   .     S
Zn1276 O329    1.938   1_565 S
Zn1278 O1652   1.918   1_455 S
Zn1279 O1643   1.918   1_455 S
Zn1282 O1649   1.918   1_455 S
Zn1283 O1658   1.918   1_455 S
Zn1284 O1646   1.938   .     S
C1285  C1408   1.447   .     S
C1285  O1696   1.269   .     A
C1286  O1627   1.278   .     A
C1286  C1384   1.425   .     S
C1286  O1655   1.278   .     A
C1287  C1427   1.415   .     A
C1287  O1691   1.385   .     S
C1287  C1290   1.404   1_554 S
C1288  C1428   1.415   .     A
C1288  O1692   1.385   .     S
C1288  C1451   1.404   1_556 S
C1289  C1429   1.415   .     A
C1289  O1693   1.385   .     S
C1289  C1450   1.404   1_554 S
C1290  C1430   1.415   .     A
C1290  O1694   1.385   .     S
C1290  C1287   1.404   1_556 S
C1291  O1695   1.385   .     S
C1291  C1432   1.415   .     A
C1291  C1452   1.404   1_554 S
C1292  H1453   1.108   .     S
C1292  H1525   1.115   .     S
C1292  C1293   1.522   .     S
C1293  H1536   1.106   .     S
C1293  H1558   1.111   .     S
C1293  H1547   1.112   .     S
C1294  H1569   1.108   .     S
C1294  H1580   1.115   .     S
C1294  C1295   1.522   .     S
C1295  H1591   1.106   .     S
C1295  H1602   1.112   .     S
C1295  H1454   1.111   .     S
C1296  H1476   1.115   .     S
C1296  H1465   1.108   .     S
C1296  C1298   1.522   .     S
C1297  C1383   1.425   .     S
C1297  O1628   1.278   .     A
C1297  O1652   1.278   .     A
C1298  H1509   1.111   .     S
C1298  H1487   1.106   .     S
C1298  H1498   1.112   .     S
C1299  H1520   1.108   .     S
C1299  H1522   1.115   .     S
C1299  C1300   1.522   .     S
C1300  H1523   1.106   .     S
C1300  H1526   1.111   .     S
C1300  H1524   1.112   .     S
C1301  H1527   1.108   .     S
C1301  C1302   1.522   .     S
C1301  H1528   1.115   .     S
C1301  O1237   1.422   1_655 S
C1302  H1531   1.111   .     S
C1302  H1529   1.106   .     S
C1302  H1530   1.112   .     S
C1303  C1304   1.522   .     S
C1303  H1532   1.108   .     S
C1303  H1533   1.115   .     S
C1303  O1238   1.422   1_655 S
C1304  H1537   1.111   .     S
C1304  H1534   1.106   .     S
C1304  H1535   1.112   .     S
C1305  H1538   1.108   .     S
C1305  C1306   1.522   .     S
C1305  H1539   1.115   .     S
C1305  O811    1.422   1_565 S
C1306  H1541   1.112   .     S
C1306  H1542   1.111   .     S
C1306  H1540   1.106   .     S
C1307  H1544   1.115   .     S
C1307  H1543   1.108   .     S
C1307  C1309   1.522   .     S
C1307  O813    1.422   1_565 S
C1308  C1382   1.425   .     S
C1308  O1629   1.278   .     A
C1308  O1653   1.278   .     A
C1309  H1546   1.112   .     S
C1309  H1548   1.111   .     S
C1309  H1545   1.106   .     S
C1310  H1550   1.115   .     S
C1310  O1670   1.422   .     S
C1310  C1311   1.522   .     S
C1310  H1549   1.108   .     S
C1311  H1553   1.111   .     S
C1311  H1551   1.106   .     S
C1311  H1552   1.112   .     S
C1312  H1554   1.108   .     S
C1312  O1671   1.422   .     S
C1312  C1313   1.522   .     S
C1312  H1555   1.115   .     S
C1313  H1557   1.112   .     S
C1313  H1559   1.111   .     S
C1313  H1556   1.106   .     S
C1314  H1560   1.108   .     S
C1314  C1315   1.522   .     S
C1314  O1672   1.422   .     S
C1314  H1561   1.115   .     S
C1315  H1564   1.111   .     S
C1315  H1562   1.106   .     S
C1315  H1563   1.112   .     S
C1316  H1565   1.108   .     S
C1316  C1317   1.522   .     S
C1316  H1566   1.115   .     S
C1316  O1673   1.422   .     S
C1317  H1567   1.106   .     S
C1317  H1568   1.112   .     S
C1317  H1570   1.111   .     S
C1318  H1572   1.115   .     S
C1318  C1320   1.522   .     S
C1318  O1674   1.422   .     S
C1318  H1571   1.108   .     S
C1319  O1630   1.278   .     A
C1319  O1659   1.278   .     A
C1319  C1381   1.425   .     S
C1320  H1573   1.106   .     S
C1320  H1575   1.111   .     S
C1320  H1574   1.112   .     S
C1321  C1322   1.522   .     S
C1321  H1577   1.115   .     S
C1321  H1576   1.108   .     S
C1321  O1675   1.422   .     S
C1322  H1578   1.106   .     S
C1322  H1579   1.112   .     S
C1322  H1581   1.111   .     S
C1323  H1582   1.108   .     S
C1323  C1324   1.522   .     S
C1323  H1583   1.115   .     S
C1323  O1676   1.422   .     S
C1324  H1584   1.106   .     S
C1324  H1585   1.112   .     S
C1324  H1586   1.111   .     S
C1325  H1587   1.108   .     S
C1325  O1677   1.422   .     S
C1325  C1326   1.522   .     S
C1325  H1588   1.115   .     S
C1326  H1589   1.106   .     S
C1326  H1592   1.111   .     S
C1326  H1590   1.112   .     S
C1327  C1328   1.524   .     S
C1327  H1594   1.113   .     S
C1327  O1678   1.413   .     S
C1327  H1593   1.111   .     S
C1328  H1596   1.109   .     S
C1328  H1597   1.106   .     S
C1328  H1595   1.103   .     S
C1329  C1331   1.524   .     S
C1329  H1599   1.113   .     S
C1329  H1598   1.111   .     S
C1329  O1680   1.413   .     S
C1330  O1660   1.278   .     A
C1330  C1380   1.425   .     S
C1330  O1631   1.278   .     A
C1331  H1603   1.106   .     S
C1331  H1600   1.103   .     S
C1331  H1601   1.109   .     S
C1332  O1681   1.413   .     S
C1332  H1604   1.111   .     S
C1332  H1605   1.113   .     S
C1332  C1333   1.524   .     S
C1333  H1608   1.106   .     S
C1333  H1607   1.109   .     S
C1333  H1606   1.104   .     S
C1334  H1609   1.111   .     S
C1334  H1610   1.113   .     S
C1334  C1335   1.524   .     S
C1334  O1682   1.413   .     S
C1335  H1612   1.109   .     S
C1335  H1611   1.104   .     S
C1335  H1455   1.106   .     S
C1336  H1456   1.111   .     S
C1336  H1457   1.113   .     S
C1336  C1337   1.524   .     S
C1336  O1683   1.413   .     S
C1337  H1459   1.109   .     S
C1337  H1458   1.104   .     S
C1337  H1460   1.106   .     S
C1338  H1462   1.113   .     S
C1338  O1684   1.413   .     S
C1338  H1461   1.111   .     S
C1338  C1339   1.524   .     S
C1339  H1464   1.109   .     S
C1339  H1466   1.106   .     S
C1339  H1463   1.103   .     S
C1340  H1468   1.113   .     S
C1340  C1342   1.524   .     S
C1340  H1467   1.111   .     S
C1340  O1685   1.413   .     S
C1341  C1388   1.425   .     S
C1341  O1656   1.278   .     A
C1341  O1632   1.278   .     A
C1342  H1470   1.109   .     S
C1342  H1471   1.106   .     S
C1342  H1469   1.103   .     S
C1343  C1344   1.524   .     S
C1343  O1686   1.413   .     S
C1343  H1472   1.111   .     S
C1343  H1473   1.113   .     S
C1344  H1477   1.106   .     S
C1344  H1474   1.103   .     S
C1344  H1475   1.109   .     S
C1345  O1687   1.413   .     S
C1345  C1346   1.524   .     S
C1345  H1479   1.113   .     S
C1345  H1478   1.111   .     S
C1346  H1480   1.103   .     S
C1346  H1481   1.109   .     S
C1346  H1482   1.106   .     S
C1347  C1348   1.524   .     S
C1347  O1688   1.413   .     S
C1347  H1484   1.113   .     S
C1347  H1483   1.111   .     S
C1348  H1488   1.106   .     S
C1348  H1485   1.103   .     S
C1348  H1486   1.109   .     S
C1349  H1489   1.111   .     S
C1349  O1689   1.413   .     S
C1349  H1490   1.113   .     S
C1349  C1350   1.524   .     S
C1350  H1491   1.104   .     S
C1350  H1492   1.109   .     S
C1350  H1493   1.106   .     S
C1351  H1495   1.113   .     S
C1351  O1691   1.413   .     S
C1351  H1494   1.111   .     S
C1351  C1353   1.524   .     S
C1352  O1633   1.278   .     A
C1352  C1386   1.425   .     S
C1352  O1658   1.278   .     A
C1353  H1497   1.109   .     S
C1353  H1496   1.104   .     S
C1353  H1499   1.106   .     S
C1354  O1692   1.413   .     S
C1354  C1355   1.524   .     S
C1354  H1501   1.113   .     S
C1354  H1500   1.111   .     S
C1355  H1504   1.106   .     S
C1355  H1503   1.109   .     S
C1355  H1502   1.104   .     S
C1356  C1357   1.524   .     S
C1356  O1693   1.413   .     S
C1356  H1506   1.113   .     S
C1356  H1505   1.111   .     S
C1357  H1510   1.106   .     S
C1357  H1507   1.104   .     S
C1357  H1508   1.109   .     S
C1358  H1512   1.113   .     S
C1358  C1359   1.524   .     S
C1358  H1511   1.111   .     S
C1358  O1694   1.413   .     S
C1359  H1513   1.104   .     S
C1359  H1514   1.109   .     S
C1359  H1515   1.106   .     S
C1360  H1516   1.111   .     S
C1360  O1695   1.413   .     S
C1360  H1517   1.113   .     S
C1360  C1361   1.524   .     S
C1361  H1519   1.109   .     S
C1361  H1518   1.103   .     S
C1361  H1521   1.106   .     S
C1362  O1645   1.278   .     A
C1362  O1634   1.278   .     A
C1362  C1377   1.425   .     S
C1363  O1647   1.278   .     A
C1363  O1636   1.278   .     A
C1363  C1375   1.425   .     S
C1364  O1643   1.278   .     A
C1364  O1637   1.278   .     A
C1364  C1374   1.425   .     S
C1365  C1410   1.447   .     S
C1365  O1668   1.269   .     S
C1366  C1373   1.425   .     S
C1366  O1638   1.278   .     A
C1366  O1644   1.278   .     A
C1367  O1650   1.278   .     A
C1367  C1372   1.425   .     S
C1367  O1639   1.278   .     A
C1368  O1640   1.278   .     A
C1368  C1371   1.425   .     S
C1368  O1651   1.278   .     A
C1369  O1641   1.278   .     A
C1369  C1379   1.425   .     S
C1369  O1648   1.278   .     A
C1370  O1642   1.278   .     A
C1370  C1378   1.425   .     S
C1370  O1649   1.278   .     A
C1371  C1388   1.200   .     T
C1372  C1386   1.200   .     T
C1373  C1385   1.200   .     T
C1374  C1384   1.200   .     T
C1375  C1383   1.200   .     T
C1376  C1406   1.447   .     S
C1376  O1679   1.269   .     A
C1377  C1382   1.200   .     T
C1378  C1381   1.200   .     T
C1379  C1380   1.200   .     T
C1385  C1442   1.425   .     S
C1387  C1407   1.447   .     S
C1387  O1616   1.269   .     S
C1389  C1419   1.420   .     A
C1389  C1406   1.419   .     A
C1390  C1421   1.420   .     A
C1390  C1407   1.419   .     S
C1391  C1408   1.420   .     A
C1391  C1422   1.420   .     A
C1392  C1423   1.420   .     A
C1392  C1410   1.420   .     S
C1393  C1415   1.420   .     A
C1393  C978    1.420   1_655 S
C1393  O1237   1.407   1_655 S
C1394  C979    1.420   1_655 A
C1394  C1416   1.420   .     A
C1394  O1238   1.407   1_655 S
C1395  C1417   1.420   .     A
C1395  C552    1.420   1_565 S
C1395  O811    1.407   1_565 S
C1396  C1418   1.420   .     A
C1396  C554    1.419   1_565 A
C1396  O813    1.407   1_565 S
C1397  C1428   1.420   .     A
C1397  O1670   1.407   .     S
C1397  C1411   1.419   .     S
C1398  O1617   1.269   .     A
C1398  C1413   1.447   .     S
C1398  O1621   1.269   .     S
C1399  O1671   1.407   .     S
C1399  C1429   1.420   .     A
C1399  C556    1.420   1_565 S
C1400  O1672   1.407   .     S
C1400  C1430   1.420   .     A
C1400  C985    1.420   1_655 A
C1401  C1432   1.420   .     A
C1401  O1673   1.407   .     S
C1401  C1414   1.420   .     A
C1402  C1424   1.420   .     A
C1402  C555    1.420   1_565 A
C1402  O1674   1.407   .     S
C1403  C1412   1.420   .     A
C1403  C1425   1.420   .     A
C1403  O1675   1.407   .     S
C1404  C1426   1.420   .     A
C1404  O1676   1.407   .     S
C1404  C1413   1.419   .     S
C1405  C1427   1.420   .     A
C1405  O1677   1.407   .     S
C1405  C986    1.419   1_655 S
C1409  C1414   1.447   .     S
C1409  O1618   1.269   .     S
C1409  O1622   1.269   .     S
C1411  C1420   1.447   .     S
C1412  C1431   1.447   .     S
C1415  C1005   1.426   1_655 A
C1415  C1441   1.415   .     A
C1416  C1006   1.426   1_655 A
C1416  C1443   1.415   .     A
C1417  C1444   1.415   .     A
C1417  C579    1.426   1_565 S
C1418  C1445   1.415   .     A
C1418  C580    1.426   1_565 S
C1419  C1446   1.415   .     A
C1419  C1433   1.426   .     S
C1420  O1619   1.269   .     S
C1420  O1623   1.269   .     S
C1421  C1447   1.415   .     A
C1421  C1434   1.426   .     S
C1422  C1435   1.426   .     A
C1422  C1448   1.415   .     A
C1423  C1436   1.426   .     A
C1423  C1449   1.415   .     A
C1424  C1450   1.415   .     A
C1424  C581    1.426   1_565 S
C1425  C1438   1.426   .     A
C1425  C1451   1.415   .     A
C1426  C1452   1.415   .     A
C1426  C1439   1.426   .     S
C1427  C1012   1.426   1_655 A
C1428  C1437   1.426   .     A
C1429  C582    1.426   1_565 S
C1430  C1011   1.426   1_655 A
C1431  O1620   1.269   .     A
C1431  O1625   1.269   .     A
C1432  C1440   1.426   .     S
C1433  C1434   1.431   .     A
C1435  C1436   1.431   .     A
C1437  C1438   1.431   1_556 S
C1438  C1437   1.431   1_554 S
C1439  C1440   1.431   1_556 S
C1440  C1439   1.431   1_554 S
C1441  O1678   1.385   .     S
C1441  C1019   1.404   1_655 S
C1442  O1654   1.278   .     A
C1442  O1626   1.278   .     A
C1443  O1680   1.385   .     S
C1443  C1018   1.404   1_655 S
C1444  O1681   1.385   .     S
C1444  C593    1.404   1_565 S
C1445  O1682   1.385   .     S
C1445  C592    1.404   1_565 S
C1446  O1683   1.385   .     S
C1447  O1684   1.385   .     S
C1448  O1685   1.385   .     S
C1449  O1686   1.385   .     S
C1450  O1687   1.385   .     S
C1450  C1289   1.404   1_556 S
C1451  O1688   1.385   .     S
C1451  C1288   1.404   1_554 S
C1452  O1689   1.385   .     S
C1452  C1291   1.404   1_556 S
O1613  Zn1700  1.938   .     S
O1613  Zn1708  1.938   .     S
O1613  Zn1697  1.938   .     S
O1614  C509    1.269   1_565 A
O1614  Zn1699  1.950   .     S
O1615  Zn1702  1.950   .     S
O1615  C948    1.269   1_655 S
O1616  Zn1701  1.950   .     S
O1617  Zn1711  1.950   .     S
O1618  Zn1710  1.950   .     S
O1619  Zn1705  1.950   .     S
O1620  Zn1697  1.950   .     S
O1621  Zn1707  1.950   .     S
O1622  Zn1706  1.950   .     S
O1623  Zn1709  1.950   .     S
O1624  Zn1705  1.938   .     S
O1624  Zn1709  1.938   .     S
O1624  Zn1703  1.938   .     S
O1625  Zn1708  1.950   .     S
O1626  Zn1700  1.918   .     S
O1627  Zn1699  1.918   .     S
O1628  Zn1702  1.918   .     S
O1629  Zn1701  1.918   .     S
O1630  Zn1704  1.918   .     S
O1631  Zn1703  1.918   .     S
O1632  Zn1698  1.918   .     S
O1633  Zn1712  1.918   .     S
O1634  Zn1699  1.918   .     S
O1635  Zn1698  1.938   .     S
O1635  Zn1706  1.938   .     S
O1635  Zn1710  1.938   .     S
O1636  Zn1700  1.918   .     S
O1637  Zn1712  1.918   .     S
O1638  Zn1698  1.918   .     S
O1639  Zn1703  1.918   .     S
O1640  Zn1704  1.918   .     S
O1641  Zn1701  1.918   .     S
O1642  Zn1702  1.918   .     S
O1643  Zn1279  1.918   1_655 S
O1644  Zn1706  1.918   .     S
O1645  Zn853   1.918   1_565 S
O1646  Zn1711  1.938   .     S
O1646  Zn1701  1.938   .     S
O1646  Zn1707  1.938   .     S
O1647  Zn1708  1.918   .     S
O1648  Zn1711  1.918   .     S
O1649  Zn1282  1.918   1_655 S
O1650  Zn1705  1.918   .     S
O1651  Zn841   1.918   1_565 S
O1652  Zn1278  1.918   1_655 S
O1653  Zn1707  1.918   .     S
O1654  Zn1697  1.918   .     S
O1655  Zn849   1.918   1_565 S
O1656  Zn1710  1.918   .     S
O1657  Zn1704  1.950   .     S
O1657  C429    1.269   1_565 S
O1658  Zn1283  1.918   1_655 S
O1659  Zn852   1.918   1_565 S
O1660  Zn1709  1.918   .     S
O1661  C864    1.422   1_655 S
O1661  C961    1.407   1_655 S
O1662  C866    1.422   1_655 S
O1662  C962    1.407   1_655 S
O1663  C440    1.422   1_565 S
O1663  C535    1.407   1_565 S
O1664  C536    1.407   1_565 S
O1664  C443    1.422   1_565 S
O1668  Zn1703  1.950   .     S
O1679  Zn1698  1.950   .     S
O1690  Zn1712  1.950   .     S
O1690  C959    1.269   1_655 A
O1696  Zn1700  1.950   .     S
Zn1699 O768    1.938   1_565 S
Zn1702 O1207   1.938   1_655 S
Zn1704 O757    1.938   1_565 S
Zn1712 O1218   1.938   1_655 S
