data_str_m1_o10_o16_pcu_sym.47
_audit_creation_date              2020-01-03
_audit_creation_method            'Materials Studio'
_symmetry_space_group_name_H-M    'P1'
_symmetry_Int_Tables_number       1
_symmetry_cell_setting            triclinic
loop_
_symmetry_equiv_pos_as_xyz
  x,y,z
_cell_length_a                    32.6073
_cell_length_b                    32.5743
_cell_length_c                    30.9614
_cell_angle_alpha                 96.4222
_cell_angle_beta                  74.4397
_cell_angle_gamma                 98.3139
loop_
_atom_site_label
_atom_site_type_symbol
_atom_site_fract_x
_atom_site_fract_y
_atom_site_fract_z
_atom_site_U_iso_or_equiv
_atom_site_adp_type
_atom_site_occupancy
C1     C     0.05297   0.15978   0.25984   0.00000  Uiso   1.00
C2     C     0.16515   0.15015   0.05898   0.00000  Uiso   1.00
C3     C     0.23755   0.13857   0.05648   0.00000  Uiso   1.00
C4     C     0.28076   0.17421   0.24047   0.00000  Uiso   1.00
C5     C     0.13604   0.18661   0.42036   0.00000  Uiso   1.00
C6     C     0.32636   0.17963   0.23954   0.00000  Uiso   1.00
C7     C     0.00758   0.15622   0.26429   0.00000  Uiso   1.00
C8     C     0.17913   0.32256   0.23763   0.00000  Uiso   1.00
C9     C     0.15053   0.01214   0.26590   0.00000  Uiso   1.00
C10    C     0.15667   0.05604   0.25981   0.00000  Uiso   1.00
C11    C     0.17626   0.27793   0.24027   0.00000  Uiso   1.00
C12    C     0.07672   0.17902   0.48698   0.00000  Uiso   1.00
C13    C     0.18563   0.14828   0.12931   0.00000  Uiso   1.00
C14    C     0.14861   0.18468   0.37094   0.00000  Uiso   1.00
C15    C     0.25056   0.14499   0.01106   0.00000  Uiso   1.00
C16    C     0.19525   0.14237   0.08065   0.00000  Uiso   1.00
C17    C     0.09260   0.18807   0.44221   0.00000  Uiso   1.00
C18    C     0.31379   0.12843   0.33307   0.00000  Uiso   1.00
C19    C     0.00704   0.09784   0.34409   0.00000  Uiso   1.00
C20    C     0.00313   0.10010   0.39451   0.00000  Uiso   1.00
C21    C     0.09800   0.02062   0.33467   0.00000  Uiso   1.00
C22    C     0.12565   0.02630   0.36852   0.00000  Uiso   1.00
C23    C     0.10415   0.16769   0.01013   0.00000  Uiso   1.00
C24    C     0.10894   0.05726   0.40795   0.00000  Uiso   1.00
C25    C     0.02106   0.21328   0.02962   0.00000  Uiso   1.00
C26    C     0.01235   0.21001   0.08035   0.00000  Uiso   1.00
C27    C     0.32527   0.24741   0.10717   0.00000  Uiso   1.00
C28    C     0.01596   0.24873   0.23286   0.00000  Uiso   1.00
C29    C     0.05266   0.27931   0.20840   0.00000  Uiso   1.00
C30    C     0.04656   0.32417   0.22655   0.00000  Uiso   1.00
C31    C     0.14866   0.16809   0.48999   0.00000  Uiso   1.00
C32    C     0.16474   0.17868   0.44471   0.00000  Uiso   1.00
C33    C     0.17764   0.15740   0.01295   0.00000  Uiso   1.00
C34    C     0.22153   0.15606   0.48960   0.00000  Uiso   1.00
C35    C     0.23672   0.16804   0.44588   0.00000  Uiso   1.00
C36    C     0.20912   0.18055   0.42434   0.00000  Uiso   1.00
H37    H     0.26105   0.13297   0.07344   0.00000  Uiso   1.00
H38    H     0.32427   0.16088   0.34514   0.00000  Uiso   1.00
H39    H     0.32910   0.06565   0.33264   0.00000  Uiso   1.00
H40    H     0.04132   0.10510   0.32620   0.00000  Uiso   1.00
H41    H     0.01531   0.13175   0.40650   0.00000  Uiso   1.00
H42    H     0.02230   0.07733   0.40149   0.00000  Uiso   1.00
H43    H     0.30248   0.09246   0.41326   0.00000  Uiso   1.00
H44    H     0.06564   0.00581   0.35163   0.00000  Uiso   1.00
H45    H     0.09259   0.05092   0.32514   0.00000  Uiso   1.00
H46    H     0.12548   0.32910   0.38144   0.00000  Uiso   1.00
H47    H     0.15935   0.03771   0.35195   0.00000  Uiso   1.00
H48    H     0.20569   0.00392   0.21256   0.00000  Uiso   1.00
H49    H     0.10854   0.08796   0.39574   0.00000  Uiso   1.00
H50    H     0.13021   0.06147   0.43115   0.00000  Uiso   1.00
H51    H     0.07606   0.04549   0.42681   0.00000  Uiso   1.00
H52    H     0.32425   0.21872   0.02206   0.00000  Uiso   1.00
H53    H     0.04480   0.24104   0.01916   0.00000  Uiso   1.00
H54    H     0.32376   0.18123   0.09008   0.00000  Uiso   1.00
H55    H     0.04292   0.20822   0.08903   0.00000  Uiso   1.00
H56    H     0.01363   0.27659   0.09872   0.00000  Uiso   1.00
H57    H     0.31934   0.24400   0.14367   0.00000  Uiso   1.00
H58    H     0.29412   0.24939   0.09980   0.00000  Uiso   1.00
H59    H     0.27047   0.16899   0.42869   0.00000  Uiso   1.00
H60    H     0.01651   0.25094   0.26895   0.00000  Uiso   1.00
H61    H     0.31839   0.25775   0.23043   0.00000  Uiso   1.00
H62    H     0.08350   0.27193   0.21272   0.00000  Uiso   1.00
H63    H     0.05425   0.27613   0.17188   0.00000  Uiso   1.00
H64    H     0.01670   0.33268   0.22096   0.00000  Uiso   1.00
H65    H     0.07412   0.01212   0.20875   0.00000  Uiso   1.00
H66    H     0.04469   0.32820   0.26310   0.00000  Uiso   1.00
H67    H     0.28389   0.14348   0.49328   0.00000  Uiso   1.00
H68    H     0.13351   0.15426   0.07982   0.00000  Uiso   1.00
H69    H     0.07022   0.19330   0.42366   0.00000  Uiso   1.00
H70    H     0.08933   0.15762   0.04330   0.00000  Uiso   1.00
H71    H     0.22319   0.19193   0.39145   0.00000  Uiso   1.00
H72    H     0.27985   0.12112   0.35215   0.00000  Uiso   1.00
O73    O     0.16667   0.16667   0.25000   0.00000  Uiso   1.00
O74    O     0.15451   0.12637   0.15459   0.00000  Uiso   1.00
O75    O     0.12940   0.20391   0.34968   0.00000  Uiso   1.00
O76    O     0.20824   0.17759   0.14606   0.00000  Uiso   1.00
O77    O     0.17451   0.15880   0.34968   0.00000  Uiso   1.00
O78    O     0.31490   0.12340   0.28673   0.00000  Uiso   1.00
O79    O     0.11498   0.32686   0.29696   0.00000  Uiso   1.00
O80    O     0.03302   0.17526   0.00606   0.00000  Uiso   1.00
O81    O     0.02139   0.20815   0.21250   0.00000  Uiso   1.00
O82    O     0.17930   0.08019   0.28214   0.00000  Uiso   1.00
O83    O     0.14632   0.26085   0.27014   0.00000  Uiso   1.00
O84    O     0.07412   0.13291   0.23413   0.00000  Uiso   1.00
O85    O     0.26693   0.19272   0.21361   0.00000  Uiso   1.00
O86    O     0.07071   0.18878   0.28213   0.00000  Uiso   1.00
O87    O     0.25491   0.15226   0.27014   0.00000  Uiso   1.00
O88    O     0.13760   0.06944   0.23413   0.00000  Uiso   1.00
O89    O     0.20345   0.25620   0.21361   0.00000  Uiso   1.00
Zn90   Zn    0.19338   0.13994   0.28734   0.00000  Uiso   1.00
Zn91   Zn    0.13379   0.12458   0.21876   0.00000  Uiso   1.00
Zn92   Zn    0.21056   0.19775   0.20657   0.00000  Uiso   1.00
Zn93   Zn    0.12893   0.20439   0.28734   0.00000  Uiso   1.00
C94    C     0.38631   0.15978   0.25984   0.00000  Uiso   1.00
C95    C     0.49849   0.15015   0.05898   0.00000  Uiso   1.00
C96    C     0.57088   0.13857   0.05648   0.00000  Uiso   1.00
C97    C     0.61409   0.17421   0.24047   0.00000  Uiso   1.00
C98    C     0.46937   0.18661   0.42036   0.00000  Uiso   1.00
C99    C     0.65970   0.17963   0.23954   0.00000  Uiso   1.00
C100   C     0.34091   0.15622   0.26429   0.00000  Uiso   1.00
C101   C     0.51246   0.32256   0.23763   0.00000  Uiso   1.00
C102   C     0.48387   0.01214   0.26590   0.00000  Uiso   1.00
C103   C     0.49001   0.05604   0.25981   0.00000  Uiso   1.00
C104   C     0.50959   0.27793   0.24027   0.00000  Uiso   1.00
C105   C     0.41005   0.17902   0.48698   0.00000  Uiso   1.00
C106   C     0.51897   0.14828   0.12931   0.00000  Uiso   1.00
C107   C     0.48194   0.18468   0.37094   0.00000  Uiso   1.00
C108   C     0.58390   0.14499   0.01106   0.00000  Uiso   1.00
C109   C     0.52859   0.14237   0.08065   0.00000  Uiso   1.00
C110   C     0.42594   0.18807   0.44221   0.00000  Uiso   1.00
C111   C     0.64712   0.12843   0.33307   0.00000  Uiso   1.00
C112   C     0.34037   0.09784   0.34409   0.00000  Uiso   1.00
C113   C     0.33646   0.10010   0.39451   0.00000  Uiso   1.00
C114   C     0.43133   0.02062   0.33467   0.00000  Uiso   1.00
C115   C     0.45898   0.02630   0.36852   0.00000  Uiso   1.00
C116   C     0.43748   0.16769   0.01013   0.00000  Uiso   1.00
C117   C     0.44227   0.05726   0.40795   0.00000  Uiso   1.00
C118   C     0.35439   0.21328   0.02962   0.00000  Uiso   1.00
C119   C     0.34568   0.21001   0.08035   0.00000  Uiso   1.00
C120   C     0.65861   0.24741   0.10717   0.00000  Uiso   1.00
C121   C     0.34930   0.24873   0.23286   0.00000  Uiso   1.00
C122   C     0.38599   0.27931   0.20840   0.00000  Uiso   1.00
C123   C     0.37989   0.32417   0.22655   0.00000  Uiso   1.00
C124   C     0.48200   0.16809   0.48999   0.00000  Uiso   1.00
C125   C     0.49807   0.17868   0.44471   0.00000  Uiso   1.00
C126   C     0.51097   0.15740   0.01295   0.00000  Uiso   1.00
C127   C     0.55486   0.15606   0.48960   0.00000  Uiso   1.00
C128   C     0.57005   0.16804   0.44588   0.00000  Uiso   1.00
C129   C     0.54245   0.18055   0.42434   0.00000  Uiso   1.00
H130   H     0.59438   0.13297   0.07344   0.00000  Uiso   1.00
H131   H     0.65760   0.16088   0.34514   0.00000  Uiso   1.00
H132   H     0.66243   0.06565   0.33264   0.00000  Uiso   1.00
H133   H     0.37465   0.10510   0.32620   0.00000  Uiso   1.00
H134   H     0.34865   0.13175   0.40650   0.00000  Uiso   1.00
H135   H     0.35563   0.07733   0.40149   0.00000  Uiso   1.00
H136   H     0.63581   0.09246   0.41326   0.00000  Uiso   1.00
H137   H     0.39897   0.00581   0.35163   0.00000  Uiso   1.00
H138   H     0.42593   0.05092   0.32514   0.00000  Uiso   1.00
H139   H     0.45882   0.32910   0.38144   0.00000  Uiso   1.00
H140   H     0.49268   0.03771   0.35195   0.00000  Uiso   1.00
H141   H     0.53903   0.00392   0.21256   0.00000  Uiso   1.00
H142   H     0.44187   0.08796   0.39574   0.00000  Uiso   1.00
H143   H     0.46354   0.06147   0.43115   0.00000  Uiso   1.00
H144   H     0.40939   0.04549   0.42681   0.00000  Uiso   1.00
H145   H     0.65758   0.21872   0.02206   0.00000  Uiso   1.00
H146   H     0.37814   0.24104   0.01916   0.00000  Uiso   1.00
H147   H     0.65710   0.18123   0.09008   0.00000  Uiso   1.00
H148   H     0.37626   0.20822   0.08903   0.00000  Uiso   1.00
H149   H     0.34696   0.27659   0.09872   0.00000  Uiso   1.00
H150   H     0.65268   0.24400   0.14367   0.00000  Uiso   1.00
H151   H     0.62746   0.24939   0.09980   0.00000  Uiso   1.00
H152   H     0.60381   0.16899   0.42869   0.00000  Uiso   1.00
H153   H     0.34984   0.25094   0.26895   0.00000  Uiso   1.00
H154   H     0.65173   0.25775   0.23043   0.00000  Uiso   1.00
H155   H     0.41684   0.27193   0.21272   0.00000  Uiso   1.00
H156   H     0.38758   0.27613   0.17188   0.00000  Uiso   1.00
H157   H     0.35004   0.33268   0.22096   0.00000  Uiso   1.00
H158   H     0.40746   0.01212   0.20875   0.00000  Uiso   1.00
H159   H     0.37802   0.32820   0.26310   0.00000  Uiso   1.00
H160   H     0.61722   0.14348   0.49328   0.00000  Uiso   1.00
H161   H     0.46684   0.15426   0.07982   0.00000  Uiso   1.00
H162   H     0.40355   0.19330   0.42366   0.00000  Uiso   1.00
H163   H     0.42266   0.15762   0.04330   0.00000  Uiso   1.00
H164   H     0.55652   0.19193   0.39145   0.00000  Uiso   1.00
H165   H     0.61318   0.12112   0.35215   0.00000  Uiso   1.00
O166   O     0.50000   0.16667   0.25000   0.00000  Uiso   1.00
O167   O     0.48784   0.12637   0.15459   0.00000  Uiso   1.00
O168   O     0.46274   0.20391   0.34968   0.00000  Uiso   1.00
O169   O     0.54157   0.17759   0.14606   0.00000  Uiso   1.00
O170   O     0.50785   0.15880   0.34968   0.00000  Uiso   1.00
O171   O     0.64823   0.12340   0.28673   0.00000  Uiso   1.00
O172   O     0.44831   0.32686   0.29696   0.00000  Uiso   1.00
O173   O     0.36635   0.17526   0.00606   0.00000  Uiso   1.00
O174   O     0.35472   0.20815   0.21250   0.00000  Uiso   1.00
O175   O     0.51264   0.08019   0.28214   0.00000  Uiso   1.00
O176   O     0.47965   0.26085   0.27014   0.00000  Uiso   1.00
O177   O     0.40745   0.13291   0.23413   0.00000  Uiso   1.00
O178   O     0.60026   0.19272   0.21361   0.00000  Uiso   1.00
O179   O     0.40405   0.18878   0.28213   0.00000  Uiso   1.00
O180   O     0.58824   0.15226   0.27014   0.00000  Uiso   1.00
O181   O     0.47093   0.06944   0.23413   0.00000  Uiso   1.00
O182   O     0.53678   0.25620   0.21361   0.00000  Uiso   1.00
Zn183  Zn    0.52672   0.13994   0.28734   0.00000  Uiso   1.00
Zn184  Zn    0.46713   0.12458   0.21876   0.00000  Uiso   1.00
Zn185  Zn    0.54389   0.19775   0.20657   0.00000  Uiso   1.00
Zn186  Zn    0.46226   0.20439   0.28734   0.00000  Uiso   1.00
C187   C     0.71964   0.15978   0.25984   0.00000  Uiso   1.00
C188   C     0.83182   0.15015   0.05898   0.00000  Uiso   1.00
C189   C     0.90421   0.13857   0.05648   0.00000  Uiso   1.00
C190   C     0.94743   0.17421   0.24047   0.00000  Uiso   1.00
C191   C     0.80270   0.18661   0.42036   0.00000  Uiso   1.00
C192   C     0.99303   0.17963   0.23954   0.00000  Uiso   1.00
C193   C     0.67424   0.15622   0.26429   0.00000  Uiso   1.00
C194   C     0.84579   0.32256   0.23763   0.00000  Uiso   1.00
C195   C     0.81720   0.01214   0.26590   0.00000  Uiso   1.00
C196   C     0.82334   0.05604   0.25981   0.00000  Uiso   1.00
C197   C     0.84292   0.27793   0.24027   0.00000  Uiso   1.00
C198   C     0.74338   0.17902   0.48698   0.00000  Uiso   1.00
C199   C     0.85230   0.14828   0.12931   0.00000  Uiso   1.00
C200   C     0.81528   0.18468   0.37094   0.00000  Uiso   1.00
C201   C     0.91723   0.14499   0.01106   0.00000  Uiso   1.00
C202   C     0.86192   0.14237   0.08065   0.00000  Uiso   1.00
C203   C     0.75927   0.18807   0.44221   0.00000  Uiso   1.00
C204   C     0.98045   0.12843   0.33307   0.00000  Uiso   1.00
C205   C     0.67370   0.09784   0.34409   0.00000  Uiso   1.00
C206   C     0.66979   0.10010   0.39451   0.00000  Uiso   1.00
C207   C     0.76467   0.02062   0.33467   0.00000  Uiso   1.00
C208   C     0.79231   0.02630   0.36852   0.00000  Uiso   1.00
C209   C     0.77082   0.16769   0.01013   0.00000  Uiso   1.00
C210   C     0.77561   0.05726   0.40795   0.00000  Uiso   1.00
C211   C     0.68772   0.21328   0.02962   0.00000  Uiso   1.00
C212   C     0.67902   0.21001   0.08035   0.00000  Uiso   1.00
C213   C     0.99194   0.24741   0.10717   0.00000  Uiso   1.00
C214   C     0.68263   0.24873   0.23286   0.00000  Uiso   1.00
C215   C     0.71933   0.27931   0.20840   0.00000  Uiso   1.00
C216   C     0.71323   0.32417   0.22655   0.00000  Uiso   1.00
C217   C     0.81533   0.16809   0.48999   0.00000  Uiso   1.00
C218   C     0.83141   0.17868   0.44471   0.00000  Uiso   1.00
C219   C     0.84431   0.15740   0.01295   0.00000  Uiso   1.00
C220   C     0.88819   0.15606   0.48960   0.00000  Uiso   1.00
C221   C     0.90339   0.16804   0.44588   0.00000  Uiso   1.00
C222   C     0.87578   0.18055   0.42434   0.00000  Uiso   1.00
H223   H     0.92771   0.13297   0.07344   0.00000  Uiso   1.00
H224   H     0.99094   0.16088   0.34514   0.00000  Uiso   1.00
H225   H     0.99576   0.06565   0.33264   0.00000  Uiso   1.00
H226   H     0.70798   0.10510   0.32620   0.00000  Uiso   1.00
H227   H     0.68198   0.13175   0.40650   0.00000  Uiso   1.00
H228   H     0.68896   0.07733   0.40149   0.00000  Uiso   1.00
H229   H     0.96915   0.09246   0.41326   0.00000  Uiso   1.00
H230   H     0.73230   0.00581   0.35163   0.00000  Uiso   1.00
H231   H     0.75926   0.05092   0.32514   0.00000  Uiso   1.00
H232   H     0.79215   0.32910   0.38144   0.00000  Uiso   1.00
H233   H     0.82601   0.03771   0.35195   0.00000  Uiso   1.00
H234   H     0.87236   0.00392   0.21256   0.00000  Uiso   1.00
H235   H     0.77520   0.08796   0.39574   0.00000  Uiso   1.00
H236   H     0.79687   0.06147   0.43115   0.00000  Uiso   1.00
H237   H     0.74273   0.04549   0.42681   0.00000  Uiso   1.00
H238   H     0.99092   0.21872   0.02206   0.00000  Uiso   1.00
H239   H     0.71147   0.24104   0.01916   0.00000  Uiso   1.00
H240   H     0.99043   0.18123   0.09008   0.00000  Uiso   1.00
H241   H     0.70959   0.20822   0.08903   0.00000  Uiso   1.00
H242   H     0.68030   0.27659   0.09872   0.00000  Uiso   1.00
H243   H     0.98601   0.24400   0.14367   0.00000  Uiso   1.00
H244   H     0.96079   0.24939   0.09980   0.00000  Uiso   1.00
H245   H     0.93714   0.16899   0.42869   0.00000  Uiso   1.00
H246   H     0.68318   0.25094   0.26895   0.00000  Uiso   1.00
H247   H     0.98506   0.25775   0.23043   0.00000  Uiso   1.00
H248   H     0.75017   0.27193   0.21272   0.00000  Uiso   1.00
H249   H     0.72092   0.27613   0.17188   0.00000  Uiso   1.00
H250   H     0.68337   0.33268   0.22096   0.00000  Uiso   1.00
H251   H     0.74079   0.01212   0.20875   0.00000  Uiso   1.00
H252   H     0.71135   0.32820   0.26310   0.00000  Uiso   1.00
H253   H     0.95056   0.14348   0.49328   0.00000  Uiso   1.00
H254   H     0.80017   0.15426   0.07982   0.00000  Uiso   1.00
H255   H     0.73688   0.19330   0.42366   0.00000  Uiso   1.00
H256   H     0.75599   0.15762   0.04330   0.00000  Uiso   1.00
H257   H     0.88986   0.19193   0.39145   0.00000  Uiso   1.00
H258   H     0.94651   0.12112   0.35215   0.00000  Uiso   1.00
O259   O     0.83333   0.16667   0.25000   0.00000  Uiso   1.00
O260   O     0.82118   0.12637   0.15459   0.00000  Uiso   1.00
O261   O     0.79607   0.20391   0.34968   0.00000  Uiso   1.00
O262   O     0.87491   0.17759   0.14606   0.00000  Uiso   1.00
O263   O     0.84118   0.15880   0.34968   0.00000  Uiso   1.00
O264   O     0.98156   0.12340   0.28673   0.00000  Uiso   1.00
O265   O     0.78165   0.32686   0.29696   0.00000  Uiso   1.00
O266   O     0.69969   0.17526   0.00606   0.00000  Uiso   1.00
O267   O     0.68806   0.20815   0.21250   0.00000  Uiso   1.00
O268   O     0.84597   0.08019   0.28214   0.00000  Uiso   1.00
O269   O     0.81298   0.26085   0.27014   0.00000  Uiso   1.00
O270   O     0.74078   0.13291   0.23413   0.00000  Uiso   1.00
O271   O     0.93360   0.19272   0.21361   0.00000  Uiso   1.00
O272   O     0.73738   0.18878   0.28213   0.00000  Uiso   1.00
O273   O     0.92158   0.15226   0.27014   0.00000  Uiso   1.00
O274   O     0.80426   0.06944   0.23413   0.00000  Uiso   1.00
O275   O     0.87012   0.25620   0.21361   0.00000  Uiso   1.00
Zn276  Zn    0.86005   0.13994   0.28734   0.00000  Uiso   1.00
Zn277  Zn    0.80046   0.12458   0.21876   0.00000  Uiso   1.00
Zn278  Zn    0.87723   0.19775   0.20657   0.00000  Uiso   1.00
Zn279  Zn    0.79560   0.20439   0.28734   0.00000  Uiso   1.00
C280   C     0.05297   0.49311   0.25984   0.00000  Uiso   1.00
C281   C     0.16515   0.48349   0.05898   0.00000  Uiso   1.00
C282   C     0.23755   0.47191   0.05648   0.00000  Uiso   1.00
C283   C     0.28076   0.50755   0.24047   0.00000  Uiso   1.00
C284   C     0.13604   0.51994   0.42036   0.00000  Uiso   1.00
C285   C     0.32636   0.51296   0.23954   0.00000  Uiso   1.00
C286   C     0.00758   0.48955   0.26429   0.00000  Uiso   1.00
C287   C     0.17913   0.65589   0.23763   0.00000  Uiso   1.00
C288   C     0.15053   0.34547   0.26590   0.00000  Uiso   1.00
C289   C     0.15667   0.38937   0.25981   0.00000  Uiso   1.00
C290   C     0.17626   0.61126   0.24027   0.00000  Uiso   1.00
C291   C     0.07672   0.51235   0.48698   0.00000  Uiso   1.00
C292   C     0.18563   0.48162   0.12931   0.00000  Uiso   1.00
C293   C     0.14861   0.51802   0.37094   0.00000  Uiso   1.00
C294   C     0.25056   0.47832   0.01106   0.00000  Uiso   1.00
C295   C     0.19525   0.47571   0.08065   0.00000  Uiso   1.00
C296   C     0.09260   0.52141   0.44221   0.00000  Uiso   1.00
C297   C     0.31379   0.46176   0.33307   0.00000  Uiso   1.00
C298   C     0.00704   0.43118   0.34409   0.00000  Uiso   1.00
C299   C     0.00313   0.43343   0.39451   0.00000  Uiso   1.00
C300   C     0.09800   0.35395   0.33467   0.00000  Uiso   1.00
C301   C     0.12565   0.35964   0.36852   0.00000  Uiso   1.00
C302   C     0.10415   0.50102   0.01013   0.00000  Uiso   1.00
C303   C     0.10894   0.39059   0.40795   0.00000  Uiso   1.00
C304   C     0.02106   0.54661   0.02962   0.00000  Uiso   1.00
C305   C     0.01235   0.54334   0.08035   0.00000  Uiso   1.00
C306   C     0.32527   0.58075   0.10717   0.00000  Uiso   1.00
C307   C     0.01596   0.58206   0.23286   0.00000  Uiso   1.00
C308   C     0.05266   0.61265   0.20840   0.00000  Uiso   1.00
C309   C     0.04656   0.65750   0.22655   0.00000  Uiso   1.00
C310   C     0.14866   0.50143   0.48999   0.00000  Uiso   1.00
C311   C     0.16474   0.51201   0.44471   0.00000  Uiso   1.00
C312   C     0.17764   0.49074   0.01295   0.00000  Uiso   1.00
C313   C     0.22153   0.48939   0.48960   0.00000  Uiso   1.00
C314   C     0.23672   0.50137   0.44588   0.00000  Uiso   1.00
C315   C     0.20912   0.51389   0.42434   0.00000  Uiso   1.00
H316   H     0.26105   0.46631   0.07344   0.00000  Uiso   1.00
H317   H     0.32427   0.49422   0.34514   0.00000  Uiso   1.00
H318   H     0.32910   0.39898   0.33264   0.00000  Uiso   1.00
H319   H     0.04132   0.43844   0.32620   0.00000  Uiso   1.00
H320   H     0.01531   0.46508   0.40650   0.00000  Uiso   1.00
H321   H     0.02230   0.41067   0.40149   0.00000  Uiso   1.00
H322   H     0.30248   0.42579   0.41326   0.00000  Uiso   1.00
H323   H     0.06564   0.33915   0.35163   0.00000  Uiso   1.00
H324   H     0.09259   0.38426   0.32514   0.00000  Uiso   1.00
H325   H     0.12548   0.66243   0.38144   0.00000  Uiso   1.00
H326   H     0.15935   0.37104   0.35195   0.00000  Uiso   1.00
H327   H     0.20569   0.33725   0.21256   0.00000  Uiso   1.00
H328   H     0.10854   0.42130   0.39574   0.00000  Uiso   1.00
H329   H     0.13021   0.39480   0.43115   0.00000  Uiso   1.00
H330   H     0.07606   0.37882   0.42681   0.00000  Uiso   1.00
H331   H     0.32425   0.55205   0.02206   0.00000  Uiso   1.00
H332   H     0.04480   0.57437   0.01916   0.00000  Uiso   1.00
H333   H     0.32376   0.51456   0.09008   0.00000  Uiso   1.00
H334   H     0.04292   0.54156   0.08903   0.00000  Uiso   1.00
H335   H     0.01363   0.60993   0.09872   0.00000  Uiso   1.00
H336   H     0.31934   0.57734   0.14367   0.00000  Uiso   1.00
H337   H     0.29412   0.58272   0.09980   0.00000  Uiso   1.00
H338   H     0.27047   0.50232   0.42869   0.00000  Uiso   1.00
H339   H     0.01651   0.58427   0.26895   0.00000  Uiso   1.00
H340   H     0.31839   0.59109   0.23043   0.00000  Uiso   1.00
H341   H     0.08350   0.60526   0.21272   0.00000  Uiso   1.00
H342   H     0.05425   0.60946   0.17188   0.00000  Uiso   1.00
H343   H     0.01670   0.66601   0.22096   0.00000  Uiso   1.00
H344   H     0.07412   0.34546   0.20875   0.00000  Uiso   1.00
H345   H     0.04469   0.66153   0.26310   0.00000  Uiso   1.00
H346   H     0.28389   0.47682   0.49328   0.00000  Uiso   1.00
H347   H     0.13351   0.48760   0.07982   0.00000  Uiso   1.00
H348   H     0.07022   0.52664   0.42366   0.00000  Uiso   1.00
H349   H     0.08933   0.49096   0.04330   0.00000  Uiso   1.00
H350   H     0.22319   0.52526   0.39145   0.00000  Uiso   1.00
H351   H     0.27985   0.45445   0.35215   0.00000  Uiso   1.00
O352   O     0.16667   0.50000   0.25000   0.00000  Uiso   1.00
O353   O     0.15451   0.45970   0.15459   0.00000  Uiso   1.00
O354   O     0.12940   0.53724   0.34968   0.00000  Uiso   1.00
O355   O     0.20824   0.51092   0.14606   0.00000  Uiso   1.00
O356   O     0.17451   0.49213   0.34968   0.00000  Uiso   1.00
O357   O     0.31490   0.45674   0.28673   0.00000  Uiso   1.00
O358   O     0.11498   0.66019   0.29696   0.00000  Uiso   1.00
O359   O     0.03302   0.50859   0.00606   0.00000  Uiso   1.00
O360   O     0.02139   0.54148   0.21250   0.00000  Uiso   1.00
O361   O     0.17930   0.41352   0.28214   0.00000  Uiso   1.00
O362   O     0.14632   0.59418   0.27014   0.00000  Uiso   1.00
O363   O     0.07412   0.46625   0.23413   0.00000  Uiso   1.00
O364   O     0.26693   0.52605   0.21361   0.00000  Uiso   1.00
O365   O     0.07071   0.52211   0.28213   0.00000  Uiso   1.00
O366   O     0.25491   0.48559   0.27014   0.00000  Uiso   1.00
O367   O     0.13760   0.40277   0.23413   0.00000  Uiso   1.00
O368   O     0.20345   0.58953   0.21361   0.00000  Uiso   1.00
Zn369  Zn    0.19338   0.47327   0.28734   0.00000  Uiso   1.00
Zn370  Zn    0.13379   0.45791   0.21876   0.00000  Uiso   1.00
Zn371  Zn    0.21056   0.53109   0.20657   0.00000  Uiso   1.00
Zn372  Zn    0.12893   0.53773   0.28734   0.00000  Uiso   1.00
C373   C     0.38631   0.49311   0.25984   0.00000  Uiso   1.00
C374   C     0.49849   0.48349   0.05898   0.00000  Uiso   1.00
C375   C     0.57088   0.47191   0.05648   0.00000  Uiso   1.00
C376   C     0.61409   0.50755   0.24047   0.00000  Uiso   1.00
C377   C     0.46937   0.51994   0.42036   0.00000  Uiso   1.00
C378   C     0.65970   0.51296   0.23954   0.00000  Uiso   1.00
C379   C     0.34091   0.48955   0.26429   0.00000  Uiso   1.00
C380   C     0.51246   0.65589   0.23763   0.00000  Uiso   1.00
C381   C     0.48387   0.34547   0.26590   0.00000  Uiso   1.00
C382   C     0.49001   0.38937   0.25981   0.00000  Uiso   1.00
C383   C     0.50959   0.61126   0.24027   0.00000  Uiso   1.00
C384   C     0.41005   0.51235   0.48698   0.00000  Uiso   1.00
C385   C     0.51897   0.48162   0.12931   0.00000  Uiso   1.00
C386   C     0.48194   0.51802   0.37094   0.00000  Uiso   1.00
C387   C     0.58390   0.47832   0.01106   0.00000  Uiso   1.00
C388   C     0.52859   0.47571   0.08065   0.00000  Uiso   1.00
C389   C     0.42594   0.52141   0.44221   0.00000  Uiso   1.00
C390   C     0.64712   0.46176   0.33307   0.00000  Uiso   1.00
C391   C     0.34037   0.43118   0.34409   0.00000  Uiso   1.00
C392   C     0.33646   0.43343   0.39451   0.00000  Uiso   1.00
C393   C     0.43133   0.35395   0.33467   0.00000  Uiso   1.00
C394   C     0.45898   0.35964   0.36852   0.00000  Uiso   1.00
C395   C     0.43748   0.50102   0.01013   0.00000  Uiso   1.00
C396   C     0.44227   0.39059   0.40795   0.00000  Uiso   1.00
C397   C     0.35439   0.54661   0.02962   0.00000  Uiso   1.00
C398   C     0.34568   0.54334   0.08035   0.00000  Uiso   1.00
C399   C     0.65861   0.58075   0.10717   0.00000  Uiso   1.00
C400   C     0.34930   0.58206   0.23286   0.00000  Uiso   1.00
C401   C     0.38599   0.61265   0.20840   0.00000  Uiso   1.00
C402   C     0.37989   0.65750   0.22655   0.00000  Uiso   1.00
C403   C     0.48200   0.50143   0.48999   0.00000  Uiso   1.00
C404   C     0.49807   0.51201   0.44471   0.00000  Uiso   1.00
C405   C     0.51097   0.49074   0.01295   0.00000  Uiso   1.00
C406   C     0.55486   0.48939   0.48960   0.00000  Uiso   1.00
C407   C     0.57005   0.50137   0.44588   0.00000  Uiso   1.00
C408   C     0.54245   0.51389   0.42434   0.00000  Uiso   1.00
H409   H     0.59438   0.46631   0.07344   0.00000  Uiso   1.00
H410   H     0.65760   0.49422   0.34514   0.00000  Uiso   1.00
H411   H     0.66243   0.39898   0.33264   0.00000  Uiso   1.00
H412   H     0.37465   0.43844   0.32620   0.00000  Uiso   1.00
H413   H     0.34865   0.46508   0.40650   0.00000  Uiso   1.00
H414   H     0.35563   0.41067   0.40149   0.00000  Uiso   1.00
H415   H     0.63581   0.42579   0.41326   0.00000  Uiso   1.00
H416   H     0.39897   0.33915   0.35163   0.00000  Uiso   1.00
H417   H     0.42593   0.38426   0.32514   0.00000  Uiso   1.00
H418   H     0.45882   0.66243   0.38144   0.00000  Uiso   1.00
H419   H     0.49268   0.37104   0.35195   0.00000  Uiso   1.00
H420   H     0.53903   0.33725   0.21256   0.00000  Uiso   1.00
H421   H     0.44187   0.42130   0.39574   0.00000  Uiso   1.00
H422   H     0.46354   0.39480   0.43115   0.00000  Uiso   1.00
H423   H     0.40939   0.37882   0.42681   0.00000  Uiso   1.00
H424   H     0.65758   0.55205   0.02206   0.00000  Uiso   1.00
H425   H     0.37814   0.57437   0.01916   0.00000  Uiso   1.00
H426   H     0.65710   0.51456   0.09008   0.00000  Uiso   1.00
H427   H     0.37626   0.54156   0.08903   0.00000  Uiso   1.00
H428   H     0.34696   0.60993   0.09872   0.00000  Uiso   1.00
H429   H     0.65268   0.57734   0.14367   0.00000  Uiso   1.00
H430   H     0.62746   0.58272   0.09980   0.00000  Uiso   1.00
H431   H     0.60381   0.50232   0.42869   0.00000  Uiso   1.00
H432   H     0.34984   0.58427   0.26895   0.00000  Uiso   1.00
H433   H     0.65173   0.59109   0.23043   0.00000  Uiso   1.00
H434   H     0.41684   0.60526   0.21272   0.00000  Uiso   1.00
H435   H     0.38758   0.60946   0.17188   0.00000  Uiso   1.00
H436   H     0.35004   0.66601   0.22096   0.00000  Uiso   1.00
H437   H     0.40746   0.34546   0.20875   0.00000  Uiso   1.00
H438   H     0.37802   0.66153   0.26310   0.00000  Uiso   1.00
H439   H     0.61722   0.47682   0.49328   0.00000  Uiso   1.00
H440   H     0.46684   0.48760   0.07982   0.00000  Uiso   1.00
H441   H     0.40355   0.52664   0.42366   0.00000  Uiso   1.00
H442   H     0.42266   0.49096   0.04330   0.00000  Uiso   1.00
H443   H     0.55652   0.52526   0.39145   0.00000  Uiso   1.00
H444   H     0.61318   0.45445   0.35215   0.00000  Uiso   1.00
O445   O     0.50000   0.50000   0.25000   0.00000  Uiso   1.00
O446   O     0.48784   0.45970   0.15459   0.00000  Uiso   1.00
O447   O     0.46274   0.53724   0.34968   0.00000  Uiso   1.00
O448   O     0.54157   0.51092   0.14606   0.00000  Uiso   1.00
O449   O     0.50785   0.49213   0.34968   0.00000  Uiso   1.00
O450   O     0.64823   0.45674   0.28673   0.00000  Uiso   1.00
O451   O     0.44831   0.66019   0.29696   0.00000  Uiso   1.00
O452   O     0.36635   0.50859   0.00606   0.00000  Uiso   1.00
O453   O     0.35472   0.54148   0.21250   0.00000  Uiso   1.00
O454   O     0.51264   0.41352   0.28214   0.00000  Uiso   1.00
O455   O     0.47965   0.59418   0.27014   0.00000  Uiso   1.00
O456   O     0.40745   0.46625   0.23413   0.00000  Uiso   1.00
O457   O     0.60026   0.52605   0.21361   0.00000  Uiso   1.00
O458   O     0.40405   0.52211   0.28213   0.00000  Uiso   1.00
O459   O     0.58824   0.48559   0.27014   0.00000  Uiso   1.00
O460   O     0.47093   0.40277   0.23413   0.00000  Uiso   1.00
O461   O     0.53678   0.58953   0.21361   0.00000  Uiso   1.00
Zn462  Zn    0.52672   0.47327   0.28734   0.00000  Uiso   1.00
Zn463  Zn    0.46713   0.45791   0.21876   0.00000  Uiso   1.00
Zn464  Zn    0.54389   0.53109   0.20657   0.00000  Uiso   1.00
Zn465  Zn    0.46226   0.53773   0.28734   0.00000  Uiso   1.00
C466   C     0.71964   0.49311   0.25984   0.00000  Uiso   1.00
C467   C     0.83182   0.48349   0.05898   0.00000  Uiso   1.00
C468   C     0.90421   0.47191   0.05648   0.00000  Uiso   1.00
C469   C     0.94743   0.50755   0.24047   0.00000  Uiso   1.00
C470   C     0.80270   0.51994   0.42036   0.00000  Uiso   1.00
C471   C     0.99303   0.51296   0.23954   0.00000  Uiso   1.00
C472   C     0.67424   0.48955   0.26429   0.00000  Uiso   1.00
C473   C     0.84579   0.65589   0.23763   0.00000  Uiso   1.00
C474   C     0.81720   0.34547   0.26590   0.00000  Uiso   1.00
C475   C     0.82334   0.38937   0.25981   0.00000  Uiso   1.00
C476   C     0.84292   0.61126   0.24027   0.00000  Uiso   1.00
C477   C     0.74338   0.51235   0.48698   0.00000  Uiso   1.00
C478   C     0.85230   0.48162   0.12931   0.00000  Uiso   1.00
C479   C     0.81528   0.51802   0.37094   0.00000  Uiso   1.00
C480   C     0.91723   0.47832   0.01106   0.00000  Uiso   1.00
C481   C     0.86192   0.47571   0.08065   0.00000  Uiso   1.00
C482   C     0.75927   0.52141   0.44221   0.00000  Uiso   1.00
C483   C     0.98045   0.46176   0.33307   0.00000  Uiso   1.00
C484   C     0.67370   0.43118   0.34409   0.00000  Uiso   1.00
C485   C     0.66979   0.43343   0.39451   0.00000  Uiso   1.00
C486   C     0.76467   0.35395   0.33467   0.00000  Uiso   1.00
C487   C     0.79231   0.35964   0.36852   0.00000  Uiso   1.00
C488   C     0.77082   0.50102   0.01013   0.00000  Uiso   1.00
C489   C     0.77561   0.39059   0.40795   0.00000  Uiso   1.00
C490   C     0.68772   0.54661   0.02962   0.00000  Uiso   1.00
C491   C     0.67902   0.54334   0.08035   0.00000  Uiso   1.00
C492   C     0.99194   0.58075   0.10717   0.00000  Uiso   1.00
C493   C     0.68263   0.58206   0.23286   0.00000  Uiso   1.00
C494   C     0.71933   0.61265   0.20840   0.00000  Uiso   1.00
C495   C     0.71323   0.65750   0.22655   0.00000  Uiso   1.00
C496   C     0.81533   0.50143   0.48999   0.00000  Uiso   1.00
C497   C     0.83141   0.51201   0.44471   0.00000  Uiso   1.00
C498   C     0.84431   0.49074   0.01295   0.00000  Uiso   1.00
C499   C     0.88819   0.48939   0.48960   0.00000  Uiso   1.00
C500   C     0.90339   0.50137   0.44588   0.00000  Uiso   1.00
C501   C     0.87578   0.51389   0.42434   0.00000  Uiso   1.00
H502   H     0.92771   0.46631   0.07344   0.00000  Uiso   1.00
H503   H     0.99094   0.49422   0.34514   0.00000  Uiso   1.00
H504   H     0.99576   0.39898   0.33264   0.00000  Uiso   1.00
H505   H     0.70798   0.43844   0.32620   0.00000  Uiso   1.00
H506   H     0.68198   0.46508   0.40650   0.00000  Uiso   1.00
H507   H     0.68896   0.41067   0.40149   0.00000  Uiso   1.00
H508   H     0.96915   0.42579   0.41326   0.00000  Uiso   1.00
H509   H     0.73230   0.33915   0.35163   0.00000  Uiso   1.00
H510   H     0.75926   0.38426   0.32514   0.00000  Uiso   1.00
H511   H     0.79215   0.66243   0.38144   0.00000  Uiso   1.00
H512   H     0.82601   0.37104   0.35195   0.00000  Uiso   1.00
H513   H     0.87236   0.33725   0.21256   0.00000  Uiso   1.00
H514   H     0.77520   0.42130   0.39574   0.00000  Uiso   1.00
H515   H     0.79687   0.39480   0.43115   0.00000  Uiso   1.00
H516   H     0.74273   0.37882   0.42681   0.00000  Uiso   1.00
H517   H     0.99092   0.55205   0.02206   0.00000  Uiso   1.00
H518   H     0.71147   0.57437   0.01916   0.00000  Uiso   1.00
H519   H     0.99043   0.51456   0.09008   0.00000  Uiso   1.00
H520   H     0.70959   0.54156   0.08903   0.00000  Uiso   1.00
H521   H     0.68030   0.60993   0.09872   0.00000  Uiso   1.00
H522   H     0.98601   0.57734   0.14367   0.00000  Uiso   1.00
H523   H     0.96079   0.58272   0.09980   0.00000  Uiso   1.00
H524   H     0.93714   0.50232   0.42869   0.00000  Uiso   1.00
H525   H     0.68318   0.58427   0.26895   0.00000  Uiso   1.00
H526   H     0.98506   0.59109   0.23043   0.00000  Uiso   1.00
H527   H     0.75017   0.60526   0.21272   0.00000  Uiso   1.00
H528   H     0.72092   0.60946   0.17188   0.00000  Uiso   1.00
H529   H     0.68337   0.66601   0.22096   0.00000  Uiso   1.00
H530   H     0.74079   0.34546   0.20875   0.00000  Uiso   1.00
H531   H     0.71135   0.66153   0.26310   0.00000  Uiso   1.00
H532   H     0.95056   0.47682   0.49328   0.00000  Uiso   1.00
H533   H     0.80017   0.48760   0.07982   0.00000  Uiso   1.00
H534   H     0.73688   0.52664   0.42366   0.00000  Uiso   1.00
H535   H     0.75599   0.49096   0.04330   0.00000  Uiso   1.00
H536   H     0.88986   0.52526   0.39145   0.00000  Uiso   1.00
H537   H     0.94651   0.45445   0.35215   0.00000  Uiso   1.00
O538   O     0.83333   0.50000   0.25000   0.00000  Uiso   1.00
O539   O     0.82118   0.45970   0.15459   0.00000  Uiso   1.00
O540   O     0.79607   0.53724   0.34968   0.00000  Uiso   1.00
O541   O     0.87491   0.51092   0.14606   0.00000  Uiso   1.00
O542   O     0.84118   0.49213   0.34968   0.00000  Uiso   1.00
O543   O     0.98156   0.45674   0.28673   0.00000  Uiso   1.00
O544   O     0.78165   0.66019   0.29696   0.00000  Uiso   1.00
O545   O     0.69969   0.50859   0.00606   0.00000  Uiso   1.00
O546   O     0.68806   0.54148   0.21250   0.00000  Uiso   1.00
O547   O     0.84597   0.41352   0.28214   0.00000  Uiso   1.00
O548   O     0.81298   0.59418   0.27014   0.00000  Uiso   1.00
O549   O     0.74078   0.46625   0.23413   0.00000  Uiso   1.00
O550   O     0.93360   0.52605   0.21361   0.00000  Uiso   1.00
O551   O     0.73738   0.52211   0.28213   0.00000  Uiso   1.00
O552   O     0.92158   0.48559   0.27014   0.00000  Uiso   1.00
O553   O     0.80426   0.40277   0.23413   0.00000  Uiso   1.00
O554   O     0.87012   0.58953   0.21361   0.00000  Uiso   1.00
Zn555  Zn    0.86005   0.47327   0.28734   0.00000  Uiso   1.00
Zn556  Zn    0.80046   0.45791   0.21876   0.00000  Uiso   1.00
Zn557  Zn    0.87723   0.53109   0.20657   0.00000  Uiso   1.00
Zn558  Zn    0.79560   0.53773   0.28734   0.00000  Uiso   1.00
C559   C     0.05297   0.82644   0.25984   0.00000  Uiso   1.00
C560   C     0.16515   0.81682   0.05898   0.00000  Uiso   1.00
C561   C     0.23755   0.80524   0.05648   0.00000  Uiso   1.00
C562   C     0.28076   0.84088   0.24047   0.00000  Uiso   1.00
C563   C     0.13604   0.85327   0.42036   0.00000  Uiso   1.00
C564   C     0.32636   0.84630   0.23954   0.00000  Uiso   1.00
C565   C     0.00758   0.82288   0.26429   0.00000  Uiso   1.00
C566   C     0.17913   0.98922   0.23763   0.00000  Uiso   1.00
C567   C     0.15053   0.67881   0.26590   0.00000  Uiso   1.00
C568   C     0.15667   0.72270   0.25981   0.00000  Uiso   1.00
C569   C     0.17626   0.94459   0.24027   0.00000  Uiso   1.00
C570   C     0.07672   0.84569   0.48698   0.00000  Uiso   1.00
C571   C     0.18563   0.81495   0.12931   0.00000  Uiso   1.00
C572   C     0.14861   0.85135   0.37094   0.00000  Uiso   1.00
C573   C     0.25056   0.81165   0.01106   0.00000  Uiso   1.00
C574   C     0.19525   0.80904   0.08065   0.00000  Uiso   1.00
C575   C     0.09260   0.85474   0.44221   0.00000  Uiso   1.00
C576   C     0.31379   0.79509   0.33307   0.00000  Uiso   1.00
C577   C     0.00704   0.76451   0.34409   0.00000  Uiso   1.00
C578   C     0.00313   0.76677   0.39451   0.00000  Uiso   1.00
C579   C     0.09800   0.68728   0.33467   0.00000  Uiso   1.00
C580   C     0.12565   0.69297   0.36852   0.00000  Uiso   1.00
C581   C     0.10415   0.83435   0.01013   0.00000  Uiso   1.00
C582   C     0.10894   0.72392   0.40795   0.00000  Uiso   1.00
C583   C     0.02106   0.87994   0.02962   0.00000  Uiso   1.00
C584   C     0.01235   0.87668   0.08035   0.00000  Uiso   1.00
C585   C     0.32527   0.91408   0.10717   0.00000  Uiso   1.00
C586   C     0.01596   0.91540   0.23286   0.00000  Uiso   1.00
C587   C     0.05266   0.94598   0.20840   0.00000  Uiso   1.00
C588   C     0.04656   0.99084   0.22655   0.00000  Uiso   1.00
C589   C     0.14866   0.83476   0.48999   0.00000  Uiso   1.00
C590   C     0.16474   0.84535   0.44471   0.00000  Uiso   1.00
C591   C     0.17764   0.82407   0.01295   0.00000  Uiso   1.00
C592   C     0.22153   0.82272   0.48960   0.00000  Uiso   1.00
C593   C     0.23672   0.83470   0.44588   0.00000  Uiso   1.00
C594   C     0.20912   0.84722   0.42434   0.00000  Uiso   1.00
H595   H     0.26105   0.79964   0.07344   0.00000  Uiso   1.00
H596   H     0.32427   0.82755   0.34514   0.00000  Uiso   1.00
H597   H     0.32910   0.73232   0.33264   0.00000  Uiso   1.00
H598   H     0.04132   0.77177   0.32620   0.00000  Uiso   1.00
H599   H     0.01531   0.79841   0.40650   0.00000  Uiso   1.00
H600   H     0.02230   0.74400   0.40149   0.00000  Uiso   1.00
H601   H     0.30248   0.75912   0.41326   0.00000  Uiso   1.00
H602   H     0.06564   0.67248   0.35163   0.00000  Uiso   1.00
H603   H     0.09259   0.71759   0.32514   0.00000  Uiso   1.00
H604   H     0.12548   0.99577   0.38144   0.00000  Uiso   1.00
H605   H     0.15935   0.70438   0.35195   0.00000  Uiso   1.00
H606   H     0.20569   0.67058   0.21256   0.00000  Uiso   1.00
H607   H     0.10854   0.75463   0.39574   0.00000  Uiso   1.00
H608   H     0.13021   0.72813   0.43115   0.00000  Uiso   1.00
H609   H     0.07606   0.71215   0.42681   0.00000  Uiso   1.00
H610   H     0.32425   0.88539   0.02206   0.00000  Uiso   1.00
H611   H     0.04480   0.90770   0.01916   0.00000  Uiso   1.00
H612   H     0.32376   0.84789   0.09008   0.00000  Uiso   1.00
H613   H     0.04292   0.87489   0.08903   0.00000  Uiso   1.00
H614   H     0.01363   0.94326   0.09872   0.00000  Uiso   1.00
H615   H     0.31934   0.91067   0.14367   0.00000  Uiso   1.00
H616   H     0.29412   0.91606   0.09980   0.00000  Uiso   1.00
H617   H     0.27047   0.83566   0.42869   0.00000  Uiso   1.00
H618   H     0.01651   0.91760   0.26895   0.00000  Uiso   1.00
H619   H     0.31839   0.92442   0.23043   0.00000  Uiso   1.00
H620   H     0.08350   0.93860   0.21272   0.00000  Uiso   1.00
H621   H     0.05425   0.94280   0.17188   0.00000  Uiso   1.00
H622   H     0.01670   0.99935   0.22096   0.00000  Uiso   1.00
H623   H     0.07412   0.67879   0.20875   0.00000  Uiso   1.00
H624   H     0.04469   0.99486   0.26310   0.00000  Uiso   1.00
H625   H     0.28389   0.81015   0.49328   0.00000  Uiso   1.00
H626   H     0.13351   0.82093   0.07982   0.00000  Uiso   1.00
H627   H     0.07022   0.85997   0.42366   0.00000  Uiso   1.00
H628   H     0.08933   0.82429   0.04330   0.00000  Uiso   1.00
H629   H     0.22319   0.85859   0.39145   0.00000  Uiso   1.00
H630   H     0.27985   0.78778   0.35215   0.00000  Uiso   1.00
O631   O     0.16667   0.83333   0.25000   0.00000  Uiso   1.00
O632   O     0.15451   0.79304   0.15459   0.00000  Uiso   1.00
O633   O     0.12940   0.87058   0.34968   0.00000  Uiso   1.00
O634   O     0.20824   0.84425   0.14606   0.00000  Uiso   1.00
O635   O     0.17451   0.82546   0.34968   0.00000  Uiso   1.00
O636   O     0.31490   0.79007   0.28673   0.00000  Uiso   1.00
O637   O     0.11498   0.99352   0.29696   0.00000  Uiso   1.00
O638   O     0.03302   0.84192   0.00606   0.00000  Uiso   1.00
O639   O     0.02139   0.87482   0.21250   0.00000  Uiso   1.00
O640   O     0.17930   0.74686   0.28214   0.00000  Uiso   1.00
O641   O     0.14632   0.92751   0.27014   0.00000  Uiso   1.00
O642   O     0.07412   0.79958   0.23413   0.00000  Uiso   1.00
O643   O     0.26693   0.85939   0.21361   0.00000  Uiso   1.00
O644   O     0.07071   0.85544   0.28213   0.00000  Uiso   1.00
O645   O     0.25491   0.81892   0.27014   0.00000  Uiso   1.00
O646   O     0.13760   0.73610   0.23413   0.00000  Uiso   1.00
O647   O     0.20345   0.92286   0.21361   0.00000  Uiso   1.00
Zn648  Zn    0.19338   0.80661   0.28734   0.00000  Uiso   1.00
Zn649  Zn    0.13379   0.79124   0.21876   0.00000  Uiso   1.00
Zn650  Zn    0.21056   0.86442   0.20657   0.00000  Uiso   1.00
Zn651  Zn    0.12893   0.87106   0.28734   0.00000  Uiso   1.00
C652   C     0.38631   0.82644   0.25984   0.00000  Uiso   1.00
C653   C     0.49849   0.81682   0.05898   0.00000  Uiso   1.00
C654   C     0.57088   0.80524   0.05648   0.00000  Uiso   1.00
C655   C     0.61409   0.84088   0.24047   0.00000  Uiso   1.00
C656   C     0.46937   0.85327   0.42036   0.00000  Uiso   1.00
C657   C     0.65970   0.84630   0.23954   0.00000  Uiso   1.00
C658   C     0.34091   0.82288   0.26429   0.00000  Uiso   1.00
C659   C     0.51246   0.98922   0.23763   0.00000  Uiso   1.00
C660   C     0.48387   0.67881   0.26590   0.00000  Uiso   1.00
C661   C     0.49001   0.72270   0.25981   0.00000  Uiso   1.00
C662   C     0.50959   0.94459   0.24027   0.00000  Uiso   1.00
C663   C     0.41005   0.84569   0.48698   0.00000  Uiso   1.00
C664   C     0.51897   0.81495   0.12931   0.00000  Uiso   1.00
C665   C     0.48194   0.85135   0.37094   0.00000  Uiso   1.00
C666   C     0.58390   0.81165   0.01106   0.00000  Uiso   1.00
C667   C     0.52859   0.80904   0.08065   0.00000  Uiso   1.00
C668   C     0.42594   0.85474   0.44221   0.00000  Uiso   1.00
C669   C     0.64712   0.79509   0.33307   0.00000  Uiso   1.00
C670   C     0.34037   0.76451   0.34409   0.00000  Uiso   1.00
C671   C     0.33646   0.76677   0.39451   0.00000  Uiso   1.00
C672   C     0.43133   0.68728   0.33467   0.00000  Uiso   1.00
C673   C     0.45898   0.69297   0.36852   0.00000  Uiso   1.00
C674   C     0.43748   0.83435   0.01013   0.00000  Uiso   1.00
C675   C     0.44227   0.72392   0.40795   0.00000  Uiso   1.00
C676   C     0.35439   0.87994   0.02962   0.00000  Uiso   1.00
C677   C     0.34568   0.87668   0.08035   0.00000  Uiso   1.00
C678   C     0.65861   0.91408   0.10717   0.00000  Uiso   1.00
C679   C     0.34930   0.91540   0.23286   0.00000  Uiso   1.00
C680   C     0.38599   0.94598   0.20840   0.00000  Uiso   1.00
C681   C     0.37989   0.99084   0.22655   0.00000  Uiso   1.00
C682   C     0.48200   0.83476   0.48999   0.00000  Uiso   1.00
C683   C     0.49807   0.84535   0.44471   0.00000  Uiso   1.00
C684   C     0.51097   0.82407   0.01295   0.00000  Uiso   1.00
C685   C     0.55486   0.82272   0.48960   0.00000  Uiso   1.00
C686   C     0.57005   0.83470   0.44588   0.00000  Uiso   1.00
C687   C     0.54245   0.84722   0.42434   0.00000  Uiso   1.00
H688   H     0.59438   0.79964   0.07344   0.00000  Uiso   1.00
H689   H     0.65760   0.82755   0.34514   0.00000  Uiso   1.00
H690   H     0.66243   0.73232   0.33264   0.00000  Uiso   1.00
H691   H     0.37465   0.77177   0.32620   0.00000  Uiso   1.00
H692   H     0.34865   0.79841   0.40650   0.00000  Uiso   1.00
H693   H     0.35563   0.74400   0.40149   0.00000  Uiso   1.00
H694   H     0.63581   0.75912   0.41326   0.00000  Uiso   1.00
H695   H     0.39897   0.67248   0.35163   0.00000  Uiso   1.00
H696   H     0.42593   0.71759   0.32514   0.00000  Uiso   1.00
H697   H     0.45882   0.99577   0.38144   0.00000  Uiso   1.00
H698   H     0.49268   0.70438   0.35195   0.00000  Uiso   1.00
H699   H     0.53903   0.67058   0.21256   0.00000  Uiso   1.00
H700   H     0.44187   0.75463   0.39574   0.00000  Uiso   1.00
H701   H     0.46354   0.72813   0.43115   0.00000  Uiso   1.00
H702   H     0.40939   0.71215   0.42681   0.00000  Uiso   1.00
H703   H     0.65758   0.88539   0.02206   0.00000  Uiso   1.00
H704   H     0.37814   0.90770   0.01916   0.00000  Uiso   1.00
H705   H     0.65710   0.84789   0.09008   0.00000  Uiso   1.00
H706   H     0.37626   0.87489   0.08903   0.00000  Uiso   1.00
H707   H     0.34696   0.94326   0.09872   0.00000  Uiso   1.00
H708   H     0.65268   0.91067   0.14367   0.00000  Uiso   1.00
H709   H     0.62746   0.91606   0.09980   0.00000  Uiso   1.00
H710   H     0.60381   0.83566   0.42869   0.00000  Uiso   1.00
H711   H     0.34984   0.91760   0.26895   0.00000  Uiso   1.00
H712   H     0.65173   0.92442   0.23043   0.00000  Uiso   1.00
H713   H     0.41684   0.93860   0.21272   0.00000  Uiso   1.00
H714   H     0.38758   0.94280   0.17188   0.00000  Uiso   1.00
H715   H     0.35004   0.99935   0.22096   0.00000  Uiso   1.00
H716   H     0.40746   0.67879   0.20875   0.00000  Uiso   1.00
H717   H     0.37802   0.99486   0.26310   0.00000  Uiso   1.00
H718   H     0.61722   0.81015   0.49328   0.00000  Uiso   1.00
H719   H     0.46684   0.82093   0.07982   0.00000  Uiso   1.00
H720   H     0.40355   0.85997   0.42366   0.00000  Uiso   1.00
H721   H     0.42266   0.82429   0.04330   0.00000  Uiso   1.00
H722   H     0.55652   0.85859   0.39145   0.00000  Uiso   1.00
H723   H     0.61318   0.78778   0.35215   0.00000  Uiso   1.00
O724   O     0.50000   0.83333   0.25000   0.00000  Uiso   1.00
O725   O     0.48784   0.79304   0.15459   0.00000  Uiso   1.00
O726   O     0.46274   0.87058   0.34968   0.00000  Uiso   1.00
O727   O     0.54157   0.84425   0.14606   0.00000  Uiso   1.00
O728   O     0.50785   0.82546   0.34968   0.00000  Uiso   1.00
O729   O     0.64823   0.79007   0.28673   0.00000  Uiso   1.00
O730   O     0.44831   0.99352   0.29696   0.00000  Uiso   1.00
O731   O     0.36635   0.84192   0.00606   0.00000  Uiso   1.00
O732   O     0.35472   0.87482   0.21250   0.00000  Uiso   1.00
O733   O     0.51264   0.74686   0.28214   0.00000  Uiso   1.00
O734   O     0.47965   0.92751   0.27014   0.00000  Uiso   1.00
O735   O     0.40745   0.79958   0.23413   0.00000  Uiso   1.00
O736   O     0.60026   0.85939   0.21361   0.00000  Uiso   1.00
O737   O     0.40405   0.85544   0.28213   0.00000  Uiso   1.00
O738   O     0.58824   0.81892   0.27014   0.00000  Uiso   1.00
O739   O     0.47093   0.73610   0.23413   0.00000  Uiso   1.00
O740   O     0.53678   0.92286   0.21361   0.00000  Uiso   1.00
Zn741  Zn    0.52672   0.80661   0.28734   0.00000  Uiso   1.00
Zn742  Zn    0.46713   0.79124   0.21876   0.00000  Uiso   1.00
Zn743  Zn    0.54389   0.86442   0.20657   0.00000  Uiso   1.00
Zn744  Zn    0.46226   0.87106   0.28734   0.00000  Uiso   1.00
C745   C     0.71964   0.82644   0.25984   0.00000  Uiso   1.00
C746   C     0.83182   0.81682   0.05898   0.00000  Uiso   1.00
C747   C     0.90421   0.80524   0.05648   0.00000  Uiso   1.00
C748   C     0.94743   0.84088   0.24047   0.00000  Uiso   1.00
C749   C     0.80270   0.85327   0.42036   0.00000  Uiso   1.00
C750   C     0.99303   0.84630   0.23954   0.00000  Uiso   1.00
C751   C     0.67424   0.82288   0.26429   0.00000  Uiso   1.00
C752   C     0.84579   0.98922   0.23763   0.00000  Uiso   1.00
C753   C     0.81720   0.67881   0.26590   0.00000  Uiso   1.00
C754   C     0.82334   0.72270   0.25981   0.00000  Uiso   1.00
C755   C     0.84292   0.94459   0.24027   0.00000  Uiso   1.00
C756   C     0.74338   0.84569   0.48698   0.00000  Uiso   1.00
C757   C     0.85230   0.81495   0.12931   0.00000  Uiso   1.00
C758   C     0.81528   0.85135   0.37094   0.00000  Uiso   1.00
C759   C     0.91723   0.81165   0.01106   0.00000  Uiso   1.00
C760   C     0.86192   0.80904   0.08065   0.00000  Uiso   1.00
C761   C     0.75927   0.85474   0.44221   0.00000  Uiso   1.00
C762   C     0.98045   0.79509   0.33307   0.00000  Uiso   1.00
C763   C     0.67370   0.76451   0.34409   0.00000  Uiso   1.00
C764   C     0.66979   0.76677   0.39451   0.00000  Uiso   1.00
C765   C     0.76467   0.68728   0.33467   0.00000  Uiso   1.00
C766   C     0.79231   0.69297   0.36852   0.00000  Uiso   1.00
C767   C     0.77082   0.83435   0.01013   0.00000  Uiso   1.00
C768   C     0.77561   0.72392   0.40795   0.00000  Uiso   1.00
C769   C     0.68772   0.87994   0.02962   0.00000  Uiso   1.00
C770   C     0.67902   0.87668   0.08035   0.00000  Uiso   1.00
C771   C     0.99194   0.91408   0.10717   0.00000  Uiso   1.00
C772   C     0.68263   0.91540   0.23286   0.00000  Uiso   1.00
C773   C     0.71933   0.94598   0.20840   0.00000  Uiso   1.00
C774   C     0.71323   0.99084   0.22655   0.00000  Uiso   1.00
C775   C     0.81533   0.83476   0.48999   0.00000  Uiso   1.00
C776   C     0.83141   0.84535   0.44471   0.00000  Uiso   1.00
C777   C     0.84431   0.82407   0.01295   0.00000  Uiso   1.00
C778   C     0.88819   0.82272   0.48960   0.00000  Uiso   1.00
C779   C     0.90339   0.83470   0.44588   0.00000  Uiso   1.00
C780   C     0.87578   0.84722   0.42434   0.00000  Uiso   1.00
H781   H     0.92771   0.79964   0.07344   0.00000  Uiso   1.00
H782   H     0.99094   0.82755   0.34514   0.00000  Uiso   1.00
H783   H     0.99576   0.73232   0.33264   0.00000  Uiso   1.00
H784   H     0.70798   0.77177   0.32620   0.00000  Uiso   1.00
H785   H     0.68198   0.79841   0.40650   0.00000  Uiso   1.00
H786   H     0.68896   0.74400   0.40149   0.00000  Uiso   1.00
H787   H     0.96915   0.75912   0.41326   0.00000  Uiso   1.00
H788   H     0.73230   0.67248   0.35163   0.00000  Uiso   1.00
H789   H     0.75926   0.71759   0.32514   0.00000  Uiso   1.00
H790   H     0.79215   0.99577   0.38144   0.00000  Uiso   1.00
H791   H     0.82601   0.70438   0.35195   0.00000  Uiso   1.00
H792   H     0.87236   0.67058   0.21256   0.00000  Uiso   1.00
H793   H     0.77520   0.75463   0.39574   0.00000  Uiso   1.00
H794   H     0.79687   0.72813   0.43115   0.00000  Uiso   1.00
H795   H     0.74273   0.71215   0.42681   0.00000  Uiso   1.00
H796   H     0.99092   0.88539   0.02206   0.00000  Uiso   1.00
H797   H     0.71147   0.90770   0.01916   0.00000  Uiso   1.00
H798   H     0.99043   0.84789   0.09008   0.00000  Uiso   1.00
H799   H     0.70959   0.87489   0.08903   0.00000  Uiso   1.00
H800   H     0.68030   0.94326   0.09872   0.00000  Uiso   1.00
H801   H     0.98601   0.91067   0.14367   0.00000  Uiso   1.00
H802   H     0.96079   0.91606   0.09980   0.00000  Uiso   1.00
H803   H     0.93714   0.83566   0.42869   0.00000  Uiso   1.00
H804   H     0.68318   0.91760   0.26895   0.00000  Uiso   1.00
H805   H     0.98506   0.92442   0.23043   0.00000  Uiso   1.00
H806   H     0.75017   0.93860   0.21272   0.00000  Uiso   1.00
H807   H     0.72092   0.94280   0.17188   0.00000  Uiso   1.00
H808   H     0.68337   0.99935   0.22096   0.00000  Uiso   1.00
H809   H     0.74079   0.67879   0.20875   0.00000  Uiso   1.00
H810   H     0.71135   0.99486   0.26310   0.00000  Uiso   1.00
H811   H     0.95056   0.81015   0.49328   0.00000  Uiso   1.00
H812   H     0.80017   0.82093   0.07982   0.00000  Uiso   1.00
H813   H     0.73688   0.85997   0.42366   0.00000  Uiso   1.00
H814   H     0.75599   0.82429   0.04330   0.00000  Uiso   1.00
H815   H     0.88986   0.85859   0.39145   0.00000  Uiso   1.00
H816   H     0.94651   0.78778   0.35215   0.00000  Uiso   1.00
O817   O     0.83333   0.83333   0.25000   0.00000  Uiso   1.00
O818   O     0.82118   0.79304   0.15459   0.00000  Uiso   1.00
O819   O     0.79607   0.87058   0.34968   0.00000  Uiso   1.00
O820   O     0.87491   0.84425   0.14606   0.00000  Uiso   1.00
O821   O     0.84118   0.82546   0.34968   0.00000  Uiso   1.00
O822   O     0.98156   0.79007   0.28673   0.00000  Uiso   1.00
O823   O     0.78165   0.99352   0.29696   0.00000  Uiso   1.00
O824   O     0.69969   0.84192   0.00606   0.00000  Uiso   1.00
O825   O     0.68806   0.87482   0.21250   0.00000  Uiso   1.00
O826   O     0.84597   0.74686   0.28214   0.00000  Uiso   1.00
O827   O     0.81298   0.92751   0.27014   0.00000  Uiso   1.00
O828   O     0.74078   0.79958   0.23413   0.00000  Uiso   1.00
O829   O     0.93360   0.85939   0.21361   0.00000  Uiso   1.00
O830   O     0.73738   0.85544   0.28213   0.00000  Uiso   1.00
O831   O     0.92158   0.81892   0.27014   0.00000  Uiso   1.00
O832   O     0.80426   0.73610   0.23413   0.00000  Uiso   1.00
O833   O     0.87012   0.92286   0.21361   0.00000  Uiso   1.00
Zn834  Zn    0.86005   0.80661   0.28734   0.00000  Uiso   1.00
Zn835  Zn    0.80046   0.79124   0.21876   0.00000  Uiso   1.00
Zn836  Zn    0.87723   0.86442   0.20657   0.00000  Uiso   1.00
Zn837  Zn    0.79560   0.87106   0.28734   0.00000  Uiso   1.00
C838   C     0.05297   0.15978   0.75984   0.00000  Uiso   1.00
C839   C     0.16515   0.15015   0.55898   0.00000  Uiso   1.00
C840   C     0.23755   0.13857   0.55648   0.00000  Uiso   1.00
C841   C     0.28076   0.17421   0.74047   0.00000  Uiso   1.00
C842   C     0.13604   0.18661   0.92036   0.00000  Uiso   1.00
C843   C     0.32636   0.17963   0.73954   0.00000  Uiso   1.00
C844   C     0.00758   0.15622   0.76429   0.00000  Uiso   1.00
C845   C     0.17913   0.32256   0.73763   0.00000  Uiso   1.00
C846   C     0.15053   0.01214   0.76590   0.00000  Uiso   1.00
C847   C     0.15667   0.05604   0.75981   0.00000  Uiso   1.00
C848   C     0.17626   0.27793   0.74027   0.00000  Uiso   1.00
C849   C     0.07672   0.17902   0.98698   0.00000  Uiso   1.00
C850   C     0.18563   0.14828   0.62931   0.00000  Uiso   1.00
C851   C     0.14861   0.18468   0.87094   0.00000  Uiso   1.00
C852   C     0.25056   0.14499   0.51106   0.00000  Uiso   1.00
C853   C     0.19525   0.14237   0.58065   0.00000  Uiso   1.00
C854   C     0.09260   0.18807   0.94221   0.00000  Uiso   1.00
C855   C     0.31379   0.12843   0.83307   0.00000  Uiso   1.00
C856   C     0.00704   0.09784   0.84409   0.00000  Uiso   1.00
C857   C     0.00313   0.10010   0.89451   0.00000  Uiso   1.00
C858   C     0.09800   0.02062   0.83467   0.00000  Uiso   1.00
C859   C     0.12565   0.02630   0.86852   0.00000  Uiso   1.00
C860   C     0.10415   0.16769   0.51013   0.00000  Uiso   1.00
C861   C     0.10894   0.05726   0.90795   0.00000  Uiso   1.00
C862   C     0.02106   0.21328   0.52962   0.00000  Uiso   1.00
C863   C     0.01235   0.21001   0.58035   0.00000  Uiso   1.00
C864   C     0.32527   0.24741   0.60717   0.00000  Uiso   1.00
C865   C     0.01596   0.24873   0.73286   0.00000  Uiso   1.00
C866   C     0.05266   0.27931   0.70840   0.00000  Uiso   1.00
C867   C     0.04656   0.32417   0.72655   0.00000  Uiso   1.00
C868   C     0.14866   0.16809   0.98999   0.00000  Uiso   1.00
C869   C     0.16474   0.17868   0.94471   0.00000  Uiso   1.00
C870   C     0.17764   0.15740   0.51295   0.00000  Uiso   1.00
C871   C     0.22153   0.15606   0.98960   0.00000  Uiso   1.00
C872   C     0.23672   0.16804   0.94588   0.00000  Uiso   1.00
C873   C     0.20912   0.18055   0.92434   0.00000  Uiso   1.00
H874   H     0.26105   0.13297   0.57344   0.00000  Uiso   1.00
H875   H     0.32427   0.16088   0.84514   0.00000  Uiso   1.00
H876   H     0.32910   0.06565   0.83264   0.00000  Uiso   1.00
H877   H     0.04132   0.10510   0.82620   0.00000  Uiso   1.00
H878   H     0.01531   0.13175   0.90650   0.00000  Uiso   1.00
H879   H     0.02230   0.07733   0.90149   0.00000  Uiso   1.00
H880   H     0.30248   0.09246   0.91326   0.00000  Uiso   1.00
H881   H     0.06564   0.00581   0.85163   0.00000  Uiso   1.00
H882   H     0.09259   0.05092   0.82514   0.00000  Uiso   1.00
H883   H     0.12548   0.32910   0.88144   0.00000  Uiso   1.00
H884   H     0.15935   0.03771   0.85195   0.00000  Uiso   1.00
H885   H     0.20569   0.00392   0.71256   0.00000  Uiso   1.00
H886   H     0.10854   0.08796   0.89574   0.00000  Uiso   1.00
H887   H     0.13021   0.06147   0.93115   0.00000  Uiso   1.00
H888   H     0.07606   0.04549   0.92681   0.00000  Uiso   1.00
H889   H     0.32425   0.21872   0.52206   0.00000  Uiso   1.00
H890   H     0.04480   0.24104   0.51916   0.00000  Uiso   1.00
H891   H     0.32376   0.18123   0.59008   0.00000  Uiso   1.00
H892   H     0.04292   0.20822   0.58903   0.00000  Uiso   1.00
H893   H     0.01363   0.27659   0.59872   0.00000  Uiso   1.00
H894   H     0.31934   0.24400   0.64367   0.00000  Uiso   1.00
H895   H     0.29412   0.24939   0.59980   0.00000  Uiso   1.00
H896   H     0.27047   0.16899   0.92869   0.00000  Uiso   1.00
H897   H     0.01651   0.25094   0.76895   0.00000  Uiso   1.00
H898   H     0.31839   0.25775   0.73043   0.00000  Uiso   1.00
H899   H     0.08350   0.27193   0.71272   0.00000  Uiso   1.00
H900   H     0.05425   0.27613   0.67188   0.00000  Uiso   1.00
H901   H     0.01670   0.33268   0.72096   0.00000  Uiso   1.00
H902   H     0.07412   0.01212   0.70875   0.00000  Uiso   1.00
H903   H     0.04469   0.32820   0.76310   0.00000  Uiso   1.00
H904   H     0.28389   0.14348   0.99328   0.00000  Uiso   1.00
H905   H     0.13351   0.15426   0.57982   0.00000  Uiso   1.00
H906   H     0.07022   0.19330   0.92366   0.00000  Uiso   1.00
H907   H     0.08933   0.15762   0.54330   0.00000  Uiso   1.00
H908   H     0.22319   0.19193   0.89145   0.00000  Uiso   1.00
H909   H     0.27985   0.12112   0.85215   0.00000  Uiso   1.00
O910   O     0.16667   0.16667   0.75000   0.00000  Uiso   1.00
O911   O     0.15451   0.12637   0.65459   0.00000  Uiso   1.00
O912   O     0.12940   0.20391   0.84968   0.00000  Uiso   1.00
O913   O     0.20824   0.17759   0.64606   0.00000  Uiso   1.00
O914   O     0.17451   0.15880   0.84968   0.00000  Uiso   1.00
O915   O     0.31490   0.12340   0.78673   0.00000  Uiso   1.00
O916   O     0.11498   0.32686   0.79696   0.00000  Uiso   1.00
O917   O     0.03302   0.17526   0.50606   0.00000  Uiso   1.00
O918   O     0.02139   0.20815   0.71250   0.00000  Uiso   1.00
O919   O     0.17930   0.08019   0.78214   0.00000  Uiso   1.00
O920   O     0.14632   0.26085   0.77014   0.00000  Uiso   1.00
O921   O     0.07412   0.13291   0.73413   0.00000  Uiso   1.00
O922   O     0.26693   0.19272   0.71361   0.00000  Uiso   1.00
O923   O     0.07071   0.18878   0.78213   0.00000  Uiso   1.00
O924   O     0.25491   0.15226   0.77014   0.00000  Uiso   1.00
O925   O     0.13760   0.06944   0.73413   0.00000  Uiso   1.00
O926   O     0.20345   0.25620   0.71361   0.00000  Uiso   1.00
Zn927  Zn    0.19338   0.13994   0.78734   0.00000  Uiso   1.00
Zn928  Zn    0.13379   0.12458   0.71876   0.00000  Uiso   1.00
Zn929  Zn    0.21056   0.19775   0.70657   0.00000  Uiso   1.00
Zn930  Zn    0.12893   0.20439   0.78734   0.00000  Uiso   1.00
C931   C     0.38631   0.15978   0.75984   0.00000  Uiso   1.00
C932   C     0.49849   0.15015   0.55898   0.00000  Uiso   1.00
C933   C     0.57088   0.13857   0.55648   0.00000  Uiso   1.00
C934   C     0.61409   0.17421   0.74047   0.00000  Uiso   1.00
C935   C     0.46937   0.18661   0.92036   0.00000  Uiso   1.00
C936   C     0.65970   0.17963   0.73954   0.00000  Uiso   1.00
C937   C     0.34091   0.15622   0.76429   0.00000  Uiso   1.00
C938   C     0.51246   0.32256   0.73763   0.00000  Uiso   1.00
C939   C     0.48387   0.01214   0.76590   0.00000  Uiso   1.00
C940   C     0.49001   0.05604   0.75981   0.00000  Uiso   1.00
C941   C     0.50959   0.27793   0.74027   0.00000  Uiso   1.00
C942   C     0.41005   0.17902   0.98698   0.00000  Uiso   1.00
C943   C     0.51897   0.14828   0.62931   0.00000  Uiso   1.00
C944   C     0.48194   0.18468   0.87094   0.00000  Uiso   1.00
C945   C     0.58390   0.14499   0.51106   0.00000  Uiso   1.00
C946   C     0.52859   0.14237   0.58065   0.00000  Uiso   1.00
C947   C     0.42594   0.18807   0.94221   0.00000  Uiso   1.00
C948   C     0.64712   0.12843   0.83307   0.00000  Uiso   1.00
C949   C     0.34037   0.09784   0.84409   0.00000  Uiso   1.00
C950   C     0.33646   0.10010   0.89451   0.00000  Uiso   1.00
C951   C     0.43133   0.02062   0.83467   0.00000  Uiso   1.00
C952   C     0.45898   0.02630   0.86852   0.00000  Uiso   1.00
C953   C     0.43748   0.16769   0.51013   0.00000  Uiso   1.00
C954   C     0.44227   0.05726   0.90795   0.00000  Uiso   1.00
C955   C     0.35439   0.21328   0.52962   0.00000  Uiso   1.00
C956   C     0.34568   0.21001   0.58035   0.00000  Uiso   1.00
C957   C     0.65861   0.24741   0.60717   0.00000  Uiso   1.00
C958   C     0.34930   0.24873   0.73286   0.00000  Uiso   1.00
C959   C     0.38599   0.27931   0.70840   0.00000  Uiso   1.00
C960   C     0.37989   0.32417   0.72655   0.00000  Uiso   1.00
C961   C     0.48200   0.16809   0.98999   0.00000  Uiso   1.00
C962   C     0.49807   0.17868   0.94471   0.00000  Uiso   1.00
C963   C     0.51097   0.15740   0.51295   0.00000  Uiso   1.00
C964   C     0.55486   0.15606   0.98960   0.00000  Uiso   1.00
C965   C     0.57005   0.16804   0.94588   0.00000  Uiso   1.00
C966   C     0.54245   0.18055   0.92434   0.00000  Uiso   1.00
H967   H     0.59438   0.13297   0.57344   0.00000  Uiso   1.00
H968   H     0.65760   0.16088   0.84514   0.00000  Uiso   1.00
H969   H     0.66243   0.06565   0.83264   0.00000  Uiso   1.00
H970   H     0.37465   0.10510   0.82620   0.00000  Uiso   1.00
H971   H     0.34865   0.13175   0.90650   0.00000  Uiso   1.00
H972   H     0.35563   0.07733   0.90149   0.00000  Uiso   1.00
H973   H     0.63581   0.09246   0.91326   0.00000  Uiso   1.00
H974   H     0.39897   0.00581   0.85163   0.00000  Uiso   1.00
H975   H     0.42593   0.05092   0.82514   0.00000  Uiso   1.00
H976   H     0.45882   0.32910   0.88144   0.00000  Uiso   1.00
H977   H     0.49268   0.03771   0.85195   0.00000  Uiso   1.00
H978   H     0.53903   0.00392   0.71256   0.00000  Uiso   1.00
H979   H     0.44187   0.08796   0.89574   0.00000  Uiso   1.00
H980   H     0.46354   0.06147   0.93115   0.00000  Uiso   1.00
H981   H     0.40939   0.04549   0.92681   0.00000  Uiso   1.00
H982   H     0.65758   0.21872   0.52206   0.00000  Uiso   1.00
H983   H     0.37814   0.24104   0.51916   0.00000  Uiso   1.00
H984   H     0.65710   0.18123   0.59008   0.00000  Uiso   1.00
H985   H     0.37626   0.20822   0.58903   0.00000  Uiso   1.00
H986   H     0.34696   0.27659   0.59872   0.00000  Uiso   1.00
H987   H     0.65268   0.24400   0.64367   0.00000  Uiso   1.00
H988   H     0.62746   0.24939   0.59980   0.00000  Uiso   1.00
H989   H     0.60381   0.16899   0.92869   0.00000  Uiso   1.00
H990   H     0.34984   0.25094   0.76895   0.00000  Uiso   1.00
H991   H     0.65173   0.25775   0.73043   0.00000  Uiso   1.00
H992   H     0.41684   0.27193   0.71272   0.00000  Uiso   1.00
H993   H     0.38758   0.27613   0.67188   0.00000  Uiso   1.00
H994   H     0.35004   0.33268   0.72096   0.00000  Uiso   1.00
H995   H     0.40746   0.01212   0.70875   0.00000  Uiso   1.00
H996   H     0.37802   0.32820   0.76310   0.00000  Uiso   1.00
H997   H     0.61722   0.14348   0.99328   0.00000  Uiso   1.00
H998   H     0.46684   0.15426   0.57982   0.00000  Uiso   1.00
H999   H     0.40355   0.19330   0.92366   0.00000  Uiso   1.00
H1000  H     0.42266   0.15762   0.54330   0.00000  Uiso   1.00
H1001  H     0.55652   0.19193   0.89145   0.00000  Uiso   1.00
H1002  H     0.61318   0.12112   0.85215   0.00000  Uiso   1.00
O1003  O     0.50000   0.16667   0.75000   0.00000  Uiso   1.00
O1004  O     0.48784   0.12637   0.65459   0.00000  Uiso   1.00
O1005  O     0.46274   0.20391   0.84968   0.00000  Uiso   1.00
O1006  O     0.54157   0.17759   0.64606   0.00000  Uiso   1.00
O1007  O     0.50785   0.15880   0.84968   0.00000  Uiso   1.00
O1008  O     0.64823   0.12340   0.78673   0.00000  Uiso   1.00
O1009  O     0.44831   0.32686   0.79696   0.00000  Uiso   1.00
O1010  O     0.36635   0.17526   0.50606   0.00000  Uiso   1.00
O1011  O     0.35472   0.20815   0.71250   0.00000  Uiso   1.00
O1012  O     0.51264   0.08019   0.78214   0.00000  Uiso   1.00
O1013  O     0.47965   0.26085   0.77014   0.00000  Uiso   1.00
O1014  O     0.40745   0.13291   0.73413   0.00000  Uiso   1.00
O1015  O     0.60026   0.19272   0.71361   0.00000  Uiso   1.00
O1016  O     0.40405   0.18878   0.78213   0.00000  Uiso   1.00
O1017  O     0.58824   0.15226   0.77014   0.00000  Uiso   1.00
O1018  O     0.47093   0.06944   0.73413   0.00000  Uiso   1.00
O1019  O     0.53678   0.25620   0.71361   0.00000  Uiso   1.00
Zn1020 Zn    0.52672   0.13994   0.78734   0.00000  Uiso   1.00
Zn1021 Zn    0.46713   0.12458   0.71876   0.00000  Uiso   1.00
Zn1022 Zn    0.54389   0.19775   0.70657   0.00000  Uiso   1.00
Zn1023 Zn    0.46226   0.20439   0.78734   0.00000  Uiso   1.00
C1024  C     0.71964   0.15978   0.75984   0.00000  Uiso   1.00
C1025  C     0.83182   0.15015   0.55898   0.00000  Uiso   1.00
C1026  C     0.90421   0.13857   0.55648   0.00000  Uiso   1.00
C1027  C     0.94743   0.17421   0.74047   0.00000  Uiso   1.00
C1028  C     0.80270   0.18661   0.92036   0.00000  Uiso   1.00
C1029  C     0.99303   0.17963   0.73954   0.00000  Uiso   1.00
C1030  C     0.67424   0.15622   0.76429   0.00000  Uiso   1.00
C1031  C     0.84579   0.32256   0.73763   0.00000  Uiso   1.00
C1032  C     0.81720   0.01214   0.76590   0.00000  Uiso   1.00
C1033  C     0.82334   0.05604   0.75981   0.00000  Uiso   1.00
C1034  C     0.84292   0.27793   0.74027   0.00000  Uiso   1.00
C1035  C     0.74338   0.17902   0.98698   0.00000  Uiso   1.00
C1036  C     0.85230   0.14828   0.62931   0.00000  Uiso   1.00
C1037  C     0.81528   0.18468   0.87094   0.00000  Uiso   1.00
C1038  C     0.91723   0.14499   0.51106   0.00000  Uiso   1.00
C1039  C     0.86192   0.14237   0.58065   0.00000  Uiso   1.00
C1040  C     0.75927   0.18807   0.94221   0.00000  Uiso   1.00
C1041  C     0.98045   0.12843   0.83307   0.00000  Uiso   1.00
C1042  C     0.67370   0.09784   0.84409   0.00000  Uiso   1.00
C1043  C     0.66979   0.10010   0.89451   0.00000  Uiso   1.00
C1044  C     0.76467   0.02062   0.83467   0.00000  Uiso   1.00
C1045  C     0.79231   0.02630   0.86852   0.00000  Uiso   1.00
C1046  C     0.77082   0.16769   0.51013   0.00000  Uiso   1.00
C1047  C     0.77561   0.05726   0.90795   0.00000  Uiso   1.00
C1048  C     0.68772   0.21328   0.52962   0.00000  Uiso   1.00
C1049  C     0.67902   0.21001   0.58035   0.00000  Uiso   1.00
C1050  C     0.99194   0.24741   0.60717   0.00000  Uiso   1.00
C1051  C     0.68263   0.24873   0.73286   0.00000  Uiso   1.00
C1052  C     0.71933   0.27931   0.70840   0.00000  Uiso   1.00
C1053  C     0.71323   0.32417   0.72655   0.00000  Uiso   1.00
C1054  C     0.81533   0.16809   0.98999   0.00000  Uiso   1.00
C1055  C     0.83141   0.17868   0.94471   0.00000  Uiso   1.00
C1056  C     0.84431   0.15740   0.51295   0.00000  Uiso   1.00
C1057  C     0.88819   0.15606   0.98960   0.00000  Uiso   1.00
C1058  C     0.90339   0.16804   0.94588   0.00000  Uiso   1.00
C1059  C     0.87578   0.18055   0.92434   0.00000  Uiso   1.00
H1060  H     0.92771   0.13297   0.57344   0.00000  Uiso   1.00
H1061  H     0.99094   0.16088   0.84514   0.00000  Uiso   1.00
H1062  H     0.99576   0.06565   0.83264   0.00000  Uiso   1.00
H1063  H     0.70798   0.10510   0.82620   0.00000  Uiso   1.00
H1064  H     0.68198   0.13175   0.90650   0.00000  Uiso   1.00
H1065  H     0.68896   0.07733   0.90149   0.00000  Uiso   1.00
H1066  H     0.96915   0.09246   0.91326   0.00000  Uiso   1.00
H1067  H     0.73230   0.00581   0.85163   0.00000  Uiso   1.00
H1068  H     0.75926   0.05092   0.82514   0.00000  Uiso   1.00
H1069  H     0.79215   0.32910   0.88144   0.00000  Uiso   1.00
H1070  H     0.82601   0.03771   0.85195   0.00000  Uiso   1.00
H1071  H     0.87236   0.00392   0.71256   0.00000  Uiso   1.00
H1072  H     0.77520   0.08796   0.89574   0.00000  Uiso   1.00
H1073  H     0.79687   0.06147   0.93115   0.00000  Uiso   1.00
H1074  H     0.74273   0.04549   0.92681   0.00000  Uiso   1.00
H1075  H     0.99092   0.21872   0.52206   0.00000  Uiso   1.00
H1076  H     0.71147   0.24104   0.51916   0.00000  Uiso   1.00
H1077  H     0.99043   0.18123   0.59008   0.00000  Uiso   1.00
H1078  H     0.70959   0.20822   0.58903   0.00000  Uiso   1.00
H1079  H     0.68030   0.27659   0.59872   0.00000  Uiso   1.00
H1080  H     0.98601   0.24400   0.64367   0.00000  Uiso   1.00
H1081  H     0.96079   0.24939   0.59980   0.00000  Uiso   1.00
H1082  H     0.93714   0.16899   0.92869   0.00000  Uiso   1.00
H1083  H     0.68318   0.25094   0.76895   0.00000  Uiso   1.00
H1084  H     0.98506   0.25775   0.73043   0.00000  Uiso   1.00
H1085  H     0.75017   0.27193   0.71272   0.00000  Uiso   1.00
H1086  H     0.72092   0.27613   0.67188   0.00000  Uiso   1.00
H1087  H     0.68337   0.33268   0.72096   0.00000  Uiso   1.00
H1088  H     0.74079   0.01212   0.70875   0.00000  Uiso   1.00
H1089  H     0.71135   0.32820   0.76310   0.00000  Uiso   1.00
H1090  H     0.95056   0.14348   0.99328   0.00000  Uiso   1.00
H1091  H     0.80017   0.15426   0.57982   0.00000  Uiso   1.00
H1092  H     0.73688   0.19330   0.92366   0.00000  Uiso   1.00
H1093  H     0.75599   0.15762   0.54330   0.00000  Uiso   1.00
H1094  H     0.88986   0.19193   0.89145   0.00000  Uiso   1.00
H1095  H     0.94651   0.12112   0.85215   0.00000  Uiso   1.00
O1096  O     0.83333   0.16667   0.75000   0.00000  Uiso   1.00
O1097  O     0.82118   0.12637   0.65459   0.00000  Uiso   1.00
O1098  O     0.79607   0.20391   0.84968   0.00000  Uiso   1.00
O1099  O     0.87491   0.17759   0.64606   0.00000  Uiso   1.00
O1100  O     0.84118   0.15880   0.84968   0.00000  Uiso   1.00
O1101  O     0.98156   0.12340   0.78673   0.00000  Uiso   1.00
O1102  O     0.78165   0.32686   0.79696   0.00000  Uiso   1.00
O1103  O     0.69969   0.17526   0.50606   0.00000  Uiso   1.00
O1104  O     0.68806   0.20815   0.71250   0.00000  Uiso   1.00
O1105  O     0.84597   0.08019   0.78214   0.00000  Uiso   1.00
O1106  O     0.81298   0.26085   0.77014   0.00000  Uiso   1.00
O1107  O     0.74078   0.13291   0.73413   0.00000  Uiso   1.00
O1108  O     0.93360   0.19272   0.71361   0.00000  Uiso   1.00
O1109  O     0.73738   0.18878   0.78213   0.00000  Uiso   1.00
O1110  O     0.92158   0.15226   0.77014   0.00000  Uiso   1.00
O1111  O     0.80426   0.06944   0.73413   0.00000  Uiso   1.00
O1112  O     0.87012   0.25620   0.71361   0.00000  Uiso   1.00
Zn1113 Zn    0.86005   0.13994   0.78734   0.00000  Uiso   1.00
Zn1114 Zn    0.80046   0.12458   0.71876   0.00000  Uiso   1.00
Zn1115 Zn    0.87723   0.19775   0.70657   0.00000  Uiso   1.00
Zn1116 Zn    0.79560   0.20439   0.78734   0.00000  Uiso   1.00
C1117  C     0.05297   0.49311   0.75984   0.00000  Uiso   1.00
C1118  C     0.16515   0.48349   0.55898   0.00000  Uiso   1.00
C1119  C     0.23755   0.47191   0.55648   0.00000  Uiso   1.00
C1120  C     0.28076   0.50755   0.74047   0.00000  Uiso   1.00
C1121  C     0.13604   0.51994   0.92036   0.00000  Uiso   1.00
C1122  C     0.32636   0.51296   0.73954   0.00000  Uiso   1.00
C1123  C     0.00758   0.48955   0.76429   0.00000  Uiso   1.00
C1124  C     0.17913   0.65589   0.73763   0.00000  Uiso   1.00
C1125  C     0.15053   0.34547   0.76590   0.00000  Uiso   1.00
C1126  C     0.15667   0.38937   0.75981   0.00000  Uiso   1.00
C1127  C     0.17626   0.61126   0.74027   0.00000  Uiso   1.00
C1128  C     0.07672   0.51235   0.98698   0.00000  Uiso   1.00
C1129  C     0.18563   0.48162   0.62931   0.00000  Uiso   1.00
C1130  C     0.14861   0.51802   0.87094   0.00000  Uiso   1.00
C1131  C     0.25056   0.47832   0.51106   0.00000  Uiso   1.00
C1132  C     0.19525   0.47571   0.58065   0.00000  Uiso   1.00
C1133  C     0.09260   0.52141   0.94221   0.00000  Uiso   1.00
C1134  C     0.31379   0.46176   0.83307   0.00000  Uiso   1.00
C1135  C     0.00704   0.43118   0.84409   0.00000  Uiso   1.00
C1136  C     0.00313   0.43343   0.89451   0.00000  Uiso   1.00
C1137  C     0.09800   0.35395   0.83467   0.00000  Uiso   1.00
C1138  C     0.12565   0.35964   0.86852   0.00000  Uiso   1.00
C1139  C     0.10415   0.50102   0.51013   0.00000  Uiso   1.00
C1140  C     0.10894   0.39059   0.90795   0.00000  Uiso   1.00
C1141  C     0.02106   0.54661   0.52962   0.00000  Uiso   1.00
C1142  C     0.01235   0.54334   0.58035   0.00000  Uiso   1.00
C1143  C     0.32527   0.58075   0.60717   0.00000  Uiso   1.00
C1144  C     0.01596   0.58206   0.73286   0.00000  Uiso   1.00
C1145  C     0.05266   0.61265   0.70840   0.00000  Uiso   1.00
C1146  C     0.04656   0.65750   0.72655   0.00000  Uiso   1.00
C1147  C     0.14866   0.50143   0.98999   0.00000  Uiso   1.00
C1148  C     0.16474   0.51201   0.94471   0.00000  Uiso   1.00
C1149  C     0.17764   0.49074   0.51295   0.00000  Uiso   1.00
C1150  C     0.22153   0.48939   0.98960   0.00000  Uiso   1.00
C1151  C     0.23672   0.50137   0.94588   0.00000  Uiso   1.00
C1152  C     0.20912   0.51389   0.92434   0.00000  Uiso   1.00
H1153  H     0.26105   0.46631   0.57344   0.00000  Uiso   1.00
H1154  H     0.32427   0.49422   0.84514   0.00000  Uiso   1.00
H1155  H     0.32910   0.39898   0.83264   0.00000  Uiso   1.00
H1156  H     0.04132   0.43844   0.82620   0.00000  Uiso   1.00
H1157  H     0.01531   0.46508   0.90650   0.00000  Uiso   1.00
H1158  H     0.02230   0.41067   0.90149   0.00000  Uiso   1.00
H1159  H     0.30248   0.42579   0.91326   0.00000  Uiso   1.00
H1160  H     0.06564   0.33915   0.85163   0.00000  Uiso   1.00
H1161  H     0.09259   0.38426   0.82514   0.00000  Uiso   1.00
H1162  H     0.12548   0.66243   0.88144   0.00000  Uiso   1.00
H1163  H     0.15935   0.37104   0.85195   0.00000  Uiso   1.00
H1164  H     0.20569   0.33725   0.71256   0.00000  Uiso   1.00
H1165  H     0.10854   0.42130   0.89574   0.00000  Uiso   1.00
H1166  H     0.13021   0.39480   0.93115   0.00000  Uiso   1.00
H1167  H     0.07606   0.37882   0.92681   0.00000  Uiso   1.00
H1168  H     0.32425   0.55205   0.52206   0.00000  Uiso   1.00
H1169  H     0.04480   0.57437   0.51916   0.00000  Uiso   1.00
H1170  H     0.32376   0.51456   0.59008   0.00000  Uiso   1.00
H1171  H     0.04292   0.54156   0.58903   0.00000  Uiso   1.00
H1172  H     0.01363   0.60993   0.59872   0.00000  Uiso   1.00
H1173  H     0.31934   0.57734   0.64367   0.00000  Uiso   1.00
H1174  H     0.29412   0.58272   0.59980   0.00000  Uiso   1.00
H1175  H     0.27047   0.50232   0.92869   0.00000  Uiso   1.00
H1176  H     0.01651   0.58427   0.76895   0.00000  Uiso   1.00
H1177  H     0.31839   0.59109   0.73043   0.00000  Uiso   1.00
H1178  H     0.08350   0.60526   0.71272   0.00000  Uiso   1.00
H1179  H     0.05425   0.60946   0.67188   0.00000  Uiso   1.00
H1180  H     0.01670   0.66601   0.72096   0.00000  Uiso   1.00
H1181  H     0.07412   0.34546   0.70875   0.00000  Uiso   1.00
H1182  H     0.04469   0.66153   0.76310   0.00000  Uiso   1.00
H1183  H     0.28389   0.47682   0.99328   0.00000  Uiso   1.00
H1184  H     0.13351   0.48760   0.57982   0.00000  Uiso   1.00
H1185  H     0.07022   0.52664   0.92366   0.00000  Uiso   1.00
H1186  H     0.08933   0.49096   0.54330   0.00000  Uiso   1.00
H1187  H     0.22319   0.52526   0.89145   0.00000  Uiso   1.00
H1188  H     0.27985   0.45445   0.85215   0.00000  Uiso   1.00
O1189  O     0.16667   0.50000   0.75000   0.00000  Uiso   1.00
O1190  O     0.15451   0.45970   0.65459   0.00000  Uiso   1.00
O1191  O     0.12940   0.53724   0.84968   0.00000  Uiso   1.00
O1192  O     0.20824   0.51092   0.64606   0.00000  Uiso   1.00
O1193  O     0.17451   0.49213   0.84968   0.00000  Uiso   1.00
O1194  O     0.31490   0.45674   0.78673   0.00000  Uiso   1.00
O1195  O     0.11498   0.66019   0.79696   0.00000  Uiso   1.00
O1196  O     0.03302   0.50859   0.50606   0.00000  Uiso   1.00
O1197  O     0.02139   0.54148   0.71250   0.00000  Uiso   1.00
O1198  O     0.17930   0.41352   0.78214   0.00000  Uiso   1.00
O1199  O     0.14632   0.59418   0.77014   0.00000  Uiso   1.00
O1200  O     0.07412   0.46625   0.73413   0.00000  Uiso   1.00
O1201  O     0.26693   0.52605   0.71361   0.00000  Uiso   1.00
O1202  O     0.07071   0.52211   0.78213   0.00000  Uiso   1.00
O1203  O     0.25491   0.48559   0.77014   0.00000  Uiso   1.00
O1204  O     0.13760   0.40277   0.73413   0.00000  Uiso   1.00
O1205  O     0.20345   0.58953   0.71361   0.00000  Uiso   1.00
Zn1206 Zn    0.19338   0.47327   0.78734   0.00000  Uiso   1.00
Zn1207 Zn    0.13379   0.45791   0.71876   0.00000  Uiso   1.00
Zn1208 Zn    0.21056   0.53109   0.70657   0.00000  Uiso   1.00
Zn1209 Zn    0.12893   0.53773   0.78734   0.00000  Uiso   1.00
C1210  C     0.38631   0.49311   0.75984   0.00000  Uiso   1.00
C1211  C     0.49849   0.48349   0.55898   0.00000  Uiso   1.00
C1212  C     0.57088   0.47191   0.55648   0.00000  Uiso   1.00
C1213  C     0.61409   0.50755   0.74047   0.00000  Uiso   1.00
C1214  C     0.46937   0.51994   0.92036   0.00000  Uiso   1.00
C1215  C     0.65970   0.51296   0.73954   0.00000  Uiso   1.00
C1216  C     0.34091   0.48955   0.76429   0.00000  Uiso   1.00
C1217  C     0.51246   0.65589   0.73763   0.00000  Uiso   1.00
C1218  C     0.48387   0.34547   0.76590   0.00000  Uiso   1.00
C1219  C     0.49001   0.38937   0.75981   0.00000  Uiso   1.00
C1220  C     0.50959   0.61126   0.74027   0.00000  Uiso   1.00
C1221  C     0.41005   0.51235   0.98698   0.00000  Uiso   1.00
C1222  C     0.51897   0.48162   0.62931   0.00000  Uiso   1.00
C1223  C     0.48194   0.51802   0.87094   0.00000  Uiso   1.00
C1224  C     0.58390   0.47832   0.51106   0.00000  Uiso   1.00
C1225  C     0.52859   0.47571   0.58065   0.00000  Uiso   1.00
C1226  C     0.42594   0.52141   0.94221   0.00000  Uiso   1.00
C1227  C     0.64712   0.46176   0.83307   0.00000  Uiso   1.00
C1228  C     0.34037   0.43118   0.84409   0.00000  Uiso   1.00
C1229  C     0.33646   0.43343   0.89451   0.00000  Uiso   1.00
C1230  C     0.43133   0.35395   0.83467   0.00000  Uiso   1.00
C1231  C     0.45898   0.35964   0.86852   0.00000  Uiso   1.00
C1232  C     0.43748   0.50102   0.51013   0.00000  Uiso   1.00
C1233  C     0.44227   0.39059   0.90795   0.00000  Uiso   1.00
C1234  C     0.35439   0.54661   0.52962   0.00000  Uiso   1.00
C1235  C     0.34568   0.54334   0.58035   0.00000  Uiso   1.00
C1236  C     0.65861   0.58075   0.60717   0.00000  Uiso   1.00
C1237  C     0.34930   0.58206   0.73286   0.00000  Uiso   1.00
C1238  C     0.38599   0.61265   0.70840   0.00000  Uiso   1.00
C1239  C     0.37989   0.65750   0.72655   0.00000  Uiso   1.00
C1240  C     0.48200   0.50143   0.98999   0.00000  Uiso   1.00
C1241  C     0.49807   0.51201   0.94471   0.00000  Uiso   1.00
C1242  C     0.51097   0.49074   0.51295   0.00000  Uiso   1.00
C1243  C     0.55486   0.48939   0.98960   0.00000  Uiso   1.00
C1244  C     0.57005   0.50137   0.94588   0.00000  Uiso   1.00
C1245  C     0.54245   0.51389   0.92434   0.00000  Uiso   1.00
H1246  H     0.59438   0.46631   0.57344   0.00000  Uiso   1.00
H1247  H     0.65760   0.49422   0.84514   0.00000  Uiso   1.00
H1248  H     0.66243   0.39898   0.83264   0.00000  Uiso   1.00
H1249  H     0.37465   0.43844   0.82620   0.00000  Uiso   1.00
H1250  H     0.34865   0.46508   0.90650   0.00000  Uiso   1.00
H1251  H     0.35563   0.41067   0.90149   0.00000  Uiso   1.00
H1252  H     0.63581   0.42579   0.91326   0.00000  Uiso   1.00
H1253  H     0.39897   0.33915   0.85163   0.00000  Uiso   1.00
H1254  H     0.42593   0.38426   0.82514   0.00000  Uiso   1.00
H1255  H     0.45882   0.66243   0.88144   0.00000  Uiso   1.00
H1256  H     0.49268   0.37104   0.85195   0.00000  Uiso   1.00
H1257  H     0.53903   0.33725   0.71256   0.00000  Uiso   1.00
H1258  H     0.44187   0.42130   0.89574   0.00000  Uiso   1.00
H1259  H     0.46354   0.39480   0.93115   0.00000  Uiso   1.00
H1260  H     0.40939   0.37882   0.92681   0.00000  Uiso   1.00
H1261  H     0.65758   0.55205   0.52206   0.00000  Uiso   1.00
H1262  H     0.37814   0.57437   0.51916   0.00000  Uiso   1.00
H1263  H     0.65710   0.51456   0.59008   0.00000  Uiso   1.00
H1264  H     0.37626   0.54156   0.58903   0.00000  Uiso   1.00
H1265  H     0.34696   0.60993   0.59872   0.00000  Uiso   1.00
H1266  H     0.65268   0.57734   0.64367   0.00000  Uiso   1.00
H1267  H     0.62746   0.58272   0.59980   0.00000  Uiso   1.00
H1268  H     0.60381   0.50232   0.92869   0.00000  Uiso   1.00
H1269  H     0.34984   0.58427   0.76895   0.00000  Uiso   1.00
H1270  H     0.65173   0.59109   0.73043   0.00000  Uiso   1.00
H1271  H     0.41684   0.60526   0.71272   0.00000  Uiso   1.00
H1272  H     0.38758   0.60946   0.67188   0.00000  Uiso   1.00
H1273  H     0.35004   0.66601   0.72096   0.00000  Uiso   1.00
H1274  H     0.40746   0.34546   0.70875   0.00000  Uiso   1.00
H1275  H     0.37802   0.66153   0.76310   0.00000  Uiso   1.00
H1276  H     0.61722   0.47682   0.99328   0.00000  Uiso   1.00
H1277  H     0.46684   0.48760   0.57982   0.00000  Uiso   1.00
H1278  H     0.40355   0.52664   0.92366   0.00000  Uiso   1.00
H1279  H     0.42266   0.49096   0.54330   0.00000  Uiso   1.00
H1280  H     0.55652   0.52526   0.89145   0.00000  Uiso   1.00
H1281  H     0.61318   0.45445   0.85215   0.00000  Uiso   1.00
O1282  O     0.50000   0.50000   0.75000   0.00000  Uiso   1.00
O1283  O     0.48784   0.45970   0.65459   0.00000  Uiso   1.00
O1284  O     0.46274   0.53724   0.84968   0.00000  Uiso   1.00
O1285  O     0.54157   0.51092   0.64606   0.00000  Uiso   1.00
O1286  O     0.50785   0.49213   0.84968   0.00000  Uiso   1.00
O1287  O     0.64823   0.45674   0.78673   0.00000  Uiso   1.00
O1288  O     0.44831   0.66019   0.79696   0.00000  Uiso   1.00
O1289  O     0.36635   0.50859   0.50606   0.00000  Uiso   1.00
O1290  O     0.35472   0.54148   0.71250   0.00000  Uiso   1.00
O1291  O     0.51264   0.41352   0.78214   0.00000  Uiso   1.00
O1292  O     0.47965   0.59418   0.77014   0.00000  Uiso   1.00
O1293  O     0.40745   0.46625   0.73413   0.00000  Uiso   1.00
O1294  O     0.60026   0.52605   0.71361   0.00000  Uiso   1.00
O1295  O     0.40405   0.52211   0.78213   0.00000  Uiso   1.00
O1296  O     0.58824   0.48559   0.77014   0.00000  Uiso   1.00
O1297  O     0.47093   0.40277   0.73413   0.00000  Uiso   1.00
O1298  O     0.53678   0.58953   0.71361   0.00000  Uiso   1.00
Zn1299 Zn    0.52672   0.47327   0.78734   0.00000  Uiso   1.00
Zn1300 Zn    0.46713   0.45791   0.71876   0.00000  Uiso   1.00
Zn1301 Zn    0.54389   0.53109   0.70657   0.00000  Uiso   1.00
Zn1302 Zn    0.46226   0.53773   0.78734   0.00000  Uiso   1.00
C1303  C     0.71964   0.49311   0.75984   0.00000  Uiso   1.00
C1304  C     0.83182   0.48349   0.55898   0.00000  Uiso   1.00
C1305  C     0.90421   0.47191   0.55648   0.00000  Uiso   1.00
C1306  C     0.94743   0.50755   0.74047   0.00000  Uiso   1.00
C1307  C     0.80270   0.51994   0.92036   0.00000  Uiso   1.00
C1308  C     0.99303   0.51296   0.73954   0.00000  Uiso   1.00
C1309  C     0.67424   0.48955   0.76429   0.00000  Uiso   1.00
C1310  C     0.84579   0.65589   0.73763   0.00000  Uiso   1.00
C1311  C     0.81720   0.34547   0.76590   0.00000  Uiso   1.00
C1312  C     0.82334   0.38937   0.75981   0.00000  Uiso   1.00
C1313  C     0.84292   0.61126   0.74027   0.00000  Uiso   1.00
C1314  C     0.74338   0.51235   0.98698   0.00000  Uiso   1.00
C1315  C     0.85230   0.48162   0.62931   0.00000  Uiso   1.00
C1316  C     0.81528   0.51802   0.87094   0.00000  Uiso   1.00
C1317  C     0.91723   0.47832   0.51106   0.00000  Uiso   1.00
C1318  C     0.86192   0.47571   0.58065   0.00000  Uiso   1.00
C1319  C     0.75927   0.52141   0.94221   0.00000  Uiso   1.00
C1320  C     0.98045   0.46176   0.83307   0.00000  Uiso   1.00
C1321  C     0.67370   0.43118   0.84409   0.00000  Uiso   1.00
C1322  C     0.66979   0.43343   0.89451   0.00000  Uiso   1.00
C1323  C     0.76467   0.35395   0.83467   0.00000  Uiso   1.00
C1324  C     0.79231   0.35964   0.86852   0.00000  Uiso   1.00
C1325  C     0.77082   0.50102   0.51013   0.00000  Uiso   1.00
C1326  C     0.77561   0.39059   0.90795   0.00000  Uiso   1.00
C1327  C     0.68772   0.54661   0.52962   0.00000  Uiso   1.00
C1328  C     0.67902   0.54334   0.58035   0.00000  Uiso   1.00
C1329  C     0.99194   0.58075   0.60717   0.00000  Uiso   1.00
C1330  C     0.68263   0.58206   0.73286   0.00000  Uiso   1.00
C1331  C     0.71933   0.61265   0.70840   0.00000  Uiso   1.00
C1332  C     0.71323   0.65750   0.72655   0.00000  Uiso   1.00
C1333  C     0.81533   0.50143   0.98999   0.00000  Uiso   1.00
C1334  C     0.83141   0.51201   0.94471   0.00000  Uiso   1.00
C1335  C     0.84431   0.49074   0.51295   0.00000  Uiso   1.00
C1336  C     0.88819   0.48939   0.98960   0.00000  Uiso   1.00
C1337  C     0.90339   0.50137   0.94588   0.00000  Uiso   1.00
C1338  C     0.87578   0.51389   0.92434   0.00000  Uiso   1.00
H1339  H     0.92771   0.46631   0.57344   0.00000  Uiso   1.00
H1340  H     0.99094   0.49422   0.84514   0.00000  Uiso   1.00
H1341  H     0.99576   0.39898   0.83264   0.00000  Uiso   1.00
H1342  H     0.70798   0.43844   0.82620   0.00000  Uiso   1.00
H1343  H     0.68198   0.46508   0.90650   0.00000  Uiso   1.00
H1344  H     0.68896   0.41067   0.90149   0.00000  Uiso   1.00
H1345  H     0.96915   0.42579   0.91326   0.00000  Uiso   1.00
H1346  H     0.73230   0.33915   0.85163   0.00000  Uiso   1.00
H1347  H     0.75926   0.38426   0.82514   0.00000  Uiso   1.00
H1348  H     0.79215   0.66243   0.88144   0.00000  Uiso   1.00
H1349  H     0.82601   0.37104   0.85195   0.00000  Uiso   1.00
H1350  H     0.87236   0.33725   0.71256   0.00000  Uiso   1.00
H1351  H     0.77520   0.42130   0.89574   0.00000  Uiso   1.00
H1352  H     0.79687   0.39480   0.93115   0.00000  Uiso   1.00
H1353  H     0.74273   0.37882   0.92681   0.00000  Uiso   1.00
H1354  H     0.99092   0.55205   0.52206   0.00000  Uiso   1.00
H1355  H     0.71147   0.57437   0.51916   0.00000  Uiso   1.00
H1356  H     0.99043   0.51456   0.59008   0.00000  Uiso   1.00
H1357  H     0.70959   0.54156   0.58903   0.00000  Uiso   1.00
H1358  H     0.68030   0.60993   0.59872   0.00000  Uiso   1.00
H1359  H     0.98601   0.57734   0.64367   0.00000  Uiso   1.00
H1360  H     0.96079   0.58272   0.59980   0.00000  Uiso   1.00
H1361  H     0.93714   0.50232   0.92869   0.00000  Uiso   1.00
H1362  H     0.68318   0.58427   0.76895   0.00000  Uiso   1.00
H1363  H     0.98506   0.59109   0.73043   0.00000  Uiso   1.00
H1364  H     0.75017   0.60526   0.71272   0.00000  Uiso   1.00
H1365  H     0.72092   0.60946   0.67188   0.00000  Uiso   1.00
H1366  H     0.68337   0.66601   0.72096   0.00000  Uiso   1.00
H1367  H     0.74079   0.34546   0.70875   0.00000  Uiso   1.00
H1368  H     0.71135   0.66153   0.76310   0.00000  Uiso   1.00
H1369  H     0.95056   0.47682   0.99328   0.00000  Uiso   1.00
H1370  H     0.80017   0.48760   0.57982   0.00000  Uiso   1.00
H1371  H     0.73688   0.52664   0.92366   0.00000  Uiso   1.00
H1372  H     0.75599   0.49096   0.54330   0.00000  Uiso   1.00
H1373  H     0.88986   0.52526   0.89145   0.00000  Uiso   1.00
H1374  H     0.94651   0.45445   0.85215   0.00000  Uiso   1.00
O1375  O     0.83333   0.50000   0.75000   0.00000  Uiso   1.00
O1376  O     0.82118   0.45970   0.65459   0.00000  Uiso   1.00
O1377  O     0.79607   0.53724   0.84968   0.00000  Uiso   1.00
O1378  O     0.87491   0.51092   0.64606   0.00000  Uiso   1.00
O1379  O     0.84118   0.49213   0.84968   0.00000  Uiso   1.00
O1380  O     0.98156   0.45674   0.78673   0.00000  Uiso   1.00
O1381  O     0.78165   0.66019   0.79696   0.00000  Uiso   1.00
O1382  O     0.69969   0.50859   0.50606   0.00000  Uiso   1.00
O1383  O     0.68806   0.54148   0.71250   0.00000  Uiso   1.00
O1384  O     0.84597   0.41352   0.78214   0.00000  Uiso   1.00
O1385  O     0.81298   0.59418   0.77014   0.00000  Uiso   1.00
O1386  O     0.74078   0.46625   0.73413   0.00000  Uiso   1.00
O1387  O     0.93360   0.52605   0.71361   0.00000  Uiso   1.00
O1388  O     0.73738   0.52211   0.78213   0.00000  Uiso   1.00
O1389  O     0.92158   0.48559   0.77014   0.00000  Uiso   1.00
O1390  O     0.80426   0.40277   0.73413   0.00000  Uiso   1.00
O1391  O     0.87012   0.58953   0.71361   0.00000  Uiso   1.00
Zn1392 Zn    0.86005   0.47327   0.78734   0.00000  Uiso   1.00
Zn1393 Zn    0.80046   0.45791   0.71876   0.00000  Uiso   1.00
Zn1394 Zn    0.87723   0.53109   0.70657   0.00000  Uiso   1.00
Zn1395 Zn    0.79560   0.53773   0.78734   0.00000  Uiso   1.00
C1396  C     0.05297   0.82644   0.75984   0.00000  Uiso   1.00
C1397  C     0.16515   0.81682   0.55898   0.00000  Uiso   1.00
C1398  C     0.23755   0.80524   0.55648   0.00000  Uiso   1.00
C1399  C     0.28076   0.84088   0.74047   0.00000  Uiso   1.00
C1400  C     0.13604   0.85327   0.92036   0.00000  Uiso   1.00
C1401  C     0.32636   0.84630   0.73954   0.00000  Uiso   1.00
C1402  C     0.00758   0.82288   0.76429   0.00000  Uiso   1.00
C1403  C     0.17913   0.98922   0.73763   0.00000  Uiso   1.00
C1404  C     0.15053   0.67881   0.76590   0.00000  Uiso   1.00
C1405  C     0.15667   0.72270   0.75981   0.00000  Uiso   1.00
C1406  C     0.17626   0.94459   0.74027   0.00000  Uiso   1.00
C1407  C     0.07672   0.84569   0.98698   0.00000  Uiso   1.00
C1408  C     0.18563   0.81495   0.62931   0.00000  Uiso   1.00
C1409  C     0.14861   0.85135   0.87094   0.00000  Uiso   1.00
C1410  C     0.25056   0.81165   0.51106   0.00000  Uiso   1.00
C1411  C     0.19525   0.80904   0.58065   0.00000  Uiso   1.00
C1412  C     0.09260   0.85474   0.94221   0.00000  Uiso   1.00
C1413  C     0.31379   0.79509   0.83307   0.00000  Uiso   1.00
C1414  C     0.00704   0.76451   0.84409   0.00000  Uiso   1.00
C1415  C     0.00313   0.76677   0.89451   0.00000  Uiso   1.00
C1416  C     0.09800   0.68728   0.83467   0.00000  Uiso   1.00
C1417  C     0.12565   0.69297   0.86852   0.00000  Uiso   1.00
C1418  C     0.10415   0.83435   0.51013   0.00000  Uiso   1.00
C1419  C     0.10894   0.72392   0.90795   0.00000  Uiso   1.00
C1420  C     0.02106   0.87994   0.52962   0.00000  Uiso   1.00
C1421  C     0.01235   0.87668   0.58035   0.00000  Uiso   1.00
C1422  C     0.32527   0.91408   0.60717   0.00000  Uiso   1.00
C1423  C     0.01596   0.91540   0.73286   0.00000  Uiso   1.00
C1424  C     0.05266   0.94598   0.70840   0.00000  Uiso   1.00
C1425  C     0.04656   0.99084   0.72655   0.00000  Uiso   1.00
C1426  C     0.14866   0.83476   0.98999   0.00000  Uiso   1.00
C1427  C     0.16474   0.84535   0.94471   0.00000  Uiso   1.00
C1428  C     0.17764   0.82407   0.51295   0.00000  Uiso   1.00
C1429  C     0.22153   0.82272   0.98960   0.00000  Uiso   1.00
C1430  C     0.23672   0.83470   0.94588   0.00000  Uiso   1.00
C1431  C     0.20912   0.84722   0.92434   0.00000  Uiso   1.00
H1432  H     0.26105   0.79964   0.57344   0.00000  Uiso   1.00
H1433  H     0.32427   0.82755   0.84514   0.00000  Uiso   1.00
H1434  H     0.32910   0.73232   0.83264   0.00000  Uiso   1.00
H1435  H     0.04132   0.77177   0.82620   0.00000  Uiso   1.00
H1436  H     0.01531   0.79841   0.90650   0.00000  Uiso   1.00
H1437  H     0.02230   0.74400   0.90149   0.00000  Uiso   1.00
H1438  H     0.30248   0.75912   0.91326   0.00000  Uiso   1.00
H1439  H     0.06564   0.67248   0.85163   0.00000  Uiso   1.00
H1440  H     0.09259   0.71759   0.82514   0.00000  Uiso   1.00
H1441  H     0.12548   0.99577   0.88144   0.00000  Uiso   1.00
H1442  H     0.15935   0.70438   0.85195   0.00000  Uiso   1.00
H1443  H     0.20569   0.67058   0.71256   0.00000  Uiso   1.00
H1444  H     0.10854   0.75463   0.89574   0.00000  Uiso   1.00
H1445  H     0.13021   0.72813   0.93115   0.00000  Uiso   1.00
H1446  H     0.07606   0.71215   0.92681   0.00000  Uiso   1.00
H1447  H     0.32425   0.88539   0.52206   0.00000  Uiso   1.00
H1448  H     0.04480   0.90770   0.51916   0.00000  Uiso   1.00
H1449  H     0.32376   0.84789   0.59008   0.00000  Uiso   1.00
H1450  H     0.04292   0.87489   0.58903   0.00000  Uiso   1.00
H1451  H     0.01363   0.94326   0.59872   0.00000  Uiso   1.00
H1452  H     0.31934   0.91067   0.64367   0.00000  Uiso   1.00
H1453  H     0.29412   0.91606   0.59980   0.00000  Uiso   1.00
H1454  H     0.27047   0.83566   0.92869   0.00000  Uiso   1.00
H1455  H     0.01651   0.91760   0.76895   0.00000  Uiso   1.00
H1456  H     0.31839   0.92442   0.73043   0.00000  Uiso   1.00
H1457  H     0.08350   0.93860   0.71272   0.00000  Uiso   1.00
H1458  H     0.05425   0.94280   0.67188   0.00000  Uiso   1.00
H1459  H     0.01670   0.99935   0.72096   0.00000  Uiso   1.00
H1460  H     0.07412   0.67879   0.70875   0.00000  Uiso   1.00
H1461  H     0.04469   0.99486   0.76310   0.00000  Uiso   1.00
H1462  H     0.28389   0.81015   0.99328   0.00000  Uiso   1.00
H1463  H     0.13351   0.82093   0.57982   0.00000  Uiso   1.00
H1464  H     0.07022   0.85997   0.92366   0.00000  Uiso   1.00
H1465  H     0.08933   0.82429   0.54330   0.00000  Uiso   1.00
H1466  H     0.22319   0.85859   0.89145   0.00000  Uiso   1.00
H1467  H     0.27985   0.78778   0.85215   0.00000  Uiso   1.00
O1468  O     0.16667   0.83333   0.75000   0.00000  Uiso   1.00
O1469  O     0.15451   0.79304   0.65459   0.00000  Uiso   1.00
O1470  O     0.12940   0.87058   0.84968   0.00000  Uiso   1.00
O1471  O     0.20824   0.84425   0.64606   0.00000  Uiso   1.00
O1472  O     0.17451   0.82546   0.84968   0.00000  Uiso   1.00
O1473  O     0.31490   0.79007   0.78673   0.00000  Uiso   1.00
O1474  O     0.11498   0.99352   0.79696   0.00000  Uiso   1.00
O1475  O     0.03302   0.84192   0.50606   0.00000  Uiso   1.00
O1476  O     0.02139   0.87482   0.71250   0.00000  Uiso   1.00
O1477  O     0.17930   0.74686   0.78214   0.00000  Uiso   1.00
O1478  O     0.14632   0.92751   0.77014   0.00000  Uiso   1.00
O1479  O     0.07412   0.79958   0.73413   0.00000  Uiso   1.00
O1480  O     0.26693   0.85939   0.71361   0.00000  Uiso   1.00
O1481  O     0.07071   0.85544   0.78213   0.00000  Uiso   1.00
O1482  O     0.25491   0.81892   0.77014   0.00000  Uiso   1.00
O1483  O     0.13760   0.73610   0.73413   0.00000  Uiso   1.00
O1484  O     0.20345   0.92286   0.71361   0.00000  Uiso   1.00
Zn1485 Zn    0.19338   0.80661   0.78734   0.00000  Uiso   1.00
Zn1486 Zn    0.13379   0.79124   0.71876   0.00000  Uiso   1.00
Zn1487 Zn    0.21056   0.86442   0.70657   0.00000  Uiso   1.00
Zn1488 Zn    0.12893   0.87106   0.78734   0.00000  Uiso   1.00
C1489  C     0.38631   0.82644   0.75984   0.00000  Uiso   1.00
C1490  C     0.49849   0.81682   0.55898   0.00000  Uiso   1.00
C1491  C     0.57088   0.80524   0.55648   0.00000  Uiso   1.00
C1492  C     0.61409   0.84088   0.74047   0.00000  Uiso   1.00
C1493  C     0.46937   0.85327   0.92036   0.00000  Uiso   1.00
C1494  C     0.65970   0.84630   0.73954   0.00000  Uiso   1.00
C1495  C     0.34091   0.82288   0.76429   0.00000  Uiso   1.00
C1496  C     0.51246   0.98922   0.73763   0.00000  Uiso   1.00
C1497  C     0.48387   0.67881   0.76590   0.00000  Uiso   1.00
C1498  C     0.49001   0.72270   0.75981   0.00000  Uiso   1.00
C1499  C     0.50959   0.94459   0.74027   0.00000  Uiso   1.00
C1500  C     0.41005   0.84569   0.98698   0.00000  Uiso   1.00
C1501  C     0.51897   0.81495   0.62931   0.00000  Uiso   1.00
C1502  C     0.48194   0.85135   0.87094   0.00000  Uiso   1.00
C1503  C     0.58390   0.81165   0.51106   0.00000  Uiso   1.00
C1504  C     0.52859   0.80904   0.58065   0.00000  Uiso   1.00
C1505  C     0.42594   0.85474   0.94221   0.00000  Uiso   1.00
C1506  C     0.64712   0.79509   0.83307   0.00000  Uiso   1.00
C1507  C     0.34037   0.76451   0.84409   0.00000  Uiso   1.00
C1508  C     0.33646   0.76677   0.89451   0.00000  Uiso   1.00
C1509  C     0.43133   0.68728   0.83467   0.00000  Uiso   1.00
C1510  C     0.45898   0.69297   0.86852   0.00000  Uiso   1.00
C1511  C     0.43748   0.83435   0.51013   0.00000  Uiso   1.00
C1512  C     0.44227   0.72392   0.90795   0.00000  Uiso   1.00
C1513  C     0.35439   0.87994   0.52962   0.00000  Uiso   1.00
C1514  C     0.34568   0.87668   0.58035   0.00000  Uiso   1.00
C1515  C     0.65861   0.91408   0.60717   0.00000  Uiso   1.00
C1516  C     0.34930   0.91540   0.73286   0.00000  Uiso   1.00
C1517  C     0.38599   0.94598   0.70840   0.00000  Uiso   1.00
C1518  C     0.37989   0.99084   0.72655   0.00000  Uiso   1.00
C1519  C     0.48200   0.83476   0.98999   0.00000  Uiso   1.00
C1520  C     0.49807   0.84535   0.94471   0.00000  Uiso   1.00
C1521  C     0.51097   0.82407   0.51295   0.00000  Uiso   1.00
C1522  C     0.55486   0.82272   0.98960   0.00000  Uiso   1.00
C1523  C     0.57005   0.83470   0.94588   0.00000  Uiso   1.00
C1524  C     0.54245   0.84722   0.92434   0.00000  Uiso   1.00
H1525  H     0.59438   0.79964   0.57344   0.00000  Uiso   1.00
H1526  H     0.65760   0.82755   0.84514   0.00000  Uiso   1.00
H1527  H     0.66243   0.73232   0.83264   0.00000  Uiso   1.00
H1528  H     0.37465   0.77177   0.82620   0.00000  Uiso   1.00
H1529  H     0.34865   0.79841   0.90650   0.00000  Uiso   1.00
H1530  H     0.35563   0.74400   0.90149   0.00000  Uiso   1.00
H1531  H     0.63581   0.75912   0.91326   0.00000  Uiso   1.00
H1532  H     0.39897   0.67248   0.85163   0.00000  Uiso   1.00
H1533  H     0.42593   0.71759   0.82514   0.00000  Uiso   1.00
H1534  H     0.45882   0.99577   0.88144   0.00000  Uiso   1.00
H1535  H     0.49268   0.70438   0.85195   0.00000  Uiso   1.00
H1536  H     0.53903   0.67058   0.71256   0.00000  Uiso   1.00
H1537  H     0.44187   0.75463   0.89574   0.00000  Uiso   1.00
H1538  H     0.46354   0.72813   0.93115   0.00000  Uiso   1.00
H1539  H     0.40939   0.71215   0.92681   0.00000  Uiso   1.00
H1540  H     0.65758   0.88539   0.52206   0.00000  Uiso   1.00
H1541  H     0.37814   0.90770   0.51916   0.00000  Uiso   1.00
H1542  H     0.65710   0.84789   0.59008   0.00000  Uiso   1.00
H1543  H     0.37626   0.87489   0.58903   0.00000  Uiso   1.00
H1544  H     0.34696   0.94326   0.59872   0.00000  Uiso   1.00
H1545  H     0.65268   0.91067   0.64367   0.00000  Uiso   1.00
H1546  H     0.62746   0.91606   0.59980   0.00000  Uiso   1.00
H1547  H     0.60381   0.83566   0.92869   0.00000  Uiso   1.00
H1548  H     0.34984   0.91760   0.76895   0.00000  Uiso   1.00
H1549  H     0.65173   0.92442   0.73043   0.00000  Uiso   1.00
H1550  H     0.41684   0.93860   0.71272   0.00000  Uiso   1.00
H1551  H     0.38758   0.94280   0.67188   0.00000  Uiso   1.00
H1552  H     0.35004   0.99935   0.72096   0.00000  Uiso   1.00
H1553  H     0.40746   0.67879   0.70875   0.00000  Uiso   1.00
H1554  H     0.37802   0.99486   0.76310   0.00000  Uiso   1.00
H1555  H     0.61722   0.81015   0.99328   0.00000  Uiso   1.00
H1556  H     0.46684   0.82093   0.57982   0.00000  Uiso   1.00
H1557  H     0.40355   0.85997   0.92366   0.00000  Uiso   1.00
H1558  H     0.42266   0.82429   0.54330   0.00000  Uiso   1.00
H1559  H     0.55652   0.85859   0.89145   0.00000  Uiso   1.00
H1560  H     0.61318   0.78778   0.85215   0.00000  Uiso   1.00
O1561  O     0.50000   0.83333   0.75000   0.00000  Uiso   1.00
O1562  O     0.48784   0.79304   0.65459   0.00000  Uiso   1.00
O1563  O     0.46274   0.87058   0.84968   0.00000  Uiso   1.00
O1564  O     0.54157   0.84425   0.64606   0.00000  Uiso   1.00
O1565  O     0.50785   0.82546   0.84968   0.00000  Uiso   1.00
O1566  O     0.64823   0.79007   0.78673   0.00000  Uiso   1.00
O1567  O     0.44831   0.99352   0.79696   0.00000  Uiso   1.00
O1568  O     0.36635   0.84192   0.50606   0.00000  Uiso   1.00
O1569  O     0.35472   0.87482   0.71250   0.00000  Uiso   1.00
O1570  O     0.51264   0.74686   0.78214   0.00000  Uiso   1.00
O1571  O     0.47965   0.92751   0.77014   0.00000  Uiso   1.00
O1572  O     0.40745   0.79958   0.73413   0.00000  Uiso   1.00
O1573  O     0.60026   0.85939   0.71361   0.00000  Uiso   1.00
O1574  O     0.40405   0.85544   0.78213   0.00000  Uiso   1.00
O1575  O     0.58824   0.81892   0.77014   0.00000  Uiso   1.00
O1576  O     0.47093   0.73610   0.73413   0.00000  Uiso   1.00
O1577  O     0.53678   0.92286   0.71361   0.00000  Uiso   1.00
Zn1578 Zn    0.52672   0.80661   0.78734   0.00000  Uiso   1.00
Zn1579 Zn    0.46713   0.79124   0.71876   0.00000  Uiso   1.00
Zn1580 Zn    0.54389   0.86442   0.70657   0.00000  Uiso   1.00
Zn1581 Zn    0.46226   0.87106   0.78734   0.00000  Uiso   1.00
C1582  C     0.71964   0.82644   0.75984   0.00000  Uiso   1.00
C1583  C     0.83182   0.81682   0.55898   0.00000  Uiso   1.00
C1584  C     0.90421   0.80524   0.55648   0.00000  Uiso   1.00
C1585  C     0.94743   0.84088   0.74047   0.00000  Uiso   1.00
C1586  C     0.80270   0.85327   0.92036   0.00000  Uiso   1.00
C1587  C     0.99303   0.84630   0.73954   0.00000  Uiso   1.00
C1588  C     0.67424   0.82288   0.76429   0.00000  Uiso   1.00
C1589  C     0.84579   0.98922   0.73763   0.00000  Uiso   1.00
C1590  C     0.81720   0.67881   0.76590   0.00000  Uiso   1.00
C1591  C     0.82334   0.72270   0.75981   0.00000  Uiso   1.00
C1592  C     0.84292   0.94459   0.74027   0.00000  Uiso   1.00
C1593  C     0.74338   0.84569   0.98698   0.00000  Uiso   1.00
C1594  C     0.85230   0.81495   0.62931   0.00000  Uiso   1.00
C1595  C     0.81528   0.85135   0.87094   0.00000  Uiso   1.00
C1596  C     0.91723   0.81165   0.51106   0.00000  Uiso   1.00
C1597  C     0.86192   0.80904   0.58065   0.00000  Uiso   1.00
C1598  C     0.75927   0.85474   0.94221   0.00000  Uiso   1.00
C1599  C     0.98045   0.79509   0.83307   0.00000  Uiso   1.00
C1600  C     0.67370   0.76451   0.84409   0.00000  Uiso   1.00
C1601  C     0.66979   0.76677   0.89451   0.00000  Uiso   1.00
C1602  C     0.76467   0.68728   0.83467   0.00000  Uiso   1.00
C1603  C     0.79231   0.69297   0.86852   0.00000  Uiso   1.00
C1604  C     0.77082   0.83435   0.51013   0.00000  Uiso   1.00
C1605  C     0.77561   0.72392   0.90795   0.00000  Uiso   1.00
C1606  C     0.68772   0.87994   0.52962   0.00000  Uiso   1.00
C1607  C     0.67902   0.87668   0.58035   0.00000  Uiso   1.00
C1608  C     0.99194   0.91408   0.60717   0.00000  Uiso   1.00
C1609  C     0.68263   0.91540   0.73286   0.00000  Uiso   1.00
C1610  C     0.71933   0.94598   0.70840   0.00000  Uiso   1.00
C1611  C     0.71323   0.99084   0.72655   0.00000  Uiso   1.00
C1612  C     0.81533   0.83476   0.98999   0.00000  Uiso   1.00
C1613  C     0.83141   0.84535   0.94471   0.00000  Uiso   1.00
C1614  C     0.84431   0.82407   0.51295   0.00000  Uiso   1.00
C1615  C     0.88819   0.82272   0.98960   0.00000  Uiso   1.00
C1616  C     0.90339   0.83470   0.94588   0.00000  Uiso   1.00
C1617  C     0.87578   0.84722   0.92434   0.00000  Uiso   1.00
H1618  H     0.92771   0.79964   0.57344   0.00000  Uiso   1.00
H1619  H     0.99094   0.82755   0.84514   0.00000  Uiso   1.00
H1620  H     0.99576   0.73232   0.83264   0.00000  Uiso   1.00
H1621  H     0.70798   0.77177   0.82620   0.00000  Uiso   1.00
H1622  H     0.68198   0.79841   0.90650   0.00000  Uiso   1.00
H1623  H     0.68896   0.74400   0.90149   0.00000  Uiso   1.00
H1624  H     0.96915   0.75912   0.91326   0.00000  Uiso   1.00
H1625  H     0.73230   0.67248   0.85163   0.00000  Uiso   1.00
H1626  H     0.75926   0.71759   0.82514   0.00000  Uiso   1.00
H1627  H     0.79215   0.99577   0.88144   0.00000  Uiso   1.00
H1628  H     0.82601   0.70438   0.85195   0.00000  Uiso   1.00
H1629  H     0.87236   0.67058   0.71256   0.00000  Uiso   1.00
H1630  H     0.77520   0.75463   0.89574   0.00000  Uiso   1.00
H1631  H     0.79687   0.72813   0.93115   0.00000  Uiso   1.00
H1632  H     0.74273   0.71215   0.92681   0.00000  Uiso   1.00
H1633  H     0.99092   0.88539   0.52206   0.00000  Uiso   1.00
H1634  H     0.71147   0.90770   0.51916   0.00000  Uiso   1.00
H1635  H     0.99043   0.84789   0.59008   0.00000  Uiso   1.00
H1636  H     0.70959   0.87489   0.58903   0.00000  Uiso   1.00
H1637  H     0.68030   0.94326   0.59872   0.00000  Uiso   1.00
H1638  H     0.98601   0.91067   0.64367   0.00000  Uiso   1.00
H1639  H     0.96079   0.91606   0.59980   0.00000  Uiso   1.00
H1640  H     0.93714   0.83566   0.92869   0.00000  Uiso   1.00
H1641  H     0.68318   0.91760   0.76895   0.00000  Uiso   1.00
H1642  H     0.98506   0.92442   0.73043   0.00000  Uiso   1.00
H1643  H     0.75017   0.93860   0.71272   0.00000  Uiso   1.00
H1644  H     0.72092   0.94280   0.67188   0.00000  Uiso   1.00
H1645  H     0.68337   0.99935   0.72096   0.00000  Uiso   1.00
H1646  H     0.74079   0.67879   0.70875   0.00000  Uiso   1.00
H1647  H     0.71135   0.99486   0.76310   0.00000  Uiso   1.00
H1648  H     0.95056   0.81015   0.99328   0.00000  Uiso   1.00
H1649  H     0.80017   0.82093   0.57982   0.00000  Uiso   1.00
H1650  H     0.73688   0.85997   0.92366   0.00000  Uiso   1.00
H1651  H     0.75599   0.82429   0.54330   0.00000  Uiso   1.00
H1652  H     0.88986   0.85859   0.89145   0.00000  Uiso   1.00
H1653  H     0.94651   0.78778   0.85215   0.00000  Uiso   1.00
O1654  O     0.83333   0.83333   0.75000   0.00000  Uiso   1.00
O1655  O     0.82118   0.79304   0.65459   0.00000  Uiso   1.00
O1656  O     0.79607   0.87058   0.84968   0.00000  Uiso   1.00
O1657  O     0.87491   0.84425   0.64606   0.00000  Uiso   1.00
O1658  O     0.84118   0.82546   0.84968   0.00000  Uiso   1.00
O1659  O     0.98156   0.79007   0.78673   0.00000  Uiso   1.00
O1660  O     0.78165   0.99352   0.79696   0.00000  Uiso   1.00
O1661  O     0.69969   0.84192   0.50606   0.00000  Uiso   1.00
O1662  O     0.68806   0.87482   0.71250   0.00000  Uiso   1.00
O1663  O     0.84597   0.74686   0.78214   0.00000  Uiso   1.00
O1664  O     0.81298   0.92751   0.77014   0.00000  Uiso   1.00
O1665  O     0.74078   0.79958   0.73413   0.00000  Uiso   1.00
O1666  O     0.93360   0.85939   0.71361   0.00000  Uiso   1.00
O1667  O     0.73738   0.85544   0.78213   0.00000  Uiso   1.00
O1668  O     0.92158   0.81892   0.77014   0.00000  Uiso   1.00
O1669  O     0.80426   0.73610   0.73413   0.00000  Uiso   1.00
O1670  O     0.87012   0.92286   0.71361   0.00000  Uiso   1.00
Zn1671 Zn    0.86005   0.80661   0.78734   0.00000  Uiso   1.00
Zn1672 Zn    0.80046   0.79124   0.71876   0.00000  Uiso   1.00
Zn1673 Zn    0.87723   0.86442   0.70657   0.00000  Uiso   1.00
Zn1674 Zn    0.79560   0.87106   0.78734   0.00000  Uiso   1.00
loop_
_geom_bond_atom_site_label_1
_geom_bond_atom_site_label_2
_geom_bond_distance
_geom_bond_site_symmetry_2
_ccdc_geom_bond_type
C1     O84     1.264   .     A
C1     O86     1.270   .     A
C1     C7      1.438   .     S
C2     H68     1.078   .     S
C2     C16     1.393   .     A
C2     C33     1.410   .     A
C3     C15     1.386   .     A
C3     H37     1.083   .     S
C3     C16     1.397   .     A
C4     O87     1.274   .     A
C4     C6      1.465   .     S
C4     O85     1.285   .     A
C5     C17     1.401   .     A
C5     C32     1.415   .     A
C5     C14     1.471   .     S
C6     C100    1.351   .     S
C6     O174    1.389   .     S
C7     C192    1.351   1_455 S
C7     O264    1.390   1_455 S
C8     C11     1.453   .     S
C8     C288    1.345   .     S
C8     H327    1.088   .     S
C9     C10     1.441   .     S
C9     C566    1.345   1_545 S
C9     O637    1.402   1_545 S
C10    O88     1.277   .     A
C10    O82     1.275   .     A
C11    O83     1.262   .     A
C11    O89     1.276   .     A
C12    C17     1.392   .     A
C12    C860    1.396   .     S
C12    O917    1.381   .     S
C13    O76     1.270   .     A
C13    O74     1.281   .     A
C13    C16     1.451   .     S
C14    O77     1.281   .     A
C14    O75     1.282   .     A
C15    C871    1.399   1_554 S
C15    H904    1.084   1_554 S
C17    H69     1.084   .     S
C18    H72     1.111   .     S
C18    O78     1.417   .     S
C18    H38     1.118   .     S
C18    C112    1.531   .     S
C19    C20     1.526   .     S
C19    H40     1.110   .     S
C19    C204    1.531   1_455 S
C19    H225    1.112   1_455 S
C20    H41     1.111   .     S
C20    H42     1.109   .     S
C20    H229    1.111   1_455 S
C21    C22     1.537   .     S
C21    H45     1.112   .     S
C21    H44     1.111   .     S
C21    O637    1.418   1_545 S
C22    H47     1.109   .     S
C22    C24     1.527   .     S
C22    H604    1.112   1_545 S
C23    H70     1.077   .     S
C23    C849    1.396   1_554 S
C23    C868    1.416   1_554 S
C24    H49     1.111   .     S
C24    H51     1.110   .     S
C24    H50     1.111   .     S
C25    O80     1.415   .     S
C25    H53     1.118   .     S
C25    C26     1.532   .     S
C25    H238    1.111   1_455 S
C26    H55     1.111   .     S
C26    C213    1.526   1_455 S
C26    H240    1.111   1_455 S
C27    H57     1.110   .     S
C27    H58     1.111   .     S
C27    C119    1.526   .     S
C27    H149    1.111   .     S
C28    C29     1.528   .     S
C28    H60     1.117   .     S
C28    O81     1.413   .     S
C28    H247    1.113   1_455 S
C29    H63     1.112   .     S
C29    C30     1.527   .     S
C29    H62     1.112   .     S
C30    H64     1.111   .     S
C30    H66     1.110   .     S
C30    H344    1.110   .     S
C31    C32     1.422   .     A
C31    C860    1.416   .     S
C31    C870    1.425   .     S
C32    C36     1.410   .     A
C33    C868    1.425   1_554 S
C33    C871    1.424   1_554 S
C34    C35     1.390   .     A
C34    C852    1.399   .     S
C34    C870    1.424   .     S
C35    C36     1.382   .     A
C35    H59     1.084   .     S
C36    H71     1.081   .     S
H39    C112    1.112   .     S
H43    C113    1.111   .     S
H46    C301    1.112   .     S
H48    C566    1.088   1_545 S
H52    C118    1.111   .     S
H54    C119    1.111   .     S
H56    C213    1.111   1_455 S
H61    C121    1.113   .     S
H65    C588    1.110   1_545 S
H67    C852    1.084   .     S
O73    Zn93    1.928   .     S
O73    Zn90    1.959   .     S
O73    Zn91    1.949   .     S
O73    Zn92    1.933   .     S
O74    Zn91    1.924   .     S
O75    Zn93    1.936   .     S
O76    Zn92    1.932   .     S
O77    Zn90    1.920   .     S
O78    C100    1.390   .     S
O79    C300    1.418   .     S
O79    C288    1.402   .     S
O80    C849    1.381   1_554 S
O81    C192    1.389   1_455 S
O82    Zn90    1.933   .     S
O83    Zn93    1.934   .     S
O84    Zn91    1.927   .     S
O85    Zn92    1.940   .     S
O86    Zn93    1.938   .     S
O87    Zn90    1.926   .     S
O88    Zn91    1.938   .     S
O89    Zn92    1.932   .     S
C94    O177    1.264   .     A
C94    O179    1.270   .     A
C94    C100    1.438   .     S
C95    H161    1.078   .     S
C95    C109    1.393   .     A
C95    C126    1.410   .     A
C96    C108    1.386   .     A
C96    H130    1.083   .     S
C96    C109    1.397   .     A
C97    O180    1.274   .     A
C97    C99     1.465   .     S
C97    O178    1.285   .     A
C98    C110    1.401   .     A
C98    C125    1.415   .     A
C98    C107    1.471   .     S
C99    C193    1.351   .     S
C99    O267    1.389   .     S
C101   C104    1.453   .     S
C101   C381    1.345   .     S
C101   H420    1.088   .     S
C102   C103    1.441   .     S
C102   C659    1.345   1_545 S
C102   O730    1.402   1_545 S
C103   O181    1.277   .     A
C103   O175    1.275   .     A
C104   O176    1.262   .     A
C104   O182    1.276   .     A
C105   C110    1.392   .     A
C105   C953    1.396   .     S
C105   O1010   1.381   .     S
C106   O169    1.270   .     A
C106   O167    1.281   .     A
C106   C109    1.451   .     S
C107   O170    1.281   .     A
C107   O168    1.282   .     A
C108   C964    1.399   1_554 S
C108   H997    1.084   1_554 S
C110   H162    1.084   .     S
C111   H165    1.111   .     S
C111   O171    1.417   .     S
C111   H131    1.118   .     S
C111   C205    1.531   .     S
C112   C113    1.526   .     S
C112   H133    1.110   .     S
C113   H134    1.111   .     S
C113   H135    1.109   .     S
C114   C115    1.537   .     S
C114   H138    1.112   .     S
C114   H137    1.111   .     S
C114   O730    1.418   1_545 S
C115   H140    1.109   .     S
C115   C117    1.527   .     S
C115   H697    1.112   1_545 S
C116   H163    1.077   .     S
C116   C942    1.396   1_554 S
C116   C961    1.416   1_554 S
C117   H142    1.111   .     S
C117   H144    1.110   .     S
C117   H143    1.111   .     S
C118   O173    1.415   .     S
C118   H146    1.118   .     S
C118   C119    1.532   .     S
C119   H148    1.111   .     S
C120   H150    1.110   .     S
C120   H151    1.111   .     S
C120   C212    1.526   .     S
C120   H242    1.111   .     S
C121   C122    1.528   .     S
C121   H153    1.117   .     S
C121   O174    1.413   .     S
C122   H156    1.112   .     S
C122   C123    1.527   .     S
C122   H155    1.112   .     S
C123   H157    1.111   .     S
C123   H159    1.110   .     S
C123   H437    1.110   .     S
C124   C125    1.422   .     A
C124   C953    1.416   .     S
C124   C963    1.425   .     S
C125   C129    1.410   .     A
C126   C961    1.425   1_554 S
C126   C964    1.424   1_554 S
C127   C128    1.390   .     A
C127   C945    1.399   .     S
C127   C963    1.424   .     S
C128   C129    1.382   .     A
C128   H152    1.084   .     S
C129   H164    1.081   .     S
H132   C205    1.112   .     S
H136   C206    1.111   .     S
H139   C394    1.112   .     S
H141   C659    1.088   1_545 S
H145   C211    1.111   .     S
H147   C212    1.111   .     S
H154   C214    1.113   .     S
H158   C681    1.110   1_545 S
H160   C945    1.084   .     S
O166   Zn186   1.928   .     S
O166   Zn183   1.959   .     S
O166   Zn184   1.949   .     S
O166   Zn185   1.933   .     S
O167   Zn184   1.924   .     S
O168   Zn186   1.936   .     S
O169   Zn185   1.932   .     S
O170   Zn183   1.920   .     S
O171   C193    1.390   .     S
O172   C393    1.418   .     S
O172   C381    1.402   .     S
O173   C942    1.381   1_554 S
O175   Zn183   1.933   .     S
O176   Zn186   1.934   .     S
O177   Zn184   1.927   .     S
O178   Zn185   1.940   .     S
O179   Zn186   1.938   .     S
O180   Zn183   1.926   .     S
O181   Zn184   1.938   .     S
O182   Zn185   1.932   .     S
C187   O270    1.264   .     A
C187   O272    1.270   .     A
C187   C193    1.438   .     S
C188   H254    1.078   .     S
C188   C202    1.393   .     A
C188   C219    1.410   .     A
C189   C201    1.386   .     A
C189   H223    1.083   .     S
C189   C202    1.397   .     A
C190   O273    1.274   .     A
C190   C192    1.465   .     S
C190   O271    1.285   .     A
C191   C203    1.401   .     A
C191   C218    1.415   .     A
C191   C200    1.471   .     S
C192   C7      1.351   1_655 S
C192   O81     1.389   1_655 S
C194   C197    1.453   .     S
C194   C474    1.345   .     S
C194   H513    1.088   .     S
C195   C196    1.441   .     S
C195   C752    1.345   1_545 S
C195   O823    1.402   1_545 S
C196   O274    1.277   .     A
C196   O268    1.275   .     A
C197   O269    1.262   .     A
C197   O275    1.276   .     A
C198   C203    1.392   .     A
C198   C1046   1.396   .     S
C198   O1103   1.381   .     S
C199   O262    1.270   .     A
C199   O260    1.281   .     A
C199   C202    1.451   .     S
C200   O263    1.281   .     A
C200   O261    1.282   .     A
C201   C1057   1.399   1_554 S
C201   H1090   1.084   1_554 S
C203   H255    1.084   .     S
C204   H258    1.111   .     S
C204   O264    1.417   .     S
C204   H224    1.118   .     S
C204   C19     1.531   1_655 S
C205   C206    1.526   .     S
C205   H226    1.110   .     S
C206   H227    1.111   .     S
C206   H228    1.109   .     S
C207   C208    1.537   .     S
C207   H231    1.112   .     S
C207   H230    1.111   .     S
C207   O823    1.418   1_545 S
C208   H233    1.109   .     S
C208   C210    1.527   .     S
C208   H790    1.112   1_545 S
C209   H256    1.077   .     S
C209   C1035   1.396   1_554 S
C209   C1054   1.416   1_554 S
C210   H235    1.111   .     S
C210   H237    1.110   .     S
C210   H236    1.111   .     S
C211   O266    1.415   .     S
C211   H239    1.118   .     S
C211   C212    1.532   .     S
C212   H241    1.111   .     S
C213   H243    1.110   .     S
C213   H244    1.111   .     S
C213   C26     1.526   1_655 S
C213   H56     1.111   1_655 S
C214   C215    1.528   .     S
C214   H246    1.117   .     S
C214   O267    1.413   .     S
C215   H249    1.112   .     S
C215   C216    1.527   .     S
C215   H248    1.112   .     S
C216   H250    1.111   .     S
C216   H252    1.110   .     S
C216   H530    1.110   .     S
C217   C218    1.422   .     A
C217   C1046   1.416   .     S
C217   C1056   1.425   .     S
C218   C222    1.410   .     A
C219   C1054   1.425   1_554 S
C219   C1057   1.424   1_554 S
C220   C221    1.390   .     A
C220   C1038   1.399   .     S
C220   C1056   1.424   .     S
C221   C222    1.382   .     A
C221   H245    1.084   .     S
C222   H257    1.081   .     S
H225   C19     1.112   1_655 S
H229   C20     1.111   1_655 S
H232   C487    1.112   .     S
H234   C752    1.088   1_545 S
H238   C25     1.111   1_655 S
H240   C26     1.111   1_655 S
H247   C28     1.113   1_655 S
H251   C774    1.110   1_545 S
H253   C1038   1.084   .     S
O259   Zn279   1.928   .     S
O259   Zn276   1.959   .     S
O259   Zn277   1.949   .     S
O259   Zn278   1.933   .     S
O260   Zn277   1.924   .     S
O261   Zn279   1.936   .     S
O262   Zn278   1.932   .     S
O263   Zn276   1.920   .     S
O264   C7      1.390   1_655 S
O265   C486    1.418   .     S
O265   C474    1.402   .     S
O266   C1035   1.381   1_554 S
O268   Zn276   1.933   .     S
O269   Zn279   1.934   .     S
O270   Zn277   1.927   .     S
O271   Zn278   1.940   .     S
O272   Zn279   1.938   .     S
O273   Zn276   1.926   .     S
O274   Zn277   1.938   .     S
O275   Zn278   1.932   .     S
C280   O363    1.264   .     A
C280   O365    1.270   .     A
C280   C286    1.438   .     S
C281   H347    1.078   .     S
C281   C295    1.393   .     A
C281   C312    1.410   .     A
C282   C294    1.386   .     A
C282   H316    1.083   .     S
C282   C295    1.397   .     A
C283   O366    1.274   .     A
C283   C285    1.465   .     S
C283   O364    1.285   .     A
C284   C296    1.401   .     A
C284   C311    1.415   .     A
C284   C293    1.471   .     S
C285   C379    1.351   .     S
C285   O453    1.389   .     S
C286   C471    1.351   1_455 S
C286   O543    1.390   1_455 S
C287   C290    1.453   .     S
C287   C567    1.345   .     S
C287   H606    1.088   .     S
C288   C289    1.441   .     S
C289   O367    1.277   .     A
C289   O361    1.275   .     A
C290   O362    1.262   .     A
C290   O368    1.276   .     A
C291   C296    1.392   .     A
C291   C1139   1.396   .     S
C291   O1196   1.381   .     S
C292   O355    1.270   .     A
C292   O353    1.281   .     A
C292   C295    1.451   .     S
C293   O356    1.281   .     A
C293   O354    1.282   .     A
C294   C1150   1.399   1_554 S
C294   H1183   1.084   1_554 S
C296   H348    1.084   .     S
C297   H351    1.111   .     S
C297   O357    1.417   .     S
C297   H317    1.118   .     S
C297   C391    1.531   .     S
C298   C299    1.526   .     S
C298   H319    1.110   .     S
C298   C483    1.531   1_455 S
C298   H504    1.112   1_455 S
C299   H320    1.111   .     S
C299   H321    1.109   .     S
C299   H508    1.111   1_455 S
C300   C301    1.537   .     S
C300   H324    1.112   .     S
C300   H323    1.111   .     S
C301   H326    1.109   .     S
C301   C303    1.527   .     S
C302   H349    1.077   .     S
C302   C1128   1.396   1_554 S
C302   C1147   1.416   1_554 S
C303   H328    1.111   .     S
C303   H330    1.110   .     S
C303   H329    1.111   .     S
C304   O359    1.415   .     S
C304   H332    1.118   .     S
C304   C305    1.532   .     S
C304   H517    1.111   1_455 S
C305   H334    1.111   .     S
C305   C492    1.526   1_455 S
C305   H519    1.111   1_455 S
C306   H336    1.110   .     S
C306   H337    1.111   .     S
C306   C398    1.526   .     S
C306   H428    1.111   .     S
C307   C308    1.528   .     S
C307   H339    1.117   .     S
C307   O360    1.413   .     S
C307   H526    1.113   1_455 S
C308   H342    1.112   .     S
C308   C309    1.527   .     S
C308   H341    1.112   .     S
C309   H343    1.111   .     S
C309   H345    1.110   .     S
C309   H623    1.110   .     S
C310   C311    1.422   .     A
C310   C1139   1.416   .     S
C310   C1149   1.425   .     S
C311   C315    1.410   .     A
C312   C1147   1.425   1_554 S
C312   C1150   1.424   1_554 S
C313   C314    1.390   .     A
C313   C1131   1.399   .     S
C313   C1149   1.424   .     S
C314   C315    1.382   .     A
C314   H338    1.084   .     S
C315   H350    1.081   .     S
H318   C391    1.112   .     S
H322   C392    1.111   .     S
H325   C580    1.112   .     S
H331   C397    1.111   .     S
H333   C398    1.111   .     S
H335   C492    1.111   1_455 S
H340   C400    1.113   .     S
H346   C1131   1.084   .     S
O352   Zn372   1.928   .     S
O352   Zn369   1.959   .     S
O352   Zn370   1.949   .     S
O352   Zn371   1.933   .     S
O353   Zn370   1.924   .     S
O354   Zn372   1.936   .     S
O355   Zn371   1.932   .     S
O356   Zn369   1.920   .     S
O357   C379    1.390   .     S
O358   C579    1.418   .     S
O358   C567    1.402   .     S
O359   C1128   1.381   1_554 S
O360   C471    1.389   1_455 S
O361   Zn369   1.933   .     S
O362   Zn372   1.934   .     S
O363   Zn370   1.927   .     S
O364   Zn371   1.940   .     S
O365   Zn372   1.938   .     S
O366   Zn369   1.926   .     S
O367   Zn370   1.938   .     S
O368   Zn371   1.932   .     S
C373   O456    1.264   .     A
C373   O458    1.270   .     A
C373   C379    1.438   .     S
C374   H440    1.078   .     S
C374   C388    1.393   .     A
C374   C405    1.410   .     A
C375   C387    1.386   .     A
C375   H409    1.083   .     S
C375   C388    1.397   .     A
C376   O459    1.274   .     A
C376   C378    1.465   .     S
C376   O457    1.285   .     A
C377   C389    1.401   .     A
C377   C404    1.415   .     A
C377   C386    1.471   .     S
C378   C472    1.351   .     S
C378   O546    1.389   .     S
C380   C383    1.453   .     S
C380   C660    1.345   .     S
C380   H699    1.088   .     S
C381   C382    1.441   .     S
C382   O460    1.277   .     A
C382   O454    1.275   .     A
C383   O455    1.262   .     A
C383   O461    1.276   .     A
C384   C389    1.392   .     A
C384   C1232   1.396   .     S
C384   O1289   1.381   .     S
C385   O448    1.270   .     A
C385   O446    1.281   .     A
C385   C388    1.451   .     S
C386   O449    1.281   .     A
C386   O447    1.282   .     A
C387   C1243   1.399   1_554 S
C387   H1276   1.084   1_554 S
C389   H441    1.084   .     S
C390   H444    1.111   .     S
C390   O450    1.417   .     S
C390   H410    1.118   .     S
C390   C484    1.531   .     S
C391   C392    1.526   .     S
C391   H412    1.110   .     S
C392   H413    1.111   .     S
C392   H414    1.109   .     S
C393   C394    1.537   .     S
C393   H417    1.112   .     S
C393   H416    1.111   .     S
C394   H419    1.109   .     S
C394   C396    1.527   .     S
C395   H442    1.077   .     S
C395   C1221   1.396   1_554 S
C395   C1240   1.416   1_554 S
C396   H421    1.111   .     S
C396   H423    1.110   .     S
C396   H422    1.111   .     S
C397   O452    1.415   .     S
C397   H425    1.118   .     S
C397   C398    1.532   .     S
C398   H427    1.111   .     S
C399   H429    1.110   .     S
C399   H430    1.111   .     S
C399   C491    1.526   .     S
C399   H521    1.111   .     S
C400   C401    1.528   .     S
C400   H432    1.117   .     S
C400   O453    1.413   .     S
C401   H435    1.112   .     S
C401   C402    1.527   .     S
C401   H434    1.112   .     S
C402   H436    1.111   .     S
C402   H438    1.110   .     S
C402   H716    1.110   .     S
C403   C404    1.422   .     A
C403   C1232   1.416   .     S
C403   C1242   1.425   .     S
C404   C408    1.410   .     A
C405   C1240   1.425   1_554 S
C405   C1243   1.424   1_554 S
C406   C407    1.390   .     A
C406   C1224   1.399   .     S
C406   C1242   1.424   .     S
C407   C408    1.382   .     A
C407   H431    1.084   .     S
C408   H443    1.081   .     S
H411   C484    1.112   .     S
H415   C485    1.111   .     S
H418   C673    1.112   .     S
H424   C490    1.111   .     S
H426   C491    1.111   .     S
H433   C493    1.113   .     S
H439   C1224   1.084   .     S
O445   Zn465   1.928   .     S
O445   Zn462   1.959   .     S
O445   Zn463   1.949   .     S
O445   Zn464   1.933   .     S
O446   Zn463   1.924   .     S
O447   Zn465   1.936   .     S
O448   Zn464   1.932   .     S
O449   Zn462   1.920   .     S
O450   C472    1.390   .     S
O451   C672    1.418   .     S
O451   C660    1.402   .     S
O452   C1221   1.381   1_554 S
O454   Zn462   1.933   .     S
O455   Zn465   1.934   .     S
O456   Zn463   1.927   .     S
O457   Zn464   1.940   .     S
O458   Zn465   1.938   .     S
O459   Zn462   1.926   .     S
O460   Zn463   1.938   .     S
O461   Zn464   1.932   .     S
C466   O549    1.264   .     A
C466   O551    1.270   .     A
C466   C472    1.438   .     S
C467   H533    1.078   .     S
C467   C481    1.393   .     A
C467   C498    1.410   .     A
C468   C480    1.386   .     A
C468   H502    1.083   .     S
C468   C481    1.397   .     A
C469   O552    1.274   .     A
C469   C471    1.465   .     S
C469   O550    1.285   .     A
C470   C482    1.401   .     A
C470   C497    1.415   .     A
C470   C479    1.471   .     S
C471   C286    1.351   1_655 S
C471   O360    1.389   1_655 S
C473   C476    1.453   .     S
C473   C753    1.345   .     S
C473   H792    1.088   .     S
C474   C475    1.441   .     S
C475   O553    1.277   .     A
C475   O547    1.275   .     A
C476   O548    1.262   .     A
C476   O554    1.276   .     A
C477   C482    1.392   .     A
C477   C1325   1.396   .     S
C477   O1382   1.381   .     S
C478   O541    1.270   .     A
C478   O539    1.281   .     A
C478   C481    1.451   .     S
C479   O542    1.281   .     A
C479   O540    1.282   .     A
C480   C1336   1.399   1_554 S
C480   H1369   1.084   1_554 S
C482   H534    1.084   .     S
C483   H537    1.111   .     S
C483   O543    1.417   .     S
C483   H503    1.118   .     S
C483   C298    1.531   1_655 S
C484   C485    1.526   .     S
C484   H505    1.110   .     S
C485   H506    1.111   .     S
C485   H507    1.109   .     S
C486   C487    1.537   .     S
C486   H510    1.112   .     S
C486   H509    1.111   .     S
C487   H512    1.109   .     S
C487   C489    1.527   .     S
C488   H535    1.077   .     S
C488   C1314   1.396   1_554 S
C488   C1333   1.416   1_554 S
C489   H514    1.111   .     S
C489   H516    1.110   .     S
C489   H515    1.111   .     S
C490   O545    1.415   .     S
C490   H518    1.118   .     S
C490   C491    1.532   .     S
C491   H520    1.111   .     S
C492   H522    1.110   .     S
C492   H523    1.111   .     S
C492   C305    1.526   1_655 S
C492   H335    1.111   1_655 S
C493   C494    1.528   .     S
C493   H525    1.117   .     S
C493   O546    1.413   .     S
C494   H528    1.112   .     S
C494   C495    1.527   .     S
C494   H527    1.112   .     S
C495   H529    1.111   .     S
C495   H531    1.110   .     S
C495   H809    1.110   .     S
C496   C497    1.422   .     A
C496   C1325   1.416   .     S
C496   C1335   1.425   .     S
C497   C501    1.410   .     A
C498   C1333   1.425   1_554 S
C498   C1336   1.424   1_554 S
C499   C500    1.390   .     A
C499   C1317   1.399   .     S
C499   C1335   1.424   .     S
C500   C501    1.382   .     A
C500   H524    1.084   .     S
C501   H536    1.081   .     S
H504   C298    1.112   1_655 S
H508   C299    1.111   1_655 S
H511   C766    1.112   .     S
H517   C304    1.111   1_655 S
H519   C305    1.111   1_655 S
H526   C307    1.113   1_655 S
H532   C1317   1.084   .     S
O538   Zn558   1.928   .     S
O538   Zn555   1.959   .     S
O538   Zn556   1.949   .     S
O538   Zn557   1.933   .     S
O539   Zn556   1.924   .     S
O540   Zn558   1.936   .     S
O541   Zn557   1.932   .     S
O542   Zn555   1.920   .     S
O543   C286    1.390   1_655 S
O544   C765    1.418   .     S
O544   C753    1.402   .     S
O545   C1314   1.381   1_554 S
O547   Zn555   1.933   .     S
O548   Zn558   1.934   .     S
O549   Zn556   1.927   .     S
O550   Zn557   1.940   .     S
O551   Zn558   1.938   .     S
O552   Zn555   1.926   .     S
O553   Zn556   1.938   .     S
O554   Zn557   1.932   .     S
C559   O642    1.264   .     A
C559   O644    1.270   .     A
C559   C565    1.438   .     S
C560   H626    1.078   .     S
C560   C574    1.393   .     A
C560   C591    1.410   .     A
C561   C573    1.386   .     A
C561   H595    1.083   .     S
C561   C574    1.397   .     A
C562   O645    1.274   .     A
C562   C564    1.465   .     S
C562   O643    1.285   .     A
C563   C575    1.401   .     A
C563   C590    1.415   .     A
C563   C572    1.471   .     S
C564   C658    1.351   .     S
C564   O732    1.389   .     S
C565   C750    1.351   1_455 S
C565   O822    1.390   1_455 S
C566   C569    1.453   .     S
C566   C9      1.345   1_565 S
C566   H48     1.088   1_565 S
C567   C568    1.441   .     S
C568   O646    1.277   .     A
C568   O640    1.275   .     A
C569   O641    1.262   .     A
C569   O647    1.276   .     A
C570   C575    1.392   .     A
C570   C1418   1.396   .     S
C570   O1475   1.381   .     S
C571   O634    1.270   .     A
C571   O632    1.281   .     A
C571   C574    1.451   .     S
C572   O635    1.281   .     A
C572   O633    1.282   .     A
C573   C1429   1.399   1_554 S
C573   H1462   1.084   1_554 S
C575   H627    1.084   .     S
C576   H630    1.111   .     S
C576   O636    1.417   .     S
C576   H596    1.118   .     S
C576   C670    1.531   .     S
C577   C578    1.526   .     S
C577   H598    1.110   .     S
C577   C762    1.531   1_455 S
C577   H783    1.112   1_455 S
C578   H599    1.111   .     S
C578   H600    1.109   .     S
C578   H787    1.111   1_455 S
C579   C580    1.537   .     S
C579   H603    1.112   .     S
C579   H602    1.111   .     S
C580   H605    1.109   .     S
C580   C582    1.527   .     S
C581   H628    1.077   .     S
C581   C1407   1.396   1_554 S
C581   C1426   1.416   1_554 S
C582   H607    1.111   .     S
C582   H609    1.110   .     S
C582   H608    1.111   .     S
C583   O638    1.415   .     S
C583   H611    1.118   .     S
C583   C584    1.532   .     S
C583   H796    1.111   1_455 S
C584   H613    1.111   .     S
C584   C771    1.526   1_455 S
C584   H798    1.111   1_455 S
C585   H615    1.110   .     S
C585   H616    1.111   .     S
C585   C677    1.526   .     S
C585   H707    1.111   .     S
C586   C587    1.528   .     S
C586   H618    1.117   .     S
C586   O639    1.413   .     S
C586   H805    1.113   1_455 S
C587   H621    1.112   .     S
C587   C588    1.527   .     S
C587   H620    1.112   .     S
C588   H622    1.111   .     S
C588   H624    1.110   .     S
C588   H65     1.110   1_565 S
C589   C590    1.422   .     A
C589   C1418   1.416   .     S
C589   C1428   1.425   .     S
C590   C594    1.410   .     A
C591   C1426   1.425   1_554 S
C591   C1429   1.424   1_554 S
C592   C593    1.390   .     A
C592   C1410   1.399   .     S
C592   C1428   1.424   .     S
C593   C594    1.382   .     A
C593   H617    1.084   .     S
C594   H629    1.081   .     S
H597   C670    1.112   .     S
H601   C671    1.111   .     S
H604   C22     1.112   1_565 S
H610   C676    1.111   .     S
H612   C677    1.111   .     S
H614   C771    1.111   1_455 S
H619   C679    1.113   .     S
H625   C1410   1.084   .     S
O631   Zn651   1.928   .     S
O631   Zn648   1.959   .     S
O631   Zn649   1.949   .     S
O631   Zn650   1.933   .     S
O632   Zn649   1.924   .     S
O633   Zn651   1.936   .     S
O634   Zn650   1.932   .     S
O635   Zn648   1.920   .     S
O636   C658    1.390   .     S
O637   C21     1.418   1_565 S
O637   C9      1.402   1_565 S
O638   C1407   1.381   1_554 S
O639   C750    1.389   1_455 S
O640   Zn648   1.933   .     S
O641   Zn651   1.934   .     S
O642   Zn649   1.927   .     S
O643   Zn650   1.940   .     S
O644   Zn651   1.938   .     S
O645   Zn648   1.926   .     S
O646   Zn649   1.938   .     S
O647   Zn650   1.932   .     S
C652   O735    1.264   .     A
C652   O737    1.270   .     A
C652   C658    1.438   .     S
C653   H719    1.078   .     S
C653   C667    1.393   .     A
C653   C684    1.410   .     A
C654   C666    1.386   .     A
C654   H688    1.083   .     S
C654   C667    1.397   .     A
C655   O738    1.274   .     A
C655   C657    1.465   .     S
C655   O736    1.285   .     A
C656   C668    1.401   .     A
C656   C683    1.415   .     A
C656   C665    1.471   .     S
C657   C751    1.351   .     S
C657   O825    1.389   .     S
C659   C662    1.453   .     S
C659   C102    1.345   1_565 S
C659   H141    1.088   1_565 S
C660   C661    1.441   .     S
C661   O739    1.277   .     A
C661   O733    1.275   .     A
C662   O734    1.262   .     A
C662   O740    1.276   .     A
C663   C668    1.392   .     A
C663   C1511   1.396   .     S
C663   O1568   1.381   .     S
C664   O727    1.270   .     A
C664   O725    1.281   .     A
C664   C667    1.451   .     S
C665   O728    1.281   .     A
C665   O726    1.282   .     A
C666   C1522   1.399   1_554 S
C666   H1555   1.084   1_554 S
C668   H720    1.084   .     S
C669   H723    1.111   .     S
C669   O729    1.417   .     S
C669   H689    1.118   .     S
C669   C763    1.531   .     S
C670   C671    1.526   .     S
C670   H691    1.110   .     S
C671   H692    1.111   .     S
C671   H693    1.109   .     S
C672   C673    1.537   .     S
C672   H696    1.112   .     S
C672   H695    1.111   .     S
C673   H698    1.109   .     S
C673   C675    1.527   .     S
C674   H721    1.077   .     S
C674   C1500   1.396   1_554 S
C674   C1519   1.416   1_554 S
C675   H700    1.111   .     S
C675   H702    1.110   .     S
C675   H701    1.111   .     S
C676   O731    1.415   .     S
C676   H704    1.118   .     S
C676   C677    1.532   .     S
C677   H706    1.111   .     S
C678   H708    1.110   .     S
C678   H709    1.111   .     S
C678   C770    1.526   .     S
C678   H800    1.111   .     S
C679   C680    1.528   .     S
C679   H711    1.117   .     S
C679   O732    1.413   .     S
C680   H714    1.112   .     S
C680   C681    1.527   .     S
C680   H713    1.112   .     S
C681   H715    1.111   .     S
C681   H717    1.110   .     S
C681   H158    1.110   1_565 S
C682   C683    1.422   .     A
C682   C1511   1.416   .     S
C682   C1521   1.425   .     S
C683   C687    1.410   .     A
C684   C1519   1.425   1_554 S
C684   C1522   1.424   1_554 S
C685   C686    1.390   .     A
C685   C1503   1.399   .     S
C685   C1521   1.424   .     S
C686   C687    1.382   .     A
C686   H710    1.084   .     S
C687   H722    1.081   .     S
H690   C763    1.112   .     S
H694   C764    1.111   .     S
H697   C115    1.112   1_565 S
H703   C769    1.111   .     S
H705   C770    1.111   .     S
H712   C772    1.113   .     S
H718   C1503   1.084   .     S
O724   Zn744   1.928   .     S
O724   Zn741   1.959   .     S
O724   Zn742   1.949   .     S
O724   Zn743   1.933   .     S
O725   Zn742   1.924   .     S
O726   Zn744   1.936   .     S
O727   Zn743   1.932   .     S
O728   Zn741   1.920   .     S
O729   C751    1.390   .     S
O730   C114    1.418   1_565 S
O730   C102    1.402   1_565 S
O731   C1500   1.381   1_554 S
O733   Zn741   1.933   .     S
O734   Zn744   1.934   .     S
O735   Zn742   1.927   .     S
O736   Zn743   1.940   .     S
O737   Zn744   1.938   .     S
O738   Zn741   1.926   .     S
O739   Zn742   1.938   .     S
O740   Zn743   1.932   .     S
C745   O828    1.264   .     A
C745   O830    1.270   .     A
C745   C751    1.438   .     S
C746   H812    1.078   .     S
C746   C760    1.393   .     A
C746   C777    1.410   .     A
C747   C759    1.386   .     A
C747   H781    1.083   .     S
C747   C760    1.397   .     A
C748   O831    1.274   .     A
C748   C750    1.465   .     S
C748   O829    1.285   .     A
C749   C761    1.401   .     A
C749   C776    1.415   .     A
C749   C758    1.471   .     S
C750   C565    1.351   1_655 S
C750   O639    1.389   1_655 S
C752   C755    1.453   .     S
C752   C195    1.345   1_565 S
C752   H234    1.088   1_565 S
C753   C754    1.441   .     S
C754   O832    1.277   .     A
C754   O826    1.275   .     A
C755   O827    1.262   .     A
C755   O833    1.276   .     A
C756   C761    1.392   .     A
C756   C1604   1.396   .     S
C756   O1661   1.381   .     S
C757   O820    1.270   .     A
C757   O818    1.281   .     A
C757   C760    1.451   .     S
C758   O821    1.281   .     A
C758   O819    1.282   .     A
C759   C1615   1.399   1_554 S
C759   H1648   1.084   1_554 S
C761   H813    1.084   .     S
C762   H816    1.111   .     S
C762   O822    1.417   .     S
C762   H782    1.118   .     S
C762   C577    1.531   1_655 S
C763   C764    1.526   .     S
C763   H784    1.110   .     S
C764   H785    1.111   .     S
C764   H786    1.109   .     S
C765   C766    1.537   .     S
C765   H789    1.112   .     S
C765   H788    1.111   .     S
C766   H791    1.109   .     S
C766   C768    1.527   .     S
C767   H814    1.077   .     S
C767   C1593   1.396   1_554 S
C767   C1612   1.416   1_554 S
C768   H793    1.111   .     S
C768   H795    1.110   .     S
C768   H794    1.111   .     S
C769   O824    1.415   .     S
C769   H797    1.118   .     S
C769   C770    1.532   .     S
C770   H799    1.111   .     S
C771   H801    1.110   .     S
C771   H802    1.111   .     S
C771   C584    1.526   1_655 S
C771   H614    1.111   1_655 S
C772   C773    1.528   .     S
C772   H804    1.117   .     S
C772   O825    1.413   .     S
C773   H807    1.112   .     S
C773   C774    1.527   .     S
C773   H806    1.112   .     S
C774   H808    1.111   .     S
C774   H810    1.110   .     S
C774   H251    1.110   1_565 S
C775   C776    1.422   .     A
C775   C1604   1.416   .     S
C775   C1614   1.425   .     S
C776   C780    1.410   .     A
C777   C1612   1.425   1_554 S
C777   C1615   1.424   1_554 S
C778   C779    1.390   .     A
C778   C1596   1.399   .     S
C778   C1614   1.424   .     S
C779   C780    1.382   .     A
C779   H803    1.084   .     S
C780   H815    1.081   .     S
H783   C577    1.112   1_655 S
H787   C578    1.111   1_655 S
H790   C208    1.112   1_565 S
H796   C583    1.111   1_655 S
H798   C584    1.111   1_655 S
H805   C586    1.113   1_655 S
H811   C1596   1.084   .     S
O817   Zn837   1.928   .     S
O817   Zn834   1.959   .     S
O817   Zn835   1.949   .     S
O817   Zn836   1.933   .     S
O818   Zn835   1.924   .     S
O819   Zn837   1.936   .     S
O820   Zn836   1.932   .     S
O821   Zn834   1.920   .     S
O822   C565    1.390   1_655 S
O823   C207    1.418   1_565 S
O823   C195    1.402   1_565 S
O824   C1593   1.381   1_554 S
O826   Zn834   1.933   .     S
O827   Zn837   1.934   .     S
O828   Zn835   1.927   .     S
O829   Zn836   1.940   .     S
O830   Zn837   1.938   .     S
O831   Zn834   1.926   .     S
O832   Zn835   1.938   .     S
O833   Zn836   1.932   .     S
C838   O921    1.264   .     A
C838   O923    1.270   .     A
C838   C844    1.438   .     S
C839   H905    1.078   .     S
C839   C853    1.393   .     A
C839   C870    1.410   .     A
C840   C852    1.386   .     A
C840   H874    1.083   .     S
C840   C853    1.397   .     A
C841   O924    1.274   .     A
C841   C843    1.465   .     S
C841   O922    1.285   .     A
C842   C854    1.401   .     A
C842   C869    1.415   .     A
C842   C851    1.471   .     S
C843   C937    1.351   .     S
C843   O1011   1.389   .     S
C844   C1029   1.351   1_455 S
C844   O1101   1.390   1_455 S
C845   C848    1.453   .     S
C845   C1125   1.345   .     S
C845   H1164   1.088   .     S
C846   C847    1.441   .     S
C846   C1403   1.345   1_545 S
C846   O1474   1.402   1_545 S
C847   O925    1.277   .     A
C847   O919    1.275   .     A
C848   O920    1.262   .     A
C848   O926    1.276   .     A
C849   C854    1.392   .     A
C849   C23     1.396   1_556 S
C849   O80     1.381   1_556 S
C850   O913    1.270   .     A
C850   O911    1.281   .     A
C850   C853    1.451   .     S
C851   O914    1.281   .     A
C851   O912    1.282   .     A
C854   H906    1.084   .     S
C855   H909    1.111   .     S
C855   O915    1.417   .     S
C855   H875    1.118   .     S
C855   C949    1.531   .     S
C856   C857    1.526   .     S
C856   H877    1.110   .     S
C856   C1041   1.531   1_455 S
C856   H1062   1.112   1_455 S
C857   H878    1.111   .     S
C857   H879    1.109   .     S
C857   H1066   1.111   1_455 S
C858   C859    1.537   .     S
C858   H882    1.112   .     S
C858   H881    1.111   .     S
C858   O1474   1.418   1_545 S
C859   H884    1.109   .     S
C859   C861    1.527   .     S
C859   H1441   1.112   1_545 S
C860   H907    1.077   .     S
C861   H886    1.111   .     S
C861   H888    1.110   .     S
C861   H887    1.111   .     S
C862   O917    1.415   .     S
C862   H890    1.118   .     S
C862   C863    1.532   .     S
C862   H1075   1.111   1_455 S
C863   H892    1.111   .     S
C863   C1050   1.526   1_455 S
C863   H1077   1.111   1_455 S
C864   H894    1.110   .     S
C864   H895    1.111   .     S
C864   C956    1.526   .     S
C864   H986    1.111   .     S
C865   C866    1.528   .     S
C865   H897    1.117   .     S
C865   O918    1.413   .     S
C865   H1084   1.113   1_455 S
C866   H900    1.112   .     S
C866   C867    1.527   .     S
C866   H899    1.112   .     S
C867   H901    1.111   .     S
C867   H903    1.110   .     S
C867   H1181   1.110   .     S
C868   C869    1.422   .     A
C868   C23     1.416   1_556 S
C868   C33     1.425   1_556 S
C869   C873    1.410   .     A
C871   C872    1.390   .     A
C871   C15     1.399   1_556 S
C871   C33     1.424   1_556 S
C872   C873    1.382   .     A
C872   H896    1.084   .     S
C873   H908    1.081   .     S
H876   C949    1.112   .     S
H880   C950    1.111   .     S
H883   C1138   1.112   .     S
H885   C1403   1.088   1_545 S
H889   C955    1.111   .     S
H891   C956    1.111   .     S
H893   C1050   1.111   1_455 S
H898   C958    1.113   .     S
H902   C1425   1.110   1_545 S
H904   C15     1.084   1_556 S
O910   Zn930   1.928   .     S
O910   Zn927   1.959   .     S
O910   Zn928   1.949   .     S
O910   Zn929   1.933   .     S
O911   Zn928   1.924   .     S
O912   Zn930   1.936   .     S
O913   Zn929   1.932   .     S
O914   Zn927   1.920   .     S
O915   C937    1.390   .     S
O916   C1137   1.418   .     S
O916   C1125   1.402   .     S
O918   C1029   1.389   1_455 S
O919   Zn927   1.933   .     S
O920   Zn930   1.934   .     S
O921   Zn928   1.927   .     S
O922   Zn929   1.940   .     S
O923   Zn930   1.938   .     S
O924   Zn927   1.926   .     S
O925   Zn928   1.938   .     S
O926   Zn929   1.932   .     S
C931   O1014   1.264   .     A
C931   O1016   1.270   .     A
C931   C937    1.438   .     S
C932   H998    1.078   .     S
C932   C946    1.393   .     A
C932   C963    1.410   .     A
C933   C945    1.386   .     A
C933   H967    1.083   .     S
C933   C946    1.397   .     A
C934   O1017   1.274   .     A
C934   C936    1.465   .     S
C934   O1015   1.285   .     A
C935   C947    1.401   .     A
C935   C962    1.415   .     A
C935   C944    1.471   .     S
C936   C1030   1.351   .     S
C936   O1104   1.389   .     S
C938   C941    1.453   .     S
C938   C1218   1.345   .     S
C938   H1257   1.088   .     S
C939   C940    1.441   .     S
C939   C1496   1.345   1_545 S
C939   O1567   1.402   1_545 S
C940   O1018   1.277   .     A
C940   O1012   1.275   .     A
C941   O1013   1.262   .     A
C941   O1019   1.276   .     A
C942   C947    1.392   .     A
C942   C116    1.396   1_556 S
C942   O173    1.381   1_556 S
C943   O1006   1.270   .     A
C943   O1004   1.281   .     A
C943   C946    1.451   .     S
C944   O1007   1.281   .     A
C944   O1005   1.282   .     A
C947   H999    1.084   .     S
C948   H1002   1.111   .     S
C948   O1008   1.417   .     S
C948   H968    1.118   .     S
C948   C1042   1.531   .     S
C949   C950    1.526   .     S
C949   H970    1.110   .     S
C950   H971    1.111   .     S
C950   H972    1.109   .     S
C951   C952    1.537   .     S
C951   H975    1.112   .     S
C951   H974    1.111   .     S
C951   O1567   1.418   1_545 S
C952   H977    1.109   .     S
C952   C954    1.527   .     S
C952   H1534   1.112   1_545 S
C953   H1000   1.077   .     S
C954   H979    1.111   .     S
C954   H981    1.110   .     S
C954   H980    1.111   .     S
C955   O1010   1.415   .     S
C955   H983    1.118   .     S
C955   C956    1.532   .     S
C956   H985    1.111   .     S
C957   H987    1.110   .     S
C957   H988    1.111   .     S
C957   C1049   1.526   .     S
C957   H1079   1.111   .     S
C958   C959    1.528   .     S
C958   H990    1.117   .     S
C958   O1011   1.413   .     S
C959   H993    1.112   .     S
C959   C960    1.527   .     S
C959   H992    1.112   .     S
C960   H994    1.111   .     S
C960   H996    1.110   .     S
C960   H1274   1.110   .     S
C961   C962    1.422   .     A
C961   C116    1.416   1_556 S
C961   C126    1.425   1_556 S
C962   C966    1.410   .     A
C964   C965    1.390   .     A
C964   C108    1.399   1_556 S
C964   C126    1.424   1_556 S
C965   C966    1.382   .     A
C965   H989    1.084   .     S
C966   H1001   1.081   .     S
H969   C1042   1.112   .     S
H973   C1043   1.111   .     S
H976   C1231   1.112   .     S
H978   C1496   1.088   1_545 S
H982   C1048   1.111   .     S
H984   C1049   1.111   .     S
H991   C1051   1.113   .     S
H995   C1518   1.110   1_545 S
H997   C108    1.084   1_556 S
O1003  Zn1023  1.928   .     S
O1003  Zn1020  1.959   .     S
O1003  Zn1021  1.949   .     S
O1003  Zn1022  1.933   .     S
O1004  Zn1021  1.924   .     S
O1005  Zn1023  1.936   .     S
O1006  Zn1022  1.932   .     S
O1007  Zn1020  1.920   .     S
O1008  C1030   1.390   .     S
O1009  C1230   1.418   .     S
O1009  C1218   1.402   .     S
O1012  Zn1020  1.933   .     S
O1013  Zn1023  1.934   .     S
O1014  Zn1021  1.927   .     S
O1015  Zn1022  1.940   .     S
O1016  Zn1023  1.938   .     S
O1017  Zn1020  1.926   .     S
O1018  Zn1021  1.938   .     S
O1019  Zn1022  1.932   .     S
C1024  O1107   1.264   .     A
C1024  O1109   1.270   .     A
C1024  C1030   1.438   .     S
C1025  H1091   1.078   .     S
C1025  C1039   1.393   .     A
C1025  C1056   1.410   .     A
C1026  C1038   1.386   .     A
C1026  H1060   1.083   .     S
C1026  C1039   1.397   .     A
C1027  O1110   1.274   .     A
C1027  C1029   1.465   .     S
C1027  O1108   1.285   .     A
C1028  C1040   1.401   .     A
C1028  C1055   1.415   .     A
C1028  C1037   1.471   .     S
C1029  C844    1.351   1_655 S
C1029  O918    1.389   1_655 S
C1031  C1034   1.453   .     S
C1031  C1311   1.345   .     S
C1031  H1350   1.088   .     S
C1032  C1033   1.441   .     S
C1032  C1589   1.345   1_545 S
C1032  O1660   1.402   1_545 S
C1033  O1111   1.277   .     A
C1033  O1105   1.275   .     A
C1034  O1106   1.262   .     A
C1034  O1112   1.276   .     A
C1035  C1040   1.392   .     A
C1035  C209    1.396   1_556 S
C1035  O266    1.381   1_556 S
C1036  O1099   1.270   .     A
C1036  O1097   1.281   .     A
C1036  C1039   1.451   .     S
C1037  O1100   1.281   .     A
C1037  O1098   1.282   .     A
C1040  H1092   1.084   .     S
C1041  H1095   1.111   .     S
C1041  O1101   1.417   .     S
C1041  H1061   1.118   .     S
C1041  C856    1.531   1_655 S
C1042  C1043   1.526   .     S
C1042  H1063   1.110   .     S
C1043  H1064   1.111   .     S
C1043  H1065   1.109   .     S
C1044  C1045   1.537   .     S
C1044  H1068   1.112   .     S
C1044  H1067   1.111   .     S
C1044  O1660   1.418   1_545 S
C1045  H1070   1.109   .     S
C1045  C1047   1.527   .     S
C1045  H1627   1.112   1_545 S
C1046  H1093   1.077   .     S
C1047  H1072   1.111   .     S
C1047  H1074   1.110   .     S
C1047  H1073   1.111   .     S
C1048  O1103   1.415   .     S
C1048  H1076   1.118   .     S
C1048  C1049   1.532   .     S
C1049  H1078   1.111   .     S
C1050  H1080   1.110   .     S
C1050  H1081   1.111   .     S
C1050  C863    1.526   1_655 S
C1050  H893    1.111   1_655 S
C1051  C1052   1.528   .     S
C1051  H1083   1.117   .     S
C1051  O1104   1.413   .     S
C1052  H1086   1.112   .     S
C1052  C1053   1.527   .     S
C1052  H1085   1.112   .     S
C1053  H1087   1.111   .     S
C1053  H1089   1.110   .     S
C1053  H1367   1.110   .     S
C1054  C1055   1.422   .     A
C1054  C209    1.416   1_556 S
C1054  C219    1.425   1_556 S
C1055  C1059   1.410   .     A
C1057  C1058   1.390   .     A
C1057  C201    1.399   1_556 S
C1057  C219    1.424   1_556 S
C1058  C1059   1.382   .     A
C1058  H1082   1.084   .     S
C1059  H1094   1.081   .     S
H1062  C856    1.112   1_655 S
H1066  C857    1.111   1_655 S
H1069  C1324   1.112   .     S
H1071  C1589   1.088   1_545 S
H1075  C862    1.111   1_655 S
H1077  C863    1.111   1_655 S
H1084  C865    1.113   1_655 S
H1088  C1611   1.110   1_545 S
H1090  C201    1.084   1_556 S
O1096  Zn1116  1.928   .     S
O1096  Zn1113  1.959   .     S
O1096  Zn1114  1.949   .     S
O1096  Zn1115  1.933   .     S
O1097  Zn1114  1.924   .     S
O1098  Zn1116  1.936   .     S
O1099  Zn1115  1.932   .     S
O1100  Zn1113  1.920   .     S
O1101  C844    1.390   1_655 S
O1102  C1323   1.418   .     S
O1102  C1311   1.402   .     S
O1105  Zn1113  1.933   .     S
O1106  Zn1116  1.934   .     S
O1107  Zn1114  1.927   .     S
O1108  Zn1115  1.940   .     S
O1109  Zn1116  1.938   .     S
O1110  Zn1113  1.926   .     S
O1111  Zn1114  1.938   .     S
O1112  Zn1115  1.932   .     S
C1117  O1200   1.264   .     A
C1117  O1202   1.270   .     A
C1117  C1123   1.438   .     S
C1118  H1184   1.078   .     S
C1118  C1132   1.393   .     A
C1118  C1149   1.410   .     A
C1119  C1131   1.386   .     A
C1119  H1153   1.083   .     S
C1119  C1132   1.397   .     A
C1120  O1203   1.274   .     A
C1120  C1122   1.465   .     S
C1120  O1201   1.285   .     A
C1121  C1133   1.401   .     A
C1121  C1148   1.415   .     A
C1121  C1130   1.471   .     S
C1122  C1216   1.351   .     S
C1122  O1290   1.389   .     S
C1123  C1308   1.351   1_455 S
C1123  O1380   1.390   1_455 S
C1124  C1127   1.453   .     S
C1124  C1404   1.345   .     S
C1124  H1443   1.088   .     S
C1125  C1126   1.441   .     S
C1126  O1204   1.277   .     A
C1126  O1198   1.275   .     A
C1127  O1199   1.262   .     A
C1127  O1205   1.276   .     A
C1128  C1133   1.392   .     A
C1128  C302    1.396   1_556 S
C1128  O359    1.381   1_556 S
C1129  O1192   1.270   .     A
C1129  O1190   1.281   .     A
C1129  C1132   1.451   .     S
C1130  O1193   1.281   .     A
C1130  O1191   1.282   .     A
C1133  H1185   1.084   .     S
C1134  H1188   1.111   .     S
C1134  O1194   1.417   .     S
C1134  H1154   1.118   .     S
C1134  C1228   1.531   .     S
C1135  C1136   1.526   .     S
C1135  H1156   1.110   .     S
C1135  C1320   1.531   1_455 S
C1135  H1341   1.112   1_455 S
C1136  H1157   1.111   .     S
C1136  H1158   1.109   .     S
C1136  H1345   1.111   1_455 S
C1137  C1138   1.537   .     S
C1137  H1161   1.112   .     S
C1137  H1160   1.111   .     S
C1138  H1163   1.109   .     S
C1138  C1140   1.527   .     S
C1139  H1186   1.077   .     S
C1140  H1165   1.111   .     S
C1140  H1167   1.110   .     S
C1140  H1166   1.111   .     S
C1141  O1196   1.415   .     S
C1141  H1169   1.118   .     S
C1141  C1142   1.532   .     S
C1141  H1354   1.111   1_455 S
C1142  H1171   1.111   .     S
C1142  C1329   1.526   1_455 S
C1142  H1356   1.111   1_455 S
C1143  H1173   1.110   .     S
C1143  H1174   1.111   .     S
C1143  C1235   1.526   .     S
C1143  H1265   1.111   .     S
C1144  C1145   1.528   .     S
C1144  H1176   1.117   .     S
C1144  O1197   1.413   .     S
C1144  H1363   1.113   1_455 S
C1145  H1179   1.112   .     S
C1145  C1146   1.527   .     S
C1145  H1178   1.112   .     S
C1146  H1180   1.111   .     S
C1146  H1182   1.110   .     S
C1146  H1460   1.110   .     S
C1147  C1148   1.422   .     A
C1147  C302    1.416   1_556 S
C1147  C312    1.425   1_556 S
C1148  C1152   1.410   .     A
C1150  C1151   1.390   .     A
C1150  C294    1.399   1_556 S
C1150  C312    1.424   1_556 S
C1151  C1152   1.382   .     A
C1151  H1175   1.084   .     S
C1152  H1187   1.081   .     S
H1155  C1228   1.112   .     S
H1159  C1229   1.111   .     S
H1162  C1417   1.112   .     S
H1168  C1234   1.111   .     S
H1170  C1235   1.111   .     S
H1172  C1329   1.111   1_455 S
H1177  C1237   1.113   .     S
H1183  C294    1.084   1_556 S
O1189  Zn1209  1.928   .     S
O1189  Zn1206  1.959   .     S
O1189  Zn1207  1.949   .     S
O1189  Zn1208  1.933   .     S
O1190  Zn1207  1.924   .     S
O1191  Zn1209  1.936   .     S
O1192  Zn1208  1.932   .     S
O1193  Zn1206  1.920   .     S
O1194  C1216   1.390   .     S
O1195  C1416   1.418   .     S
O1195  C1404   1.402   .     S
O1197  C1308   1.389   1_455 S
O1198  Zn1206  1.933   .     S
O1199  Zn1209  1.934   .     S
O1200  Zn1207  1.927   .     S
O1201  Zn1208  1.940   .     S
O1202  Zn1209  1.938   .     S
O1203  Zn1206  1.926   .     S
O1204  Zn1207  1.938   .     S
O1205  Zn1208  1.932   .     S
C1210  O1293   1.264   .     A
C1210  O1295   1.270   .     A
C1210  C1216   1.438   .     S
C1211  H1277   1.078   .     S
C1211  C1225   1.393   .     A
C1211  C1242   1.410   .     A
C1212  C1224   1.386   .     A
C1212  H1246   1.083   .     S
C1212  C1225   1.397   .     A
C1213  O1296   1.274   .     A
C1213  C1215   1.465   .     S
C1213  O1294   1.285   .     A
C1214  C1226   1.401   .     A
C1214  C1241   1.415   .     A
C1214  C1223   1.471   .     S
C1215  C1309   1.351   .     S
C1215  O1383   1.389   .     S
C1217  C1220   1.453   .     S
C1217  C1497   1.345   .     S
C1217  H1536   1.088   .     S
C1218  C1219   1.441   .     S
C1219  O1297   1.277   .     A
C1219  O1291   1.275   .     A
C1220  O1292   1.262   .     A
C1220  O1298   1.276   .     A
C1221  C1226   1.392   .     A
C1221  C395    1.396   1_556 S
C1221  O452    1.381   1_556 S
C1222  O1285   1.270   .     A
C1222  O1283   1.281   .     A
C1222  C1225   1.451   .     S
C1223  O1286   1.281   .     A
C1223  O1284   1.282   .     A
C1226  H1278   1.084   .     S
C1227  H1281   1.111   .     S
C1227  O1287   1.417   .     S
C1227  H1247   1.118   .     S
C1227  C1321   1.531   .     S
C1228  C1229   1.526   .     S
C1228  H1249   1.110   .     S
C1229  H1250   1.111   .     S
C1229  H1251   1.109   .     S
C1230  C1231   1.537   .     S
C1230  H1254   1.112   .     S
C1230  H1253   1.111   .     S
C1231  H1256   1.109   .     S
C1231  C1233   1.527   .     S
C1232  H1279   1.077   .     S
C1233  H1258   1.111   .     S
C1233  H1260   1.110   .     S
C1233  H1259   1.111   .     S
C1234  O1289   1.415   .     S
C1234  H1262   1.118   .     S
C1234  C1235   1.532   .     S
C1235  H1264   1.111   .     S
C1236  H1266   1.110   .     S
C1236  H1267   1.111   .     S
C1236  C1328   1.526   .     S
C1236  H1358   1.111   .     S
C1237  C1238   1.528   .     S
C1237  H1269   1.117   .     S
C1237  O1290   1.413   .     S
C1238  H1272   1.112   .     S
C1238  C1239   1.527   .     S
C1238  H1271   1.112   .     S
C1239  H1273   1.111   .     S
C1239  H1275   1.110   .     S
C1239  H1553   1.110   .     S
C1240  C1241   1.422   .     A
C1240  C395    1.416   1_556 S
C1240  C405    1.425   1_556 S
C1241  C1245   1.410   .     A
C1243  C1244   1.390   .     A
C1243  C387    1.399   1_556 S
C1243  C405    1.424   1_556 S
C1244  C1245   1.382   .     A
C1244  H1268   1.084   .     S
C1245  H1280   1.081   .     S
H1248  C1321   1.112   .     S
H1252  C1322   1.111   .     S
H1255  C1510   1.112   .     S
H1261  C1327   1.111   .     S
H1263  C1328   1.111   .     S
H1270  C1330   1.113   .     S
H1276  C387    1.084   1_556 S
O1282  Zn1302  1.928   .     S
O1282  Zn1299  1.959   .     S
O1282  Zn1300  1.949   .     S
O1282  Zn1301  1.933   .     S
O1283  Zn1300  1.924   .     S
O1284  Zn1302  1.936   .     S
O1285  Zn1301  1.932   .     S
O1286  Zn1299  1.920   .     S
O1287  C1309   1.390   .     S
O1288  C1509   1.418   .     S
O1288  C1497   1.402   .     S
O1291  Zn1299  1.933   .     S
O1292  Zn1302  1.934   .     S
O1293  Zn1300  1.927   .     S
O1294  Zn1301  1.940   .     S
O1295  Zn1302  1.938   .     S
O1296  Zn1299  1.926   .     S
O1297  Zn1300  1.938   .     S
O1298  Zn1301  1.932   .     S
C1303  O1386   1.264   .     A
C1303  O1388   1.270   .     A
C1303  C1309   1.438   .     S
C1304  H1370   1.078   .     S
C1304  C1318   1.393   .     A
C1304  C1335   1.410   .     A
C1305  C1317   1.386   .     A
C1305  H1339   1.083   .     S
C1305  C1318   1.397   .     A
C1306  O1389   1.274   .     A
C1306  C1308   1.465   .     S
C1306  O1387   1.285   .     A
C1307  C1319   1.401   .     A
C1307  C1334   1.415   .     A
C1307  C1316   1.471   .     S
C1308  C1123   1.351   1_655 S
C1308  O1197   1.389   1_655 S
C1310  C1313   1.453   .     S
C1310  C1590   1.345   .     S
C1310  H1629   1.088   .     S
C1311  C1312   1.441   .     S
C1312  O1390   1.277   .     A
C1312  O1384   1.275   .     A
C1313  O1385   1.262   .     A
C1313  O1391   1.276   .     A
C1314  C1319   1.392   .     A
C1314  C488    1.396   1_556 S
C1314  O545    1.381   1_556 S
C1315  O1378   1.270   .     A
C1315  O1376   1.281   .     A
C1315  C1318   1.451   .     S
C1316  O1379   1.281   .     A
C1316  O1377   1.282   .     A
C1319  H1371   1.084   .     S
C1320  H1374   1.111   .     S
C1320  O1380   1.417   .     S
C1320  H1340   1.118   .     S
C1320  C1135   1.531   1_655 S
C1321  C1322   1.526   .     S
C1321  H1342   1.110   .     S
C1322  H1343   1.111   .     S
C1322  H1344   1.109   .     S
C1323  C1324   1.537   .     S
C1323  H1347   1.112   .     S
C1323  H1346   1.111   .     S
C1324  H1349   1.109   .     S
C1324  C1326   1.527   .     S
C1325  H1372   1.077   .     S
C1326  H1351   1.111   .     S
C1326  H1353   1.110   .     S
C1326  H1352   1.111   .     S
C1327  O1382   1.415   .     S
C1327  H1355   1.118   .     S
C1327  C1328   1.532   .     S
C1328  H1357   1.111   .     S
C1329  H1359   1.110   .     S
C1329  H1360   1.111   .     S
C1329  C1142   1.526   1_655 S
C1329  H1172   1.111   1_655 S
C1330  C1331   1.528   .     S
C1330  H1362   1.117   .     S
C1330  O1383   1.413   .     S
C1331  H1365   1.112   .     S
C1331  C1332   1.527   .     S
C1331  H1364   1.112   .     S
C1332  H1366   1.111   .     S
C1332  H1368   1.110   .     S
C1332  H1646   1.110   .     S
C1333  C1334   1.422   .     A
C1333  C488    1.416   1_556 S
C1333  C498    1.425   1_556 S
C1334  C1338   1.410   .     A
C1336  C1337   1.390   .     A
C1336  C480    1.399   1_556 S
C1336  C498    1.424   1_556 S
C1337  C1338   1.382   .     A
C1337  H1361   1.084   .     S
C1338  H1373   1.081   .     S
H1341  C1135   1.112   1_655 S
H1345  C1136   1.111   1_655 S
H1348  C1603   1.112   .     S
H1354  C1141   1.111   1_655 S
H1356  C1142   1.111   1_655 S
H1363  C1144   1.113   1_655 S
H1369  C480    1.084   1_556 S
O1375  Zn1395  1.928   .     S
O1375  Zn1392  1.959   .     S
O1375  Zn1393  1.949   .     S
O1375  Zn1394  1.933   .     S
O1376  Zn1393  1.924   .     S
O1377  Zn1395  1.936   .     S
O1378  Zn1394  1.932   .     S
O1379  Zn1392  1.920   .     S
O1380  C1123   1.390   1_655 S
O1381  C1602   1.418   .     S
O1381  C1590   1.402   .     S
O1384  Zn1392  1.933   .     S
O1385  Zn1395  1.934   .     S
O1386  Zn1393  1.927   .     S
O1387  Zn1394  1.940   .     S
O1388  Zn1395  1.938   .     S
O1389  Zn1392  1.926   .     S
O1390  Zn1393  1.938   .     S
O1391  Zn1394  1.932   .     S
C1396  O1479   1.264   .     A
C1396  O1481   1.270   .     A
C1396  C1402   1.438   .     S
C1397  H1463   1.078   .     S
C1397  C1411   1.393   .     A
C1397  C1428   1.410   .     A
C1398  C1410   1.386   .     A
C1398  H1432   1.083   .     S
C1398  C1411   1.397   .     A
C1399  O1482   1.274   .     A
C1399  C1401   1.465   .     S
C1399  O1480   1.285   .     A
C1400  C1412   1.401   .     A
C1400  C1427   1.415   .     A
C1400  C1409   1.471   .     S
C1401  C1495   1.351   .     S
C1401  O1569   1.389   .     S
C1402  C1587   1.351   1_455 S
C1402  O1659   1.390   1_455 S
C1403  C1406   1.453   .     S
C1403  C846    1.345   1_565 S
C1403  H885    1.088   1_565 S
C1404  C1405   1.441   .     S
C1405  O1483   1.277   .     A
C1405  O1477   1.275   .     A
C1406  O1478   1.262   .     A
C1406  O1484   1.276   .     A
C1407  C1412   1.392   .     A
C1407  C581    1.396   1_556 S
C1407  O638    1.381   1_556 S
C1408  O1471   1.270   .     A
C1408  O1469   1.281   .     A
C1408  C1411   1.451   .     S
C1409  O1472   1.281   .     A
C1409  O1470   1.282   .     A
C1412  H1464   1.084   .     S
C1413  H1467   1.111   .     S
C1413  O1473   1.417   .     S
C1413  H1433   1.118   .     S
C1413  C1507   1.531   .     S
C1414  C1415   1.526   .     S
C1414  H1435   1.110   .     S
C1414  C1599   1.531   1_455 S
C1414  H1620   1.112   1_455 S
C1415  H1436   1.111   .     S
C1415  H1437   1.109   .     S
C1415  H1624   1.111   1_455 S
C1416  C1417   1.537   .     S
C1416  H1440   1.112   .     S
C1416  H1439   1.111   .     S
C1417  H1442   1.109   .     S
C1417  C1419   1.527   .     S
C1418  H1465   1.077   .     S
C1419  H1444   1.111   .     S
C1419  H1446   1.110   .     S
C1419  H1445   1.111   .     S
C1420  O1475   1.415   .     S
C1420  H1448   1.118   .     S
C1420  C1421   1.532   .     S
C1420  H1633   1.111   1_455 S
C1421  H1450   1.111   .     S
C1421  C1608   1.526   1_455 S
C1421  H1635   1.111   1_455 S
C1422  H1452   1.110   .     S
C1422  H1453   1.111   .     S
C1422  C1514   1.526   .     S
C1422  H1544   1.111   .     S
C1423  C1424   1.528   .     S
C1423  H1455   1.117   .     S
C1423  O1476   1.413   .     S
C1423  H1642   1.113   1_455 S
C1424  H1458   1.112   .     S
C1424  C1425   1.527   .     S
C1424  H1457   1.112   .     S
C1425  H1459   1.111   .     S
C1425  H1461   1.110   .     S
C1425  H902    1.110   1_565 S
C1426  C1427   1.422   .     A
C1426  C581    1.416   1_556 S
C1426  C591    1.425   1_556 S
C1427  C1431   1.410   .     A
C1429  C1430   1.390   .     A
C1429  C573    1.399   1_556 S
C1429  C591    1.424   1_556 S
C1430  C1431   1.382   .     A
C1430  H1454   1.084   .     S
C1431  H1466   1.081   .     S
H1434  C1507   1.112   .     S
H1438  C1508   1.111   .     S
H1441  C859    1.112   1_565 S
H1447  C1513   1.111   .     S
H1449  C1514   1.111   .     S
H1451  C1608   1.111   1_455 S
H1456  C1516   1.113   .     S
H1462  C573    1.084   1_556 S
O1468  Zn1488  1.928   .     S
O1468  Zn1485  1.959   .     S
O1468  Zn1486  1.949   .     S
O1468  Zn1487  1.933   .     S
O1469  Zn1486  1.924   .     S
O1470  Zn1488  1.936   .     S
O1471  Zn1487  1.932   .     S
O1472  Zn1485  1.920   .     S
O1473  C1495   1.390   .     S
O1474  C858    1.418   1_565 S
O1474  C846    1.402   1_565 S
O1476  C1587   1.389   1_455 S
O1477  Zn1485  1.933   .     S
O1478  Zn1488  1.934   .     S
O1479  Zn1486  1.927   .     S
O1480  Zn1487  1.940   .     S
O1481  Zn1488  1.938   .     S
O1482  Zn1485  1.926   .     S
O1483  Zn1486  1.938   .     S
O1484  Zn1487  1.932   .     S
C1489  O1572   1.264   .     A
C1489  O1574   1.270   .     A
C1489  C1495   1.438   .     S
C1490  H1556   1.078   .     S
C1490  C1504   1.393   .     A
C1490  C1521   1.410   .     A
C1491  C1503   1.386   .     A
C1491  H1525   1.083   .     S
C1491  C1504   1.397   .     A
C1492  O1575   1.274   .     A
C1492  C1494   1.465   .     S
C1492  O1573   1.285   .     A
C1493  C1505   1.401   .     A
C1493  C1520   1.415   .     A
C1493  C1502   1.471   .     S
C1494  C1588   1.351   .     S
C1494  O1662   1.389   .     S
C1496  C1499   1.453   .     S
C1496  C939    1.345   1_565 S
C1496  H978    1.088   1_565 S
C1497  C1498   1.441   .     S
C1498  O1576   1.277   .     A
C1498  O1570   1.275   .     A
C1499  O1571   1.262   .     A
C1499  O1577   1.276   .     A
C1500  C1505   1.392   .     A
C1500  C674    1.396   1_556 S
C1500  O731    1.381   1_556 S
C1501  O1564   1.270   .     A
C1501  O1562   1.281   .     A
C1501  C1504   1.451   .     S
C1502  O1565   1.281   .     A
C1502  O1563   1.282   .     A
C1505  H1557   1.084   .     S
C1506  H1560   1.111   .     S
C1506  O1566   1.417   .     S
C1506  H1526   1.118   .     S
C1506  C1600   1.531   .     S
C1507  C1508   1.526   .     S
C1507  H1528   1.110   .     S
C1508  H1529   1.111   .     S
C1508  H1530   1.109   .     S
C1509  C1510   1.537   .     S
C1509  H1533   1.112   .     S
C1509  H1532   1.111   .     S
C1510  H1535   1.109   .     S
C1510  C1512   1.527   .     S
C1511  H1558   1.077   .     S
C1512  H1537   1.111   .     S
C1512  H1539   1.110   .     S
C1512  H1538   1.111   .     S
C1513  O1568   1.415   .     S
C1513  H1541   1.118   .     S
C1513  C1514   1.532   .     S
C1514  H1543   1.111   .     S
C1515  H1545   1.110   .     S
C1515  H1546   1.111   .     S
C1515  C1607   1.526   .     S
C1515  H1637   1.111   .     S
C1516  C1517   1.528   .     S
C1516  H1548   1.117   .     S
C1516  O1569   1.413   .     S
C1517  H1551   1.112   .     S
C1517  C1518   1.527   .     S
C1517  H1550   1.112   .     S
C1518  H1552   1.111   .     S
C1518  H1554   1.110   .     S
C1518  H995    1.110   1_565 S
C1519  C1520   1.422   .     A
C1519  C674    1.416   1_556 S
C1519  C684    1.425   1_556 S
C1520  C1524   1.410   .     A
C1522  C1523   1.390   .     A
C1522  C666    1.399   1_556 S
C1522  C684    1.424   1_556 S
C1523  C1524   1.382   .     A
C1523  H1547   1.084   .     S
C1524  H1559   1.081   .     S
H1527  C1600   1.112   .     S
H1531  C1601   1.111   .     S
H1534  C952    1.112   1_565 S
H1540  C1606   1.111   .     S
H1542  C1607   1.111   .     S
H1549  C1609   1.113   .     S
H1555  C666    1.084   1_556 S
O1561  Zn1581  1.928   .     S
O1561  Zn1578  1.959   .     S
O1561  Zn1579  1.949   .     S
O1561  Zn1580  1.933   .     S
O1562  Zn1579  1.924   .     S
O1563  Zn1581  1.936   .     S
O1564  Zn1580  1.932   .     S
O1565  Zn1578  1.920   .     S
O1566  C1588   1.390   .     S
O1567  C951    1.418   1_565 S
O1567  C939    1.402   1_565 S
O1570  Zn1578  1.933   .     S
O1571  Zn1581  1.934   .     S
O1572  Zn1579  1.927   .     S
O1573  Zn1580  1.940   .     S
O1574  Zn1581  1.938   .     S
O1575  Zn1578  1.926   .     S
O1576  Zn1579  1.938   .     S
O1577  Zn1580  1.932   .     S
C1582  O1665   1.264   .     A
C1582  O1667   1.270   .     A
C1582  C1588   1.438   .     S
C1583  H1649   1.078   .     S
C1583  C1597   1.393   .     A
C1583  C1614   1.410   .     A
C1584  C1596   1.386   .     A
C1584  H1618   1.083   .     S
C1584  C1597   1.397   .     A
C1585  O1668   1.274   .     A
C1585  C1587   1.465   .     S
C1585  O1666   1.285   .     A
C1586  C1598   1.401   .     A
C1586  C1613   1.415   .     A
C1586  C1595   1.471   .     S
C1587  C1402   1.351   1_655 S
C1587  O1476   1.389   1_655 S
C1589  C1592   1.453   .     S
C1589  C1032   1.345   1_565 S
C1589  H1071   1.088   1_565 S
C1590  C1591   1.441   .     S
C1591  O1669   1.277   .     A
C1591  O1663   1.275   .     A
C1592  O1664   1.262   .     A
C1592  O1670   1.276   .     A
C1593  C1598   1.392   .     A
C1593  C767    1.396   1_556 S
C1593  O824    1.381   1_556 S
C1594  O1657   1.270   .     A
C1594  O1655   1.281   .     A
C1594  C1597   1.451   .     S
C1595  O1658   1.281   .     A
C1595  O1656   1.282   .     A
C1598  H1650   1.084   .     S
C1599  H1653   1.111   .     S
C1599  O1659   1.417   .     S
C1599  H1619   1.118   .     S
C1599  C1414   1.531   1_655 S
C1600  C1601   1.526   .     S
C1600  H1621   1.110   .     S
C1601  H1622   1.111   .     S
C1601  H1623   1.109   .     S
C1602  C1603   1.537   .     S
C1602  H1626   1.112   .     S
C1602  H1625   1.111   .     S
C1603  H1628   1.109   .     S
C1603  C1605   1.527   .     S
C1604  H1651   1.077   .     S
C1605  H1630   1.111   .     S
C1605  H1632   1.110   .     S
C1605  H1631   1.111   .     S
C1606  O1661   1.415   .     S
C1606  H1634   1.118   .     S
C1606  C1607   1.532   .     S
C1607  H1636   1.111   .     S
C1608  H1638   1.110   .     S
C1608  H1639   1.111   .     S
C1608  C1421   1.526   1_655 S
C1608  H1451   1.111   1_655 S
C1609  C1610   1.528   .     S
C1609  H1641   1.117   .     S
C1609  O1662   1.413   .     S
C1610  H1644   1.112   .     S
C1610  C1611   1.527   .     S
C1610  H1643   1.112   .     S
C1611  H1645   1.111   .     S
C1611  H1647   1.110   .     S
C1611  H1088   1.110   1_565 S
C1612  C1613   1.422   .     A
C1612  C767    1.416   1_556 S
C1612  C777    1.425   1_556 S
C1613  C1617   1.410   .     A
C1615  C1616   1.390   .     A
C1615  C759    1.399   1_556 S
C1615  C777    1.424   1_556 S
C1616  C1617   1.382   .     A
C1616  H1640   1.084   .     S
C1617  H1652   1.081   .     S
H1620  C1414   1.112   1_655 S
H1624  C1415   1.111   1_655 S
H1627  C1045   1.112   1_565 S
H1633  C1420   1.111   1_655 S
H1635  C1421   1.111   1_655 S
H1642  C1423   1.113   1_655 S
H1648  C759    1.084   1_556 S
O1654  Zn1674  1.928   .     S
O1654  Zn1671  1.959   .     S
O1654  Zn1672  1.949   .     S
O1654  Zn1673  1.933   .     S
O1655  Zn1672  1.924   .     S
O1656  Zn1674  1.936   .     S
O1657  Zn1673  1.932   .     S
O1658  Zn1671  1.920   .     S
O1659  C1402   1.390   1_655 S
O1660  C1044   1.418   1_565 S
O1660  C1032   1.402   1_565 S
O1663  Zn1671  1.933   .     S
O1664  Zn1674  1.934   .     S
O1665  Zn1672  1.927   .     S
O1666  Zn1673  1.940   .     S
O1667  Zn1674  1.938   .     S
O1668  Zn1671  1.926   .     S
O1669  Zn1672  1.938   .     S
O1670  Zn1673  1.932   .     S
