data_str_m1_o10_o16_pcu_sym.60
_audit_creation_date              2020-01-03
_audit_creation_method            'Materials Studio'
_symmetry_space_group_name_H-M    'P1'
_symmetry_Int_Tables_number       1
_symmetry_cell_setting            triclinic
loop_
_symmetry_equiv_pos_as_xyz
  x,y,z
_cell_length_a                    32.5162
_cell_length_b                    32.8008
_cell_length_c                    30.6840
_cell_angle_alpha                 96.8838
_cell_angle_beta                  75.0939
_cell_angle_gamma                 98.6846
loop_
_atom_site_label
_atom_site_type_symbol
_atom_site_fract_x
_atom_site_fract_y
_atom_site_fract_z
_atom_site_U_iso_or_equiv
_atom_site_adp_type
_atom_site_occupancy
C1     C     0.05271   0.15945   0.26000   0.00000  Uiso   1.00
C2     C     0.17755   0.16335   0.05570   0.00000  Uiso   1.00
C3     C     0.20084   0.09792   0.06104   0.00000  Uiso   1.00
C4     C     0.28076   0.17381   0.24009   0.00000  Uiso   1.00
C5     C     0.13927   0.19121   0.42113   0.00000  Uiso   1.00
C6     C     0.32655   0.17685   0.23641   0.00000  Uiso   1.00
C7     C     0.00747   0.15661   0.26364   0.00000  Uiso   1.00
C8     C     0.18003   0.32260   0.23708   0.00000  Uiso   1.00
C9     C     0.15087   0.01257   0.26472   0.00000  Uiso   1.00
C10    C     0.15604   0.05613   0.26023   0.00000  Uiso   1.00
C11    C     0.17646   0.27794   0.24031   0.00000  Uiso   1.00
C12    C     0.12249   0.23987   0.48744   0.00000  Uiso   1.00
C13    C     0.18499   0.14793   0.12905   0.00000  Uiso   1.00
C14    C     0.14793   0.18404   0.37126   0.00000  Uiso   1.00
C15    C     0.19316   0.08345   0.01833   0.00000  Uiso   1.00
C16    C     0.19132   0.13753   0.08018   0.00000  Uiso   1.00
C17    C     0.13054   0.23073   0.44082   0.00000  Uiso   1.00
C18    C     0.21952   0.07155   0.08660   0.00000  Uiso   1.00
C19    C     0.21730   0.00913   0.20192   0.00000  Uiso   1.00
C20    C     0.11235   0.33035   0.30103   0.00000  Uiso   1.00
C21    C     0.10586   0.21571   0.06536   0.00000  Uiso   1.00
C22    C     0.12696   0.21028   0.01522   0.00000  Uiso   1.00
C23    C     0.14456   0.17324   0.49438   0.00000  Uiso   1.00
C24    C     0.14288   0.16096   0.44897   0.00000  Uiso   1.00
C25    C     0.16363   0.14790   0.01639   0.00000  Uiso   1.00
C26    C     0.17107   0.10693   0.49726   0.00000  Uiso   1.00
C27    C     0.15517   0.09128   0.45857   0.00000  Uiso   1.00
C28    C     0.14181   0.11838   0.43436   0.00000  Uiso   1.00
H29    H     0.31929   0.13738   0.28859   0.00000  Uiso   1.00
H30    H     0.23737   0.03307   0.21884   0.00000  Uiso   1.00
H31    H     0.09372   0.02263   0.31840   0.00000  Uiso   1.00
H32    H     0.09025   0.30721   0.28583   0.00000  Uiso   1.00
H33    H     0.12284   0.31709   0.32743   0.00000  Uiso   1.00
H34    H     0.17658   0.03639   0.42884   0.00000  Uiso   1.00
H35    H     0.13089   0.03192   0.47319   0.00000  Uiso   1.00
H36    H     0.18725   0.02175   0.49631   0.00000  Uiso   1.00
H37    H     0.22934   0.05252   0.46354   0.00000  Uiso   1.00
H38    H     0.10198   0.18682   0.08222   0.00000  Uiso   1.00
H39    H     0.12434   0.24116   0.08228   0.00000  Uiso   1.00
H40    H     0.17589   0.19511   0.06932   0.00000  Uiso   1.00
H41    H     0.07272   0.22326   0.07048   0.00000  Uiso   1.00
H42    H     0.07859   0.27580   0.02591   0.00000  Uiso   1.00
H43    H     0.13039   0.29372   0.02601   0.00000  Uiso   1.00
H44    H     0.14311   0.08406   0.37451   0.00000  Uiso   1.00
H45    H     0.09436   0.08184   0.41141   0.00000  Uiso   1.00
H46    H     0.12844   0.25443   0.41996   0.00000  Uiso   1.00
H47    H     0.01546   0.19562   0.21143   0.00000  Uiso   1.00
H48    H     0.24899   0.08896   0.09485   0.00000  Uiso   1.00
H49    H     0.19584   0.06367   0.11849   0.00000  Uiso   1.00
H50    H     0.22818   0.04194   0.06746   0.00000  Uiso   1.00
H51    H     0.23847   0.31989   0.18177   0.00000  Uiso   1.00
H52    H     0.20489   0.02377   0.17794   0.00000  Uiso   1.00
N53    N     0.14784   0.04788   0.44521   0.00000  Uiso   1.00
N54    N     0.21113   0.04685   0.49613   0.00000  Uiso   1.00
N55    N     0.10990   0.27968   0.00578   0.00000  Uiso   1.00
N56    N     0.12199   0.10163   0.39817   0.00000  Uiso   1.00
O57    O     0.16667   0.16667   0.25000   0.00000  Uiso   1.00
O58    O     0.15451   0.12637   0.15459   0.00000  Uiso   1.00
O59    O     0.12940   0.20391   0.34968   0.00000  Uiso   1.00
O60    O     0.20824   0.17759   0.14606   0.00000  Uiso   1.00
O61    O     0.17451   0.15880   0.34968   0.00000  Uiso   1.00
O62    O     0.17930   0.08019   0.28214   0.00000  Uiso   1.00
O63    O     0.14632   0.26085   0.27014   0.00000  Uiso   1.00
O64    O     0.07412   0.13291   0.23413   0.00000  Uiso   1.00
O65    O     0.26693   0.19272   0.21361   0.00000  Uiso   1.00
O66    O     0.07071   0.18878   0.28213   0.00000  Uiso   1.00
O67    O     0.25491   0.15226   0.27014   0.00000  Uiso   1.00
O68    O     0.13760   0.06944   0.23413   0.00000  Uiso   1.00
O69    O     0.20345   0.25620   0.21361   0.00000  Uiso   1.00
Zn70   Zn    0.19338   0.13994   0.28734   0.00000  Uiso   1.00
Zn71   Zn    0.13379   0.12458   0.21876   0.00000  Uiso   1.00
Zn72   Zn    0.21056   0.19775   0.20657   0.00000  Uiso   1.00
Zn73   Zn    0.12893   0.20439   0.28734   0.00000  Uiso   1.00
C74    C     0.38604   0.15945   0.26000   0.00000  Uiso   1.00
C75    C     0.51089   0.16335   0.05570   0.00000  Uiso   1.00
C76    C     0.53418   0.09792   0.06104   0.00000  Uiso   1.00
C77    C     0.61409   0.17381   0.24009   0.00000  Uiso   1.00
C78    C     0.47260   0.19121   0.42113   0.00000  Uiso   1.00
C79    C     0.65989   0.17685   0.23641   0.00000  Uiso   1.00
C80    C     0.34080   0.15661   0.26364   0.00000  Uiso   1.00
C81    C     0.51336   0.32260   0.23708   0.00000  Uiso   1.00
C82    C     0.48420   0.01257   0.26472   0.00000  Uiso   1.00
C83    C     0.48938   0.05613   0.26023   0.00000  Uiso   1.00
C84    C     0.50979   0.27794   0.24031   0.00000  Uiso   1.00
C85    C     0.45583   0.23987   0.48744   0.00000  Uiso   1.00
C86    C     0.51833   0.14793   0.12905   0.00000  Uiso   1.00
C87    C     0.48127   0.18404   0.37126   0.00000  Uiso   1.00
C88    C     0.52649   0.08345   0.01833   0.00000  Uiso   1.00
C89    C     0.52465   0.13753   0.08018   0.00000  Uiso   1.00
C90    C     0.46387   0.23073   0.44082   0.00000  Uiso   1.00
C91    C     0.55285   0.07155   0.08660   0.00000  Uiso   1.00
C92    C     0.55064   0.00913   0.20192   0.00000  Uiso   1.00
C93    C     0.44568   0.33035   0.30103   0.00000  Uiso   1.00
C94    C     0.43919   0.21571   0.06536   0.00000  Uiso   1.00
C95    C     0.46029   0.21028   0.01522   0.00000  Uiso   1.00
C96    C     0.47790   0.17324   0.49438   0.00000  Uiso   1.00
C97    C     0.47622   0.16096   0.44897   0.00000  Uiso   1.00
C98    C     0.49697   0.14790   0.01639   0.00000  Uiso   1.00
C99    C     0.50440   0.10693   0.49726   0.00000  Uiso   1.00
C100   C     0.48851   0.09128   0.45857   0.00000  Uiso   1.00
C101   C     0.47514   0.11838   0.43436   0.00000  Uiso   1.00
H102   H     0.65262   0.13738   0.28859   0.00000  Uiso   1.00
H103   H     0.57070   0.03307   0.21884   0.00000  Uiso   1.00
H104   H     0.42706   0.02263   0.31840   0.00000  Uiso   1.00
H105   H     0.42358   0.30721   0.28583   0.00000  Uiso   1.00
H106   H     0.45618   0.31709   0.32743   0.00000  Uiso   1.00
H107   H     0.50991   0.03639   0.42884   0.00000  Uiso   1.00
H108   H     0.46423   0.03192   0.47319   0.00000  Uiso   1.00
H109   H     0.52059   0.02175   0.49631   0.00000  Uiso   1.00
H110   H     0.56268   0.05252   0.46354   0.00000  Uiso   1.00
H111   H     0.43531   0.18682   0.08222   0.00000  Uiso   1.00
H112   H     0.45767   0.24116   0.08228   0.00000  Uiso   1.00
H113   H     0.50922   0.19511   0.06932   0.00000  Uiso   1.00
H114   H     0.40605   0.22326   0.07048   0.00000  Uiso   1.00
H115   H     0.41192   0.27580   0.02591   0.00000  Uiso   1.00
H116   H     0.46372   0.29372   0.02601   0.00000  Uiso   1.00
H117   H     0.47645   0.08406   0.37451   0.00000  Uiso   1.00
H118   H     0.42769   0.08184   0.41141   0.00000  Uiso   1.00
H119   H     0.46178   0.25443   0.41996   0.00000  Uiso   1.00
H120   H     0.34879   0.19562   0.21143   0.00000  Uiso   1.00
H121   H     0.58232   0.08896   0.09485   0.00000  Uiso   1.00
H122   H     0.52918   0.06367   0.11849   0.00000  Uiso   1.00
H123   H     0.56152   0.04194   0.06746   0.00000  Uiso   1.00
H124   H     0.57181   0.31989   0.18177   0.00000  Uiso   1.00
H125   H     0.53822   0.02377   0.17794   0.00000  Uiso   1.00
N126   N     0.48117   0.04788   0.44521   0.00000  Uiso   1.00
N127   N     0.54446   0.04685   0.49613   0.00000  Uiso   1.00
N128   N     0.44323   0.27968   0.00578   0.00000  Uiso   1.00
N129   N     0.45532   0.10163   0.39817   0.00000  Uiso   1.00
O130   O     0.50000   0.16667   0.25000   0.00000  Uiso   1.00
O131   O     0.48784   0.12637   0.15459   0.00000  Uiso   1.00
O132   O     0.46274   0.20391   0.34968   0.00000  Uiso   1.00
O133   O     0.54157   0.17759   0.14606   0.00000  Uiso   1.00
O134   O     0.50785   0.15880   0.34968   0.00000  Uiso   1.00
O135   O     0.51264   0.08019   0.28214   0.00000  Uiso   1.00
O136   O     0.47965   0.26085   0.27014   0.00000  Uiso   1.00
O137   O     0.40745   0.13291   0.23413   0.00000  Uiso   1.00
O138   O     0.60026   0.19272   0.21361   0.00000  Uiso   1.00
O139   O     0.40405   0.18878   0.28213   0.00000  Uiso   1.00
O140   O     0.58824   0.15226   0.27014   0.00000  Uiso   1.00
O141   O     0.47093   0.06944   0.23413   0.00000  Uiso   1.00
O142   O     0.53678   0.25620   0.21361   0.00000  Uiso   1.00
Zn143  Zn    0.52672   0.13994   0.28734   0.00000  Uiso   1.00
Zn144  Zn    0.46713   0.12458   0.21876   0.00000  Uiso   1.00
Zn145  Zn    0.54389   0.19775   0.20657   0.00000  Uiso   1.00
Zn146  Zn    0.46226   0.20439   0.28734   0.00000  Uiso   1.00
C147   C     0.71937   0.15945   0.26000   0.00000  Uiso   1.00
C148   C     0.84422   0.16335   0.05570   0.00000  Uiso   1.00
C149   C     0.86751   0.09792   0.06104   0.00000  Uiso   1.00
C150   C     0.94742   0.17381   0.24009   0.00000  Uiso   1.00
C151   C     0.80593   0.19121   0.42113   0.00000  Uiso   1.00
C152   C     0.99322   0.17685   0.23641   0.00000  Uiso   1.00
C153   C     0.67414   0.15661   0.26364   0.00000  Uiso   1.00
C154   C     0.84669   0.32260   0.23708   0.00000  Uiso   1.00
C155   C     0.81753   0.01257   0.26472   0.00000  Uiso   1.00
C156   C     0.82271   0.05613   0.26023   0.00000  Uiso   1.00
C157   C     0.84312   0.27794   0.24031   0.00000  Uiso   1.00
C158   C     0.78916   0.23987   0.48744   0.00000  Uiso   1.00
C159   C     0.85166   0.14793   0.12905   0.00000  Uiso   1.00
C160   C     0.81460   0.18404   0.37126   0.00000  Uiso   1.00
C161   C     0.85983   0.08345   0.01833   0.00000  Uiso   1.00
C162   C     0.85799   0.13753   0.08018   0.00000  Uiso   1.00
C163   C     0.79721   0.23073   0.44082   0.00000  Uiso   1.00
C164   C     0.88619   0.07155   0.08660   0.00000  Uiso   1.00
C165   C     0.88397   0.00913   0.20192   0.00000  Uiso   1.00
C166   C     0.77901   0.33035   0.30103   0.00000  Uiso   1.00
C167   C     0.77252   0.21571   0.06536   0.00000  Uiso   1.00
C168   C     0.79362   0.21028   0.01522   0.00000  Uiso   1.00
C169   C     0.81123   0.17324   0.49438   0.00000  Uiso   1.00
C170   C     0.80955   0.16096   0.44897   0.00000  Uiso   1.00
C171   C     0.83030   0.14790   0.01639   0.00000  Uiso   1.00
C172   C     0.83774   0.10693   0.49726   0.00000  Uiso   1.00
C173   C     0.82184   0.09128   0.45857   0.00000  Uiso   1.00
C174   C     0.80848   0.11838   0.43436   0.00000  Uiso   1.00
H175   H     0.98596   0.13738   0.28859   0.00000  Uiso   1.00
H176   H     0.90404   0.03307   0.21884   0.00000  Uiso   1.00
H177   H     0.76039   0.02263   0.31840   0.00000  Uiso   1.00
H178   H     0.75692   0.30721   0.28583   0.00000  Uiso   1.00
H179   H     0.78951   0.31709   0.32743   0.00000  Uiso   1.00
H180   H     0.84324   0.03639   0.42884   0.00000  Uiso   1.00
H181   H     0.79756   0.03192   0.47319   0.00000  Uiso   1.00
H182   H     0.85392   0.02175   0.49631   0.00000  Uiso   1.00
H183   H     0.89601   0.05252   0.46354   0.00000  Uiso   1.00
H184   H     0.76864   0.18682   0.08222   0.00000  Uiso   1.00
H185   H     0.79101   0.24116   0.08228   0.00000  Uiso   1.00
H186   H     0.84255   0.19511   0.06932   0.00000  Uiso   1.00
H187   H     0.73939   0.22326   0.07048   0.00000  Uiso   1.00
H188   H     0.74525   0.27580   0.02591   0.00000  Uiso   1.00
H189   H     0.79706   0.29372   0.02601   0.00000  Uiso   1.00
H190   H     0.80978   0.08406   0.37451   0.00000  Uiso   1.00
H191   H     0.76102   0.08184   0.41141   0.00000  Uiso   1.00
H192   H     0.79511   0.25443   0.41996   0.00000  Uiso   1.00
H193   H     0.68213   0.19562   0.21143   0.00000  Uiso   1.00
H194   H     0.91565   0.08896   0.09485   0.00000  Uiso   1.00
H195   H     0.86251   0.06367   0.11849   0.00000  Uiso   1.00
H196   H     0.89485   0.04194   0.06746   0.00000  Uiso   1.00
H197   H     0.90514   0.31989   0.18177   0.00000  Uiso   1.00
H198   H     0.87156   0.02377   0.17794   0.00000  Uiso   1.00
N199   N     0.81451   0.04788   0.44521   0.00000  Uiso   1.00
N200   N     0.87780   0.04685   0.49613   0.00000  Uiso   1.00
N201   N     0.77657   0.27968   0.00578   0.00000  Uiso   1.00
N202   N     0.78866   0.10163   0.39817   0.00000  Uiso   1.00
O203   O     0.83333   0.16667   0.25000   0.00000  Uiso   1.00
O204   O     0.82118   0.12637   0.15459   0.00000  Uiso   1.00
O205   O     0.79607   0.20391   0.34968   0.00000  Uiso   1.00
O206   O     0.87491   0.17759   0.14606   0.00000  Uiso   1.00
O207   O     0.84118   0.15880   0.34968   0.00000  Uiso   1.00
O208   O     0.84597   0.08019   0.28214   0.00000  Uiso   1.00
O209   O     0.81298   0.26085   0.27014   0.00000  Uiso   1.00
O210   O     0.74078   0.13291   0.23413   0.00000  Uiso   1.00
O211   O     0.93360   0.19272   0.21361   0.00000  Uiso   1.00
O212   O     0.73738   0.18878   0.28213   0.00000  Uiso   1.00
O213   O     0.92158   0.15226   0.27014   0.00000  Uiso   1.00
O214   O     0.80426   0.06944   0.23413   0.00000  Uiso   1.00
O215   O     0.87012   0.25620   0.21361   0.00000  Uiso   1.00
Zn216  Zn    0.86005   0.13994   0.28734   0.00000  Uiso   1.00
Zn217  Zn    0.80046   0.12458   0.21876   0.00000  Uiso   1.00
Zn218  Zn    0.87723   0.19775   0.20657   0.00000  Uiso   1.00
Zn219  Zn    0.79560   0.20439   0.28734   0.00000  Uiso   1.00
C220   C     0.05271   0.49278   0.26000   0.00000  Uiso   1.00
C221   C     0.17755   0.49668   0.05570   0.00000  Uiso   1.00
C222   C     0.20084   0.43125   0.06104   0.00000  Uiso   1.00
C223   C     0.28076   0.50715   0.24009   0.00000  Uiso   1.00
C224   C     0.13927   0.52454   0.42113   0.00000  Uiso   1.00
C225   C     0.32655   0.51018   0.23641   0.00000  Uiso   1.00
C226   C     0.00747   0.48994   0.26364   0.00000  Uiso   1.00
C227   C     0.18003   0.65594   0.23708   0.00000  Uiso   1.00
C228   C     0.15087   0.34590   0.26472   0.00000  Uiso   1.00
C229   C     0.15604   0.38947   0.26023   0.00000  Uiso   1.00
C230   C     0.17646   0.61127   0.24031   0.00000  Uiso   1.00
C231   C     0.12249   0.57320   0.48744   0.00000  Uiso   1.00
C232   C     0.18499   0.48126   0.12905   0.00000  Uiso   1.00
C233   C     0.14793   0.51737   0.37126   0.00000  Uiso   1.00
C234   C     0.19316   0.41678   0.01833   0.00000  Uiso   1.00
C235   C     0.19132   0.47087   0.08018   0.00000  Uiso   1.00
C236   C     0.13054   0.56406   0.44082   0.00000  Uiso   1.00
C237   C     0.21952   0.40488   0.08660   0.00000  Uiso   1.00
C238   C     0.21730   0.34247   0.20192   0.00000  Uiso   1.00
C239   C     0.11235   0.66368   0.30103   0.00000  Uiso   1.00
C240   C     0.10586   0.54904   0.06536   0.00000  Uiso   1.00
C241   C     0.12696   0.54361   0.01522   0.00000  Uiso   1.00
C242   C     0.14456   0.50658   0.49438   0.00000  Uiso   1.00
C243   C     0.14288   0.49429   0.44897   0.00000  Uiso   1.00
C244   C     0.16363   0.48124   0.01639   0.00000  Uiso   1.00
C245   C     0.17107   0.44026   0.49726   0.00000  Uiso   1.00
C246   C     0.15517   0.42461   0.45857   0.00000  Uiso   1.00
C247   C     0.14181   0.45172   0.43436   0.00000  Uiso   1.00
H248   H     0.31929   0.47072   0.28859   0.00000  Uiso   1.00
H249   H     0.23737   0.36640   0.21884   0.00000  Uiso   1.00
H250   H     0.09372   0.35596   0.31840   0.00000  Uiso   1.00
H251   H     0.09025   0.64054   0.28583   0.00000  Uiso   1.00
H252   H     0.12284   0.65042   0.32743   0.00000  Uiso   1.00
H253   H     0.17658   0.36973   0.42884   0.00000  Uiso   1.00
H254   H     0.13089   0.36526   0.47319   0.00000  Uiso   1.00
H255   H     0.18725   0.35508   0.49631   0.00000  Uiso   1.00
H256   H     0.22934   0.38585   0.46354   0.00000  Uiso   1.00
H257   H     0.10198   0.52015   0.08222   0.00000  Uiso   1.00
H258   H     0.12434   0.57450   0.08228   0.00000  Uiso   1.00
H259   H     0.17589   0.52844   0.06932   0.00000  Uiso   1.00
H260   H     0.07272   0.55659   0.07048   0.00000  Uiso   1.00
H261   H     0.07859   0.60914   0.02591   0.00000  Uiso   1.00
H262   H     0.13039   0.62706   0.02601   0.00000  Uiso   1.00
H263   H     0.14311   0.41740   0.37451   0.00000  Uiso   1.00
H264   H     0.09436   0.41517   0.41141   0.00000  Uiso   1.00
H265   H     0.12844   0.58776   0.41996   0.00000  Uiso   1.00
H266   H     0.01546   0.52896   0.21143   0.00000  Uiso   1.00
H267   H     0.24899   0.42229   0.09485   0.00000  Uiso   1.00
H268   H     0.19584   0.39701   0.11849   0.00000  Uiso   1.00
H269   H     0.22818   0.37528   0.06746   0.00000  Uiso   1.00
H270   H     0.23847   0.65322   0.18177   0.00000  Uiso   1.00
H271   H     0.20489   0.35711   0.17794   0.00000  Uiso   1.00
N272   N     0.14784   0.38121   0.44521   0.00000  Uiso   1.00
N273   N     0.21113   0.38018   0.49613   0.00000  Uiso   1.00
N274   N     0.10990   0.61301   0.00578   0.00000  Uiso   1.00
N275   N     0.12199   0.43497   0.39817   0.00000  Uiso   1.00
O276   O     0.16667   0.50000   0.25000   0.00000  Uiso   1.00
O277   O     0.15451   0.45970   0.15459   0.00000  Uiso   1.00
O278   O     0.12940   0.53724   0.34968   0.00000  Uiso   1.00
O279   O     0.20824   0.51092   0.14606   0.00000  Uiso   1.00
O280   O     0.17451   0.49213   0.34968   0.00000  Uiso   1.00
O281   O     0.17930   0.41352   0.28214   0.00000  Uiso   1.00
O282   O     0.14632   0.59418   0.27014   0.00000  Uiso   1.00
O283   O     0.07412   0.46625   0.23413   0.00000  Uiso   1.00
O284   O     0.26693   0.52605   0.21361   0.00000  Uiso   1.00
O285   O     0.07071   0.52211   0.28213   0.00000  Uiso   1.00
O286   O     0.25491   0.48559   0.27014   0.00000  Uiso   1.00
O287   O     0.13760   0.40277   0.23413   0.00000  Uiso   1.00
O288   O     0.20345   0.58953   0.21361   0.00000  Uiso   1.00
Zn289  Zn    0.19338   0.47327   0.28734   0.00000  Uiso   1.00
Zn290  Zn    0.13379   0.45791   0.21876   0.00000  Uiso   1.00
Zn291  Zn    0.21056   0.53109   0.20657   0.00000  Uiso   1.00
Zn292  Zn    0.12893   0.53773   0.28734   0.00000  Uiso   1.00
C293   C     0.38604   0.49278   0.26000   0.00000  Uiso   1.00
C294   C     0.51089   0.49668   0.05570   0.00000  Uiso   1.00
C295   C     0.53418   0.43125   0.06104   0.00000  Uiso   1.00
C296   C     0.61409   0.50715   0.24009   0.00000  Uiso   1.00
C297   C     0.47260   0.52454   0.42113   0.00000  Uiso   1.00
C298   C     0.65989   0.51018   0.23641   0.00000  Uiso   1.00
C299   C     0.34080   0.48994   0.26364   0.00000  Uiso   1.00
C300   C     0.51336   0.65594   0.23708   0.00000  Uiso   1.00
C301   C     0.48420   0.34590   0.26472   0.00000  Uiso   1.00
C302   C     0.48938   0.38947   0.26023   0.00000  Uiso   1.00
C303   C     0.50979   0.61127   0.24031   0.00000  Uiso   1.00
C304   C     0.45583   0.57320   0.48744   0.00000  Uiso   1.00
C305   C     0.51833   0.48126   0.12905   0.00000  Uiso   1.00
C306   C     0.48127   0.51737   0.37126   0.00000  Uiso   1.00
C307   C     0.52649   0.41678   0.01833   0.00000  Uiso   1.00
C308   C     0.52465   0.47087   0.08018   0.00000  Uiso   1.00
C309   C     0.46387   0.56406   0.44082   0.00000  Uiso   1.00
C310   C     0.55285   0.40488   0.08660   0.00000  Uiso   1.00
C311   C     0.55064   0.34247   0.20192   0.00000  Uiso   1.00
C312   C     0.44568   0.66368   0.30103   0.00000  Uiso   1.00
C313   C     0.43919   0.54904   0.06536   0.00000  Uiso   1.00
C314   C     0.46029   0.54361   0.01522   0.00000  Uiso   1.00
C315   C     0.47790   0.50658   0.49438   0.00000  Uiso   1.00
C316   C     0.47622   0.49429   0.44897   0.00000  Uiso   1.00
C317   C     0.49697   0.48124   0.01639   0.00000  Uiso   1.00
C318   C     0.50440   0.44026   0.49726   0.00000  Uiso   1.00
C319   C     0.48851   0.42461   0.45857   0.00000  Uiso   1.00
C320   C     0.47514   0.45172   0.43436   0.00000  Uiso   1.00
H321   H     0.65262   0.47072   0.28859   0.00000  Uiso   1.00
H322   H     0.57070   0.36640   0.21884   0.00000  Uiso   1.00
H323   H     0.42706   0.35596   0.31840   0.00000  Uiso   1.00
H324   H     0.42358   0.64054   0.28583   0.00000  Uiso   1.00
H325   H     0.45618   0.65042   0.32743   0.00000  Uiso   1.00
H326   H     0.50991   0.36973   0.42884   0.00000  Uiso   1.00
H327   H     0.46423   0.36526   0.47319   0.00000  Uiso   1.00
H328   H     0.52059   0.35508   0.49631   0.00000  Uiso   1.00
H329   H     0.56268   0.38585   0.46354   0.00000  Uiso   1.00
H330   H     0.43531   0.52015   0.08222   0.00000  Uiso   1.00
H331   H     0.45767   0.57450   0.08228   0.00000  Uiso   1.00
H332   H     0.50922   0.52844   0.06932   0.00000  Uiso   1.00
H333   H     0.40605   0.55659   0.07048   0.00000  Uiso   1.00
H334   H     0.41192   0.60914   0.02591   0.00000  Uiso   1.00
H335   H     0.46372   0.62706   0.02601   0.00000  Uiso   1.00
H336   H     0.47645   0.41740   0.37451   0.00000  Uiso   1.00
H337   H     0.42769   0.41517   0.41141   0.00000  Uiso   1.00
H338   H     0.46178   0.58776   0.41996   0.00000  Uiso   1.00
H339   H     0.34879   0.52896   0.21143   0.00000  Uiso   1.00
H340   H     0.58232   0.42229   0.09485   0.00000  Uiso   1.00
H341   H     0.52918   0.39701   0.11849   0.00000  Uiso   1.00
H342   H     0.56152   0.37528   0.06746   0.00000  Uiso   1.00
H343   H     0.57181   0.65322   0.18177   0.00000  Uiso   1.00
H344   H     0.53822   0.35711   0.17794   0.00000  Uiso   1.00
N345   N     0.48117   0.38121   0.44521   0.00000  Uiso   1.00
N346   N     0.54446   0.38018   0.49613   0.00000  Uiso   1.00
N347   N     0.44323   0.61301   0.00578   0.00000  Uiso   1.00
N348   N     0.45532   0.43497   0.39817   0.00000  Uiso   1.00
O349   O     0.50000   0.50000   0.25000   0.00000  Uiso   1.00
O350   O     0.48784   0.45970   0.15459   0.00000  Uiso   1.00
O351   O     0.46274   0.53724   0.34968   0.00000  Uiso   1.00
O352   O     0.54157   0.51092   0.14606   0.00000  Uiso   1.00
O353   O     0.50785   0.49213   0.34968   0.00000  Uiso   1.00
O354   O     0.51264   0.41352   0.28214   0.00000  Uiso   1.00
O355   O     0.47965   0.59418   0.27014   0.00000  Uiso   1.00
O356   O     0.40745   0.46625   0.23413   0.00000  Uiso   1.00
O357   O     0.60026   0.52605   0.21361   0.00000  Uiso   1.00
O358   O     0.40405   0.52211   0.28213   0.00000  Uiso   1.00
O359   O     0.58824   0.48559   0.27014   0.00000  Uiso   1.00
O360   O     0.47093   0.40277   0.23413   0.00000  Uiso   1.00
O361   O     0.53678   0.58953   0.21361   0.00000  Uiso   1.00
Zn362  Zn    0.52672   0.47327   0.28734   0.00000  Uiso   1.00
Zn363  Zn    0.46713   0.45791   0.21876   0.00000  Uiso   1.00
Zn364  Zn    0.54389   0.53109   0.20657   0.00000  Uiso   1.00
Zn365  Zn    0.46226   0.53773   0.28734   0.00000  Uiso   1.00
C366   C     0.71937   0.49278   0.26000   0.00000  Uiso   1.00
C367   C     0.84422   0.49668   0.05570   0.00000  Uiso   1.00
C368   C     0.86751   0.43125   0.06104   0.00000  Uiso   1.00
C369   C     0.94742   0.50715   0.24009   0.00000  Uiso   1.00
C370   C     0.80593   0.52454   0.42113   0.00000  Uiso   1.00
C371   C     0.99322   0.51018   0.23641   0.00000  Uiso   1.00
C372   C     0.67414   0.48994   0.26364   0.00000  Uiso   1.00
C373   C     0.84669   0.65594   0.23708   0.00000  Uiso   1.00
C374   C     0.81753   0.34590   0.26472   0.00000  Uiso   1.00
C375   C     0.82271   0.38947   0.26023   0.00000  Uiso   1.00
C376   C     0.84312   0.61127   0.24031   0.00000  Uiso   1.00
C377   C     0.78916   0.57320   0.48744   0.00000  Uiso   1.00
C378   C     0.85166   0.48126   0.12905   0.00000  Uiso   1.00
C379   C     0.81460   0.51737   0.37126   0.00000  Uiso   1.00
C380   C     0.85983   0.41678   0.01833   0.00000  Uiso   1.00
C381   C     0.85799   0.47087   0.08018   0.00000  Uiso   1.00
C382   C     0.79721   0.56406   0.44082   0.00000  Uiso   1.00
C383   C     0.88619   0.40488   0.08660   0.00000  Uiso   1.00
C384   C     0.88397   0.34247   0.20192   0.00000  Uiso   1.00
C385   C     0.77901   0.66368   0.30103   0.00000  Uiso   1.00
C386   C     0.77252   0.54904   0.06536   0.00000  Uiso   1.00
C387   C     0.79362   0.54361   0.01522   0.00000  Uiso   1.00
C388   C     0.81123   0.50658   0.49438   0.00000  Uiso   1.00
C389   C     0.80955   0.49429   0.44897   0.00000  Uiso   1.00
C390   C     0.83030   0.48124   0.01639   0.00000  Uiso   1.00
C391   C     0.83774   0.44026   0.49726   0.00000  Uiso   1.00
C392   C     0.82184   0.42461   0.45857   0.00000  Uiso   1.00
C393   C     0.80848   0.45172   0.43436   0.00000  Uiso   1.00
H394   H     0.98596   0.47072   0.28859   0.00000  Uiso   1.00
H395   H     0.90404   0.36640   0.21884   0.00000  Uiso   1.00
H396   H     0.76039   0.35596   0.31840   0.00000  Uiso   1.00
H397   H     0.75692   0.64054   0.28583   0.00000  Uiso   1.00
H398   H     0.78951   0.65042   0.32743   0.00000  Uiso   1.00
H399   H     0.84324   0.36973   0.42884   0.00000  Uiso   1.00
H400   H     0.79756   0.36526   0.47319   0.00000  Uiso   1.00
H401   H     0.85392   0.35508   0.49631   0.00000  Uiso   1.00
H402   H     0.89601   0.38585   0.46354   0.00000  Uiso   1.00
H403   H     0.76864   0.52015   0.08222   0.00000  Uiso   1.00
H404   H     0.79101   0.57450   0.08228   0.00000  Uiso   1.00
H405   H     0.84255   0.52844   0.06932   0.00000  Uiso   1.00
H406   H     0.73939   0.55659   0.07048   0.00000  Uiso   1.00
H407   H     0.74525   0.60914   0.02591   0.00000  Uiso   1.00
H408   H     0.79706   0.62706   0.02601   0.00000  Uiso   1.00
H409   H     0.80978   0.41740   0.37451   0.00000  Uiso   1.00
H410   H     0.76102   0.41517   0.41141   0.00000  Uiso   1.00
H411   H     0.79511   0.58776   0.41996   0.00000  Uiso   1.00
H412   H     0.68213   0.52896   0.21143   0.00000  Uiso   1.00
H413   H     0.91565   0.42229   0.09485   0.00000  Uiso   1.00
H414   H     0.86251   0.39701   0.11849   0.00000  Uiso   1.00
H415   H     0.89485   0.37528   0.06746   0.00000  Uiso   1.00
H416   H     0.90514   0.65322   0.18177   0.00000  Uiso   1.00
H417   H     0.87156   0.35711   0.17794   0.00000  Uiso   1.00
N418   N     0.81451   0.38121   0.44521   0.00000  Uiso   1.00
N419   N     0.87780   0.38018   0.49613   0.00000  Uiso   1.00
N420   N     0.77657   0.61301   0.00578   0.00000  Uiso   1.00
N421   N     0.78866   0.43497   0.39817   0.00000  Uiso   1.00
O422   O     0.83333   0.50000   0.25000   0.00000  Uiso   1.00
O423   O     0.82118   0.45970   0.15459   0.00000  Uiso   1.00
O424   O     0.79607   0.53724   0.34968   0.00000  Uiso   1.00
O425   O     0.87491   0.51092   0.14606   0.00000  Uiso   1.00
O426   O     0.84118   0.49213   0.34968   0.00000  Uiso   1.00
O427   O     0.84597   0.41352   0.28214   0.00000  Uiso   1.00
O428   O     0.81298   0.59418   0.27014   0.00000  Uiso   1.00
O429   O     0.74078   0.46625   0.23413   0.00000  Uiso   1.00
O430   O     0.93360   0.52605   0.21361   0.00000  Uiso   1.00
O431   O     0.73738   0.52211   0.28213   0.00000  Uiso   1.00
O432   O     0.92158   0.48559   0.27014   0.00000  Uiso   1.00
O433   O     0.80426   0.40277   0.23413   0.00000  Uiso   1.00
O434   O     0.87012   0.58953   0.21361   0.00000  Uiso   1.00
Zn435  Zn    0.86005   0.47327   0.28734   0.00000  Uiso   1.00
Zn436  Zn    0.80046   0.45791   0.21876   0.00000  Uiso   1.00
Zn437  Zn    0.87723   0.53109   0.20657   0.00000  Uiso   1.00
Zn438  Zn    0.79560   0.53773   0.28734   0.00000  Uiso   1.00
C439   C     0.05271   0.82611   0.26000   0.00000  Uiso   1.00
C440   C     0.17755   0.83002   0.05570   0.00000  Uiso   1.00
C441   C     0.20084   0.76458   0.06104   0.00000  Uiso   1.00
C442   C     0.28076   0.84048   0.24009   0.00000  Uiso   1.00
C443   C     0.13927   0.85788   0.42113   0.00000  Uiso   1.00
C444   C     0.32655   0.84352   0.23641   0.00000  Uiso   1.00
C445   C     0.00747   0.82328   0.26364   0.00000  Uiso   1.00
C446   C     0.18003   0.98927   0.23708   0.00000  Uiso   1.00
C447   C     0.15087   0.67924   0.26472   0.00000  Uiso   1.00
C448   C     0.15604   0.72280   0.26023   0.00000  Uiso   1.00
C449   C     0.17646   0.94461   0.24031   0.00000  Uiso   1.00
C450   C     0.12249   0.90654   0.48744   0.00000  Uiso   1.00
C451   C     0.18499   0.81459   0.12905   0.00000  Uiso   1.00
C452   C     0.14793   0.85070   0.37126   0.00000  Uiso   1.00
C453   C     0.19316   0.75011   0.01833   0.00000  Uiso   1.00
C454   C     0.19132   0.80420   0.08018   0.00000  Uiso   1.00
C455   C     0.13054   0.89740   0.44082   0.00000  Uiso   1.00
C456   C     0.21952   0.73821   0.08660   0.00000  Uiso   1.00
C457   C     0.21730   0.67580   0.20192   0.00000  Uiso   1.00
C458   C     0.11235   0.99702   0.30103   0.00000  Uiso   1.00
C459   C     0.10586   0.88238   0.06536   0.00000  Uiso   1.00
C460   C     0.12696   0.87694   0.01522   0.00000  Uiso   1.00
C461   C     0.14456   0.83991   0.49438   0.00000  Uiso   1.00
C462   C     0.14288   0.82762   0.44897   0.00000  Uiso   1.00
C463   C     0.16363   0.81457   0.01639   0.00000  Uiso   1.00
C464   C     0.17107   0.77360   0.49726   0.00000  Uiso   1.00
C465   C     0.15517   0.75795   0.45857   0.00000  Uiso   1.00
C466   C     0.14181   0.78505   0.43436   0.00000  Uiso   1.00
H467   H     0.31929   0.80405   0.28859   0.00000  Uiso   1.00
H468   H     0.23737   0.69973   0.21884   0.00000  Uiso   1.00
H469   H     0.09372   0.68929   0.31840   0.00000  Uiso   1.00
H470   H     0.09025   0.97387   0.28583   0.00000  Uiso   1.00
H471   H     0.12284   0.98376   0.32743   0.00000  Uiso   1.00
H472   H     0.17658   0.70306   0.42884   0.00000  Uiso   1.00
H473   H     0.13089   0.69859   0.47319   0.00000  Uiso   1.00
H474   H     0.18725   0.68841   0.49631   0.00000  Uiso   1.00
H475   H     0.22934   0.71918   0.46354   0.00000  Uiso   1.00
H476   H     0.10198   0.85348   0.08222   0.00000  Uiso   1.00
H477   H     0.12434   0.90783   0.08228   0.00000  Uiso   1.00
H478   H     0.17589   0.86177   0.06932   0.00000  Uiso   1.00
H479   H     0.07272   0.88992   0.07048   0.00000  Uiso   1.00
H480   H     0.07859   0.94247   0.02591   0.00000  Uiso   1.00
H481   H     0.13039   0.96039   0.02601   0.00000  Uiso   1.00
H482   H     0.14311   0.75073   0.37451   0.00000  Uiso   1.00
H483   H     0.09436   0.74850   0.41141   0.00000  Uiso   1.00
H484   H     0.12844   0.92109   0.41996   0.00000  Uiso   1.00
H485   H     0.01546   0.86229   0.21143   0.00000  Uiso   1.00
H486   H     0.24899   0.75562   0.09485   0.00000  Uiso   1.00
H487   H     0.19584   0.73034   0.11849   0.00000  Uiso   1.00
H488   H     0.22818   0.70861   0.06746   0.00000  Uiso   1.00
H489   H     0.23847   0.98655   0.18177   0.00000  Uiso   1.00
H490   H     0.20489   0.69044   0.17794   0.00000  Uiso   1.00
N491   N     0.14784   0.71454   0.44521   0.00000  Uiso   1.00
N492   N     0.21113   0.71351   0.49613   0.00000  Uiso   1.00
N493   N     0.10990   0.94635   0.00578   0.00000  Uiso   1.00
N494   N     0.12199   0.76830   0.39817   0.00000  Uiso   1.00
O495   O     0.16667   0.83333   0.25000   0.00000  Uiso   1.00
O496   O     0.15451   0.79304   0.15459   0.00000  Uiso   1.00
O497   O     0.12940   0.87058   0.34968   0.00000  Uiso   1.00
O498   O     0.20824   0.84425   0.14606   0.00000  Uiso   1.00
O499   O     0.17451   0.82546   0.34968   0.00000  Uiso   1.00
O500   O     0.17930   0.74686   0.28214   0.00000  Uiso   1.00
O501   O     0.14632   0.92751   0.27014   0.00000  Uiso   1.00
O502   O     0.07412   0.79958   0.23413   0.00000  Uiso   1.00
O503   O     0.26693   0.85939   0.21361   0.00000  Uiso   1.00
O504   O     0.07071   0.85544   0.28213   0.00000  Uiso   1.00
O505   O     0.25491   0.81892   0.27014   0.00000  Uiso   1.00
O506   O     0.13760   0.73610   0.23413   0.00000  Uiso   1.00
O507   O     0.20345   0.92286   0.21361   0.00000  Uiso   1.00
Zn508  Zn    0.19338   0.80661   0.28734   0.00000  Uiso   1.00
Zn509  Zn    0.13379   0.79124   0.21876   0.00000  Uiso   1.00
Zn510  Zn    0.21056   0.86442   0.20657   0.00000  Uiso   1.00
Zn511  Zn    0.12893   0.87106   0.28734   0.00000  Uiso   1.00
C512   C     0.38604   0.82611   0.26000   0.00000  Uiso   1.00
C513   C     0.51089   0.83002   0.05570   0.00000  Uiso   1.00
C514   C     0.53418   0.76458   0.06104   0.00000  Uiso   1.00
C515   C     0.61409   0.84048   0.24009   0.00000  Uiso   1.00
C516   C     0.47260   0.85788   0.42113   0.00000  Uiso   1.00
C517   C     0.65989   0.84352   0.23641   0.00000  Uiso   1.00
C518   C     0.34080   0.82328   0.26364   0.00000  Uiso   1.00
C519   C     0.51336   0.98927   0.23708   0.00000  Uiso   1.00
C520   C     0.48420   0.67924   0.26472   0.00000  Uiso   1.00
C521   C     0.48938   0.72280   0.26023   0.00000  Uiso   1.00
C522   C     0.50979   0.94461   0.24031   0.00000  Uiso   1.00
C523   C     0.45583   0.90654   0.48744   0.00000  Uiso   1.00
C524   C     0.51833   0.81459   0.12905   0.00000  Uiso   1.00
C525   C     0.48127   0.85070   0.37126   0.00000  Uiso   1.00
C526   C     0.52649   0.75011   0.01833   0.00000  Uiso   1.00
C527   C     0.52465   0.80420   0.08018   0.00000  Uiso   1.00
C528   C     0.46387   0.89740   0.44082   0.00000  Uiso   1.00
C529   C     0.55285   0.73821   0.08660   0.00000  Uiso   1.00
C530   C     0.55064   0.67580   0.20192   0.00000  Uiso   1.00
C531   C     0.44568   0.99702   0.30103   0.00000  Uiso   1.00
C532   C     0.43919   0.88238   0.06536   0.00000  Uiso   1.00
C533   C     0.46029   0.87694   0.01522   0.00000  Uiso   1.00
C534   C     0.47790   0.83991   0.49438   0.00000  Uiso   1.00
C535   C     0.47622   0.82762   0.44897   0.00000  Uiso   1.00
C536   C     0.49697   0.81457   0.01639   0.00000  Uiso   1.00
C537   C     0.50440   0.77360   0.49726   0.00000  Uiso   1.00
C538   C     0.48851   0.75795   0.45857   0.00000  Uiso   1.00
C539   C     0.47514   0.78505   0.43436   0.00000  Uiso   1.00
H540   H     0.65262   0.80405   0.28859   0.00000  Uiso   1.00
H541   H     0.57070   0.69973   0.21884   0.00000  Uiso   1.00
H542   H     0.42706   0.68929   0.31840   0.00000  Uiso   1.00
H543   H     0.42358   0.97387   0.28583   0.00000  Uiso   1.00
H544   H     0.45618   0.98376   0.32743   0.00000  Uiso   1.00
H545   H     0.50991   0.70306   0.42884   0.00000  Uiso   1.00
H546   H     0.46423   0.69859   0.47319   0.00000  Uiso   1.00
H547   H     0.52059   0.68841   0.49631   0.00000  Uiso   1.00
H548   H     0.56268   0.71918   0.46354   0.00000  Uiso   1.00
H549   H     0.43531   0.85348   0.08222   0.00000  Uiso   1.00
H550   H     0.45767   0.90783   0.08228   0.00000  Uiso   1.00
H551   H     0.50922   0.86177   0.06932   0.00000  Uiso   1.00
H552   H     0.40605   0.88992   0.07048   0.00000  Uiso   1.00
H553   H     0.41192   0.94247   0.02591   0.00000  Uiso   1.00
H554   H     0.46372   0.96039   0.02601   0.00000  Uiso   1.00
H555   H     0.47645   0.75073   0.37451   0.00000  Uiso   1.00
H556   H     0.42769   0.74850   0.41141   0.00000  Uiso   1.00
H557   H     0.46178   0.92109   0.41996   0.00000  Uiso   1.00
H558   H     0.34879   0.86229   0.21143   0.00000  Uiso   1.00
H559   H     0.58232   0.75562   0.09485   0.00000  Uiso   1.00
H560   H     0.52918   0.73034   0.11849   0.00000  Uiso   1.00
H561   H     0.56152   0.70861   0.06746   0.00000  Uiso   1.00
H562   H     0.57181   0.98655   0.18177   0.00000  Uiso   1.00
H563   H     0.53822   0.69044   0.17794   0.00000  Uiso   1.00
N564   N     0.48117   0.71454   0.44521   0.00000  Uiso   1.00
N565   N     0.54446   0.71351   0.49613   0.00000  Uiso   1.00
N566   N     0.44323   0.94635   0.00578   0.00000  Uiso   1.00
N567   N     0.45532   0.76830   0.39817   0.00000  Uiso   1.00
O568   O     0.50000   0.83333   0.25000   0.00000  Uiso   1.00
O569   O     0.48784   0.79304   0.15459   0.00000  Uiso   1.00
O570   O     0.46274   0.87058   0.34968   0.00000  Uiso   1.00
O571   O     0.54157   0.84425   0.14606   0.00000  Uiso   1.00
O572   O     0.50785   0.82546   0.34968   0.00000  Uiso   1.00
O573   O     0.51264   0.74686   0.28214   0.00000  Uiso   1.00
O574   O     0.47965   0.92751   0.27014   0.00000  Uiso   1.00
O575   O     0.40745   0.79958   0.23413   0.00000  Uiso   1.00
O576   O     0.60026   0.85939   0.21361   0.00000  Uiso   1.00
O577   O     0.40405   0.85544   0.28213   0.00000  Uiso   1.00
O578   O     0.58824   0.81892   0.27014   0.00000  Uiso   1.00
O579   O     0.47093   0.73610   0.23413   0.00000  Uiso   1.00
O580   O     0.53678   0.92286   0.21361   0.00000  Uiso   1.00
Zn581  Zn    0.52672   0.80661   0.28734   0.00000  Uiso   1.00
Zn582  Zn    0.46713   0.79124   0.21876   0.00000  Uiso   1.00
Zn583  Zn    0.54389   0.86442   0.20657   0.00000  Uiso   1.00
Zn584  Zn    0.46226   0.87106   0.28734   0.00000  Uiso   1.00
C585   C     0.71937   0.82611   0.26000   0.00000  Uiso   1.00
C586   C     0.84422   0.83002   0.05570   0.00000  Uiso   1.00
C587   C     0.86751   0.76458   0.06104   0.00000  Uiso   1.00
C588   C     0.94742   0.84048   0.24009   0.00000  Uiso   1.00
C589   C     0.80593   0.85788   0.42113   0.00000  Uiso   1.00
C590   C     0.99322   0.84352   0.23641   0.00000  Uiso   1.00
C591   C     0.67414   0.82328   0.26364   0.00000  Uiso   1.00
C592   C     0.84669   0.98927   0.23708   0.00000  Uiso   1.00
C593   C     0.81753   0.67924   0.26472   0.00000  Uiso   1.00
C594   C     0.82271   0.72280   0.26023   0.00000  Uiso   1.00
C595   C     0.84312   0.94461   0.24031   0.00000  Uiso   1.00
C596   C     0.78916   0.90654   0.48744   0.00000  Uiso   1.00
C597   C     0.85166   0.81459   0.12905   0.00000  Uiso   1.00
C598   C     0.81460   0.85070   0.37126   0.00000  Uiso   1.00
C599   C     0.85983   0.75011   0.01833   0.00000  Uiso   1.00
C600   C     0.85799   0.80420   0.08018   0.00000  Uiso   1.00
C601   C     0.79721   0.89740   0.44082   0.00000  Uiso   1.00
C602   C     0.88619   0.73821   0.08660   0.00000  Uiso   1.00
C603   C     0.88397   0.67580   0.20192   0.00000  Uiso   1.00
C604   C     0.77901   0.99702   0.30103   0.00000  Uiso   1.00
C605   C     0.77252   0.88238   0.06536   0.00000  Uiso   1.00
C606   C     0.79362   0.87694   0.01522   0.00000  Uiso   1.00
C607   C     0.81123   0.83991   0.49438   0.00000  Uiso   1.00
C608   C     0.80955   0.82762   0.44897   0.00000  Uiso   1.00
C609   C     0.83030   0.81457   0.01639   0.00000  Uiso   1.00
C610   C     0.83774   0.77360   0.49726   0.00000  Uiso   1.00
C611   C     0.82184   0.75795   0.45857   0.00000  Uiso   1.00
C612   C     0.80848   0.78505   0.43436   0.00000  Uiso   1.00
H613   H     0.98596   0.80405   0.28859   0.00000  Uiso   1.00
H614   H     0.90404   0.69973   0.21884   0.00000  Uiso   1.00
H615   H     0.76039   0.68929   0.31840   0.00000  Uiso   1.00
H616   H     0.75692   0.97387   0.28583   0.00000  Uiso   1.00
H617   H     0.78951   0.98376   0.32743   0.00000  Uiso   1.00
H618   H     0.84324   0.70306   0.42884   0.00000  Uiso   1.00
H619   H     0.79756   0.69859   0.47319   0.00000  Uiso   1.00
H620   H     0.85392   0.68841   0.49631   0.00000  Uiso   1.00
H621   H     0.89601   0.71918   0.46354   0.00000  Uiso   1.00
H622   H     0.76864   0.85348   0.08222   0.00000  Uiso   1.00
H623   H     0.79101   0.90783   0.08228   0.00000  Uiso   1.00
H624   H     0.84255   0.86177   0.06932   0.00000  Uiso   1.00
H625   H     0.73939   0.88992   0.07048   0.00000  Uiso   1.00
H626   H     0.74525   0.94247   0.02591   0.00000  Uiso   1.00
H627   H     0.79706   0.96039   0.02601   0.00000  Uiso   1.00
H628   H     0.80978   0.75073   0.37451   0.00000  Uiso   1.00
H629   H     0.76102   0.74850   0.41141   0.00000  Uiso   1.00
H630   H     0.79511   0.92109   0.41996   0.00000  Uiso   1.00
H631   H     0.68213   0.86229   0.21143   0.00000  Uiso   1.00
H632   H     0.91565   0.75562   0.09485   0.00000  Uiso   1.00
H633   H     0.86251   0.73034   0.11849   0.00000  Uiso   1.00
H634   H     0.89485   0.70861   0.06746   0.00000  Uiso   1.00
H635   H     0.90514   0.98655   0.18177   0.00000  Uiso   1.00
H636   H     0.87156   0.69044   0.17794   0.00000  Uiso   1.00
N637   N     0.81451   0.71454   0.44521   0.00000  Uiso   1.00
N638   N     0.87780   0.71351   0.49613   0.00000  Uiso   1.00
N639   N     0.77657   0.94635   0.00578   0.00000  Uiso   1.00
N640   N     0.78866   0.76830   0.39817   0.00000  Uiso   1.00
O641   O     0.83333   0.83333   0.25000   0.00000  Uiso   1.00
O642   O     0.82118   0.79304   0.15459   0.00000  Uiso   1.00
O643   O     0.79607   0.87058   0.34968   0.00000  Uiso   1.00
O644   O     0.87491   0.84425   0.14606   0.00000  Uiso   1.00
O645   O     0.84118   0.82546   0.34968   0.00000  Uiso   1.00
O646   O     0.84597   0.74686   0.28214   0.00000  Uiso   1.00
O647   O     0.81298   0.92751   0.27014   0.00000  Uiso   1.00
O648   O     0.74078   0.79958   0.23413   0.00000  Uiso   1.00
O649   O     0.93360   0.85939   0.21361   0.00000  Uiso   1.00
O650   O     0.73738   0.85544   0.28213   0.00000  Uiso   1.00
O651   O     0.92158   0.81892   0.27014   0.00000  Uiso   1.00
O652   O     0.80426   0.73610   0.23413   0.00000  Uiso   1.00
O653   O     0.87012   0.92286   0.21361   0.00000  Uiso   1.00
Zn654  Zn    0.86005   0.80661   0.28734   0.00000  Uiso   1.00
Zn655  Zn    0.80046   0.79124   0.21876   0.00000  Uiso   1.00
Zn656  Zn    0.87723   0.86442   0.20657   0.00000  Uiso   1.00
Zn657  Zn    0.79560   0.87106   0.28734   0.00000  Uiso   1.00
C658   C     0.05271   0.15945   0.76000   0.00000  Uiso   1.00
C659   C     0.17755   0.16335   0.55570   0.00000  Uiso   1.00
C660   C     0.20084   0.09792   0.56104   0.00000  Uiso   1.00
C661   C     0.28076   0.17381   0.74009   0.00000  Uiso   1.00
C662   C     0.13927   0.19121   0.92113   0.00000  Uiso   1.00
C663   C     0.32655   0.17685   0.73641   0.00000  Uiso   1.00
C664   C     0.00747   0.15661   0.76364   0.00000  Uiso   1.00
C665   C     0.18003   0.32260   0.73708   0.00000  Uiso   1.00
C666   C     0.15087   0.01257   0.76472   0.00000  Uiso   1.00
C667   C     0.15604   0.05613   0.76023   0.00000  Uiso   1.00
C668   C     0.17646   0.27794   0.74031   0.00000  Uiso   1.00
C669   C     0.12249   0.23987   0.98744   0.00000  Uiso   1.00
C670   C     0.18499   0.14793   0.62905   0.00000  Uiso   1.00
C671   C     0.14793   0.18404   0.87126   0.00000  Uiso   1.00
C672   C     0.19316   0.08345   0.51833   0.00000  Uiso   1.00
C673   C     0.19132   0.13753   0.58018   0.00000  Uiso   1.00
C674   C     0.13054   0.23073   0.94082   0.00000  Uiso   1.00
C675   C     0.21952   0.07155   0.58660   0.00000  Uiso   1.00
C676   C     0.21730   0.00913   0.70192   0.00000  Uiso   1.00
C677   C     0.11235   0.33035   0.80103   0.00000  Uiso   1.00
C678   C     0.10586   0.21571   0.56536   0.00000  Uiso   1.00
C679   C     0.12696   0.21028   0.51522   0.00000  Uiso   1.00
C680   C     0.14456   0.17324   0.99438   0.00000  Uiso   1.00
C681   C     0.14288   0.16096   0.94897   0.00000  Uiso   1.00
C682   C     0.16363   0.14790   0.51639   0.00000  Uiso   1.00
C683   C     0.17107   0.10693   0.99726   0.00000  Uiso   1.00
C684   C     0.15517   0.09128   0.95857   0.00000  Uiso   1.00
C685   C     0.14181   0.11838   0.93436   0.00000  Uiso   1.00
H686   H     0.31929   0.13738   0.78859   0.00000  Uiso   1.00
H687   H     0.23737   0.03307   0.71884   0.00000  Uiso   1.00
H688   H     0.09372   0.02263   0.81840   0.00000  Uiso   1.00
H689   H     0.09025   0.30721   0.78583   0.00000  Uiso   1.00
H690   H     0.12284   0.31709   0.82743   0.00000  Uiso   1.00
H691   H     0.17658   0.03639   0.92884   0.00000  Uiso   1.00
H692   H     0.13089   0.03192   0.97319   0.00000  Uiso   1.00
H693   H     0.18725   0.02175   0.99631   0.00000  Uiso   1.00
H694   H     0.22934   0.05252   0.96354   0.00000  Uiso   1.00
H695   H     0.10198   0.18682   0.58222   0.00000  Uiso   1.00
H696   H     0.12434   0.24116   0.58228   0.00000  Uiso   1.00
H697   H     0.17589   0.19511   0.56932   0.00000  Uiso   1.00
H698   H     0.07272   0.22326   0.57048   0.00000  Uiso   1.00
H699   H     0.07859   0.27580   0.52591   0.00000  Uiso   1.00
H700   H     0.13039   0.29372   0.52601   0.00000  Uiso   1.00
H701   H     0.14311   0.08406   0.87451   0.00000  Uiso   1.00
H702   H     0.09436   0.08184   0.91141   0.00000  Uiso   1.00
H703   H     0.12844   0.25443   0.91996   0.00000  Uiso   1.00
H704   H     0.01546   0.19562   0.71143   0.00000  Uiso   1.00
H705   H     0.24899   0.08896   0.59485   0.00000  Uiso   1.00
H706   H     0.19584   0.06367   0.61849   0.00000  Uiso   1.00
H707   H     0.22818   0.04194   0.56746   0.00000  Uiso   1.00
H708   H     0.23847   0.31989   0.68177   0.00000  Uiso   1.00
H709   H     0.20489   0.02377   0.67794   0.00000  Uiso   1.00
N710   N     0.14784   0.04788   0.94521   0.00000  Uiso   1.00
N711   N     0.21113   0.04685   0.99613   0.00000  Uiso   1.00
N712   N     0.10990   0.27968   0.50578   0.00000  Uiso   1.00
N713   N     0.12199   0.10163   0.89817   0.00000  Uiso   1.00
O714   O     0.16667   0.16667   0.75000   0.00000  Uiso   1.00
O715   O     0.15451   0.12637   0.65459   0.00000  Uiso   1.00
O716   O     0.12940   0.20391   0.84968   0.00000  Uiso   1.00
O717   O     0.20824   0.17759   0.64606   0.00000  Uiso   1.00
O718   O     0.17451   0.15880   0.84968   0.00000  Uiso   1.00
O719   O     0.17930   0.08019   0.78214   0.00000  Uiso   1.00
O720   O     0.14632   0.26085   0.77014   0.00000  Uiso   1.00
O721   O     0.07412   0.13291   0.73413   0.00000  Uiso   1.00
O722   O     0.26693   0.19272   0.71361   0.00000  Uiso   1.00
O723   O     0.07071   0.18878   0.78213   0.00000  Uiso   1.00
O724   O     0.25491   0.15226   0.77014   0.00000  Uiso   1.00
O725   O     0.13760   0.06944   0.73413   0.00000  Uiso   1.00
O726   O     0.20345   0.25620   0.71361   0.00000  Uiso   1.00
Zn727  Zn    0.19338   0.13994   0.78734   0.00000  Uiso   1.00
Zn728  Zn    0.13379   0.12458   0.71876   0.00000  Uiso   1.00
Zn729  Zn    0.21056   0.19775   0.70657   0.00000  Uiso   1.00
Zn730  Zn    0.12893   0.20439   0.78734   0.00000  Uiso   1.00
C731   C     0.38604   0.15945   0.76000   0.00000  Uiso   1.00
C732   C     0.51089   0.16335   0.55570   0.00000  Uiso   1.00
C733   C     0.53418   0.09792   0.56104   0.00000  Uiso   1.00
C734   C     0.61409   0.17381   0.74009   0.00000  Uiso   1.00
C735   C     0.47260   0.19121   0.92113   0.00000  Uiso   1.00
C736   C     0.65989   0.17685   0.73641   0.00000  Uiso   1.00
C737   C     0.34080   0.15661   0.76364   0.00000  Uiso   1.00
C738   C     0.51336   0.32260   0.73708   0.00000  Uiso   1.00
C739   C     0.48420   0.01257   0.76472   0.00000  Uiso   1.00
C740   C     0.48938   0.05613   0.76023   0.00000  Uiso   1.00
C741   C     0.50979   0.27794   0.74031   0.00000  Uiso   1.00
C742   C     0.45583   0.23987   0.98744   0.00000  Uiso   1.00
C743   C     0.51833   0.14793   0.62905   0.00000  Uiso   1.00
C744   C     0.48127   0.18404   0.87126   0.00000  Uiso   1.00
C745   C     0.52649   0.08345   0.51833   0.00000  Uiso   1.00
C746   C     0.52465   0.13753   0.58018   0.00000  Uiso   1.00
C747   C     0.46387   0.23073   0.94082   0.00000  Uiso   1.00
C748   C     0.55285   0.07155   0.58660   0.00000  Uiso   1.00
C749   C     0.55064   0.00913   0.70192   0.00000  Uiso   1.00
C750   C     0.44568   0.33035   0.80103   0.00000  Uiso   1.00
C751   C     0.43919   0.21571   0.56536   0.00000  Uiso   1.00
C752   C     0.46029   0.21028   0.51522   0.00000  Uiso   1.00
C753   C     0.47790   0.17324   0.99438   0.00000  Uiso   1.00
C754   C     0.47622   0.16096   0.94897   0.00000  Uiso   1.00
C755   C     0.49697   0.14790   0.51639   0.00000  Uiso   1.00
C756   C     0.50440   0.10693   0.99726   0.00000  Uiso   1.00
C757   C     0.48851   0.09128   0.95857   0.00000  Uiso   1.00
C758   C     0.47514   0.11838   0.93436   0.00000  Uiso   1.00
H759   H     0.65262   0.13738   0.78859   0.00000  Uiso   1.00
H760   H     0.57070   0.03307   0.71884   0.00000  Uiso   1.00
H761   H     0.42706   0.02263   0.81840   0.00000  Uiso   1.00
H762   H     0.42358   0.30721   0.78583   0.00000  Uiso   1.00
H763   H     0.45618   0.31709   0.82743   0.00000  Uiso   1.00
H764   H     0.50991   0.03639   0.92884   0.00000  Uiso   1.00
H765   H     0.46423   0.03192   0.97319   0.00000  Uiso   1.00
H766   H     0.52059   0.02175   0.99631   0.00000  Uiso   1.00
H767   H     0.56268   0.05252   0.96354   0.00000  Uiso   1.00
H768   H     0.43531   0.18682   0.58222   0.00000  Uiso   1.00
H769   H     0.45767   0.24116   0.58228   0.00000  Uiso   1.00
H770   H     0.50922   0.19511   0.56932   0.00000  Uiso   1.00
H771   H     0.40605   0.22326   0.57048   0.00000  Uiso   1.00
H772   H     0.41192   0.27580   0.52591   0.00000  Uiso   1.00
H773   H     0.46372   0.29372   0.52601   0.00000  Uiso   1.00
H774   H     0.47645   0.08406   0.87451   0.00000  Uiso   1.00
H775   H     0.42769   0.08184   0.91141   0.00000  Uiso   1.00
H776   H     0.46178   0.25443   0.91996   0.00000  Uiso   1.00
H777   H     0.34879   0.19562   0.71143   0.00000  Uiso   1.00
H778   H     0.58232   0.08896   0.59485   0.00000  Uiso   1.00
H779   H     0.52918   0.06367   0.61849   0.00000  Uiso   1.00
H780   H     0.56152   0.04194   0.56746   0.00000  Uiso   1.00
H781   H     0.57181   0.31989   0.68177   0.00000  Uiso   1.00
H782   H     0.53822   0.02377   0.67794   0.00000  Uiso   1.00
N783   N     0.48117   0.04788   0.94521   0.00000  Uiso   1.00
N784   N     0.54446   0.04685   0.99613   0.00000  Uiso   1.00
N785   N     0.44323   0.27968   0.50578   0.00000  Uiso   1.00
N786   N     0.45532   0.10163   0.89817   0.00000  Uiso   1.00
O787   O     0.50000   0.16667   0.75000   0.00000  Uiso   1.00
O788   O     0.48784   0.12637   0.65459   0.00000  Uiso   1.00
O789   O     0.46274   0.20391   0.84968   0.00000  Uiso   1.00
O790   O     0.54157   0.17759   0.64606   0.00000  Uiso   1.00
O791   O     0.50785   0.15880   0.84968   0.00000  Uiso   1.00
O792   O     0.51264   0.08019   0.78214   0.00000  Uiso   1.00
O793   O     0.47965   0.26085   0.77014   0.00000  Uiso   1.00
O794   O     0.40745   0.13291   0.73413   0.00000  Uiso   1.00
O795   O     0.60026   0.19272   0.71361   0.00000  Uiso   1.00
O796   O     0.40405   0.18878   0.78213   0.00000  Uiso   1.00
O797   O     0.58824   0.15226   0.77014   0.00000  Uiso   1.00
O798   O     0.47093   0.06944   0.73413   0.00000  Uiso   1.00
O799   O     0.53678   0.25620   0.71361   0.00000  Uiso   1.00
Zn800  Zn    0.52672   0.13994   0.78734   0.00000  Uiso   1.00
Zn801  Zn    0.46713   0.12458   0.71876   0.00000  Uiso   1.00
Zn802  Zn    0.54389   0.19775   0.70657   0.00000  Uiso   1.00
Zn803  Zn    0.46226   0.20439   0.78734   0.00000  Uiso   1.00
C804   C     0.71937   0.15945   0.76000   0.00000  Uiso   1.00
C805   C     0.84422   0.16335   0.55570   0.00000  Uiso   1.00
C806   C     0.86751   0.09792   0.56104   0.00000  Uiso   1.00
C807   C     0.94742   0.17381   0.74009   0.00000  Uiso   1.00
C808   C     0.80593   0.19121   0.92113   0.00000  Uiso   1.00
C809   C     0.99322   0.17685   0.73641   0.00000  Uiso   1.00
C810   C     0.67414   0.15661   0.76364   0.00000  Uiso   1.00
C811   C     0.84669   0.32260   0.73708   0.00000  Uiso   1.00
C812   C     0.81753   0.01257   0.76472   0.00000  Uiso   1.00
C813   C     0.82271   0.05613   0.76023   0.00000  Uiso   1.00
C814   C     0.84312   0.27794   0.74031   0.00000  Uiso   1.00
C815   C     0.78916   0.23987   0.98744   0.00000  Uiso   1.00
C816   C     0.85166   0.14793   0.62905   0.00000  Uiso   1.00
C817   C     0.81460   0.18404   0.87126   0.00000  Uiso   1.00
C818   C     0.85983   0.08345   0.51833   0.00000  Uiso   1.00
C819   C     0.85799   0.13753   0.58018   0.00000  Uiso   1.00
C820   C     0.79721   0.23073   0.94082   0.00000  Uiso   1.00
C821   C     0.88619   0.07155   0.58660   0.00000  Uiso   1.00
C822   C     0.88397   0.00913   0.70192   0.00000  Uiso   1.00
C823   C     0.77901   0.33035   0.80103   0.00000  Uiso   1.00
C824   C     0.77252   0.21571   0.56536   0.00000  Uiso   1.00
C825   C     0.79362   0.21028   0.51522   0.00000  Uiso   1.00
C826   C     0.81123   0.17324   0.99438   0.00000  Uiso   1.00
C827   C     0.80955   0.16096   0.94897   0.00000  Uiso   1.00
C828   C     0.83030   0.14790   0.51639   0.00000  Uiso   1.00
C829   C     0.83774   0.10693   0.99726   0.00000  Uiso   1.00
C830   C     0.82184   0.09128   0.95857   0.00000  Uiso   1.00
C831   C     0.80848   0.11838   0.93436   0.00000  Uiso   1.00
H832   H     0.98596   0.13738   0.78859   0.00000  Uiso   1.00
H833   H     0.90404   0.03307   0.71884   0.00000  Uiso   1.00
H834   H     0.76039   0.02263   0.81840   0.00000  Uiso   1.00
H835   H     0.75692   0.30721   0.78583   0.00000  Uiso   1.00
H836   H     0.78951   0.31709   0.82743   0.00000  Uiso   1.00
H837   H     0.84324   0.03639   0.92884   0.00000  Uiso   1.00
H838   H     0.79756   0.03192   0.97319   0.00000  Uiso   1.00
H839   H     0.85392   0.02175   0.99631   0.00000  Uiso   1.00
H840   H     0.89601   0.05252   0.96354   0.00000  Uiso   1.00
H841   H     0.76864   0.18682   0.58222   0.00000  Uiso   1.00
H842   H     0.79101   0.24116   0.58228   0.00000  Uiso   1.00
H843   H     0.84255   0.19511   0.56932   0.00000  Uiso   1.00
H844   H     0.73939   0.22326   0.57048   0.00000  Uiso   1.00
H845   H     0.74525   0.27580   0.52591   0.00000  Uiso   1.00
H846   H     0.79706   0.29372   0.52601   0.00000  Uiso   1.00
H847   H     0.80978   0.08406   0.87451   0.00000  Uiso   1.00
H848   H     0.76102   0.08184   0.91141   0.00000  Uiso   1.00
H849   H     0.79511   0.25443   0.91996   0.00000  Uiso   1.00
H850   H     0.68213   0.19562   0.71143   0.00000  Uiso   1.00
H851   H     0.91565   0.08896   0.59485   0.00000  Uiso   1.00
H852   H     0.86251   0.06367   0.61849   0.00000  Uiso   1.00
H853   H     0.89485   0.04194   0.56746   0.00000  Uiso   1.00
H854   H     0.90514   0.31989   0.68177   0.00000  Uiso   1.00
H855   H     0.87156   0.02377   0.67794   0.00000  Uiso   1.00
N856   N     0.81451   0.04788   0.94521   0.00000  Uiso   1.00
N857   N     0.87780   0.04685   0.99613   0.00000  Uiso   1.00
N858   N     0.77657   0.27968   0.50578   0.00000  Uiso   1.00
N859   N     0.78866   0.10163   0.89817   0.00000  Uiso   1.00
O860   O     0.83333   0.16667   0.75000   0.00000  Uiso   1.00
O861   O     0.82118   0.12637   0.65459   0.00000  Uiso   1.00
O862   O     0.79607   0.20391   0.84968   0.00000  Uiso   1.00
O863   O     0.87491   0.17759   0.64606   0.00000  Uiso   1.00
O864   O     0.84118   0.15880   0.84968   0.00000  Uiso   1.00
O865   O     0.84597   0.08019   0.78214   0.00000  Uiso   1.00
O866   O     0.81298   0.26085   0.77014   0.00000  Uiso   1.00
O867   O     0.74078   0.13291   0.73413   0.00000  Uiso   1.00
O868   O     0.93360   0.19272   0.71361   0.00000  Uiso   1.00
O869   O     0.73738   0.18878   0.78213   0.00000  Uiso   1.00
O870   O     0.92158   0.15226   0.77014   0.00000  Uiso   1.00
O871   O     0.80426   0.06944   0.73413   0.00000  Uiso   1.00
O872   O     0.87012   0.25620   0.71361   0.00000  Uiso   1.00
Zn873  Zn    0.86005   0.13994   0.78734   0.00000  Uiso   1.00
Zn874  Zn    0.80046   0.12458   0.71876   0.00000  Uiso   1.00
Zn875  Zn    0.87723   0.19775   0.70657   0.00000  Uiso   1.00
Zn876  Zn    0.79560   0.20439   0.78734   0.00000  Uiso   1.00
C877   C     0.05271   0.49278   0.76000   0.00000  Uiso   1.00
C878   C     0.17755   0.49668   0.55570   0.00000  Uiso   1.00
C879   C     0.20084   0.43125   0.56104   0.00000  Uiso   1.00
C880   C     0.28076   0.50715   0.74009   0.00000  Uiso   1.00
C881   C     0.13927   0.52454   0.92113   0.00000  Uiso   1.00
C882   C     0.32655   0.51018   0.73641   0.00000  Uiso   1.00
C883   C     0.00747   0.48994   0.76364   0.00000  Uiso   1.00
C884   C     0.18003   0.65594   0.73708   0.00000  Uiso   1.00
C885   C     0.15087   0.34590   0.76472   0.00000  Uiso   1.00
C886   C     0.15604   0.38947   0.76023   0.00000  Uiso   1.00
C887   C     0.17646   0.61127   0.74031   0.00000  Uiso   1.00
C888   C     0.12249   0.57320   0.98744   0.00000  Uiso   1.00
C889   C     0.18499   0.48126   0.62905   0.00000  Uiso   1.00
C890   C     0.14793   0.51737   0.87126   0.00000  Uiso   1.00
C891   C     0.19316   0.41678   0.51833   0.00000  Uiso   1.00
C892   C     0.19132   0.47087   0.58018   0.00000  Uiso   1.00
C893   C     0.13054   0.56406   0.94082   0.00000  Uiso   1.00
C894   C     0.21952   0.40488   0.58660   0.00000  Uiso   1.00
C895   C     0.21730   0.34247   0.70192   0.00000  Uiso   1.00
C896   C     0.11235   0.66368   0.80103   0.00000  Uiso   1.00
C897   C     0.10586   0.54904   0.56536   0.00000  Uiso   1.00
C898   C     0.12696   0.54361   0.51522   0.00000  Uiso   1.00
C899   C     0.14456   0.50658   0.99438   0.00000  Uiso   1.00
C900   C     0.14288   0.49429   0.94897   0.00000  Uiso   1.00
C901   C     0.16363   0.48124   0.51639   0.00000  Uiso   1.00
C902   C     0.17107   0.44026   0.99726   0.00000  Uiso   1.00
C903   C     0.15517   0.42461   0.95857   0.00000  Uiso   1.00
C904   C     0.14181   0.45172   0.93436   0.00000  Uiso   1.00
H905   H     0.31929   0.47072   0.78859   0.00000  Uiso   1.00
H906   H     0.23737   0.36640   0.71884   0.00000  Uiso   1.00
H907   H     0.09372   0.35596   0.81840   0.00000  Uiso   1.00
H908   H     0.09025   0.64054   0.78583   0.00000  Uiso   1.00
H909   H     0.12284   0.65042   0.82743   0.00000  Uiso   1.00
H910   H     0.17658   0.36973   0.92884   0.00000  Uiso   1.00
H911   H     0.13089   0.36526   0.97319   0.00000  Uiso   1.00
H912   H     0.18725   0.35508   0.99631   0.00000  Uiso   1.00
H913   H     0.22934   0.38585   0.96354   0.00000  Uiso   1.00
H914   H     0.10198   0.52015   0.58222   0.00000  Uiso   1.00
H915   H     0.12434   0.57450   0.58228   0.00000  Uiso   1.00
H916   H     0.17589   0.52844   0.56932   0.00000  Uiso   1.00
H917   H     0.07272   0.55659   0.57048   0.00000  Uiso   1.00
H918   H     0.07859   0.60914   0.52591   0.00000  Uiso   1.00
H919   H     0.13039   0.62706   0.52601   0.00000  Uiso   1.00
H920   H     0.14311   0.41740   0.87451   0.00000  Uiso   1.00
H921   H     0.09436   0.41517   0.91141   0.00000  Uiso   1.00
H922   H     0.12844   0.58776   0.91996   0.00000  Uiso   1.00
H923   H     0.01546   0.52896   0.71143   0.00000  Uiso   1.00
H924   H     0.24899   0.42229   0.59485   0.00000  Uiso   1.00
H925   H     0.19584   0.39701   0.61849   0.00000  Uiso   1.00
H926   H     0.22818   0.37528   0.56746   0.00000  Uiso   1.00
H927   H     0.23847   0.65322   0.68177   0.00000  Uiso   1.00
H928   H     0.20489   0.35711   0.67794   0.00000  Uiso   1.00
N929   N     0.14784   0.38121   0.94521   0.00000  Uiso   1.00
N930   N     0.21113   0.38018   0.99613   0.00000  Uiso   1.00
N931   N     0.10990   0.61301   0.50578   0.00000  Uiso   1.00
N932   N     0.12199   0.43497   0.89817   0.00000  Uiso   1.00
O933   O     0.16667   0.50000   0.75000   0.00000  Uiso   1.00
O934   O     0.15451   0.45970   0.65459   0.00000  Uiso   1.00
O935   O     0.12940   0.53724   0.84968   0.00000  Uiso   1.00
O936   O     0.20824   0.51092   0.64606   0.00000  Uiso   1.00
O937   O     0.17451   0.49213   0.84968   0.00000  Uiso   1.00
O938   O     0.17930   0.41352   0.78214   0.00000  Uiso   1.00
O939   O     0.14632   0.59418   0.77014   0.00000  Uiso   1.00
O940   O     0.07412   0.46625   0.73413   0.00000  Uiso   1.00
O941   O     0.26693   0.52605   0.71361   0.00000  Uiso   1.00
O942   O     0.07071   0.52211   0.78213   0.00000  Uiso   1.00
O943   O     0.25491   0.48559   0.77014   0.00000  Uiso   1.00
O944   O     0.13760   0.40277   0.73413   0.00000  Uiso   1.00
O945   O     0.20345   0.58953   0.71361   0.00000  Uiso   1.00
Zn946  Zn    0.19338   0.47327   0.78734   0.00000  Uiso   1.00
Zn947  Zn    0.13379   0.45791   0.71876   0.00000  Uiso   1.00
Zn948  Zn    0.21056   0.53109   0.70657   0.00000  Uiso   1.00
Zn949  Zn    0.12893   0.53773   0.78734   0.00000  Uiso   1.00
C950   C     0.38604   0.49278   0.76000   0.00000  Uiso   1.00
C951   C     0.51089   0.49668   0.55570   0.00000  Uiso   1.00
C952   C     0.53418   0.43125   0.56104   0.00000  Uiso   1.00
C953   C     0.61409   0.50715   0.74009   0.00000  Uiso   1.00
C954   C     0.47260   0.52454   0.92113   0.00000  Uiso   1.00
C955   C     0.65989   0.51018   0.73641   0.00000  Uiso   1.00
C956   C     0.34080   0.48994   0.76364   0.00000  Uiso   1.00
C957   C     0.51336   0.65594   0.73708   0.00000  Uiso   1.00
C958   C     0.48420   0.34590   0.76472   0.00000  Uiso   1.00
C959   C     0.48938   0.38947   0.76023   0.00000  Uiso   1.00
C960   C     0.50979   0.61127   0.74031   0.00000  Uiso   1.00
C961   C     0.45583   0.57320   0.98744   0.00000  Uiso   1.00
C962   C     0.51833   0.48126   0.62905   0.00000  Uiso   1.00
C963   C     0.48127   0.51737   0.87126   0.00000  Uiso   1.00
C964   C     0.52649   0.41678   0.51833   0.00000  Uiso   1.00
C965   C     0.52465   0.47087   0.58018   0.00000  Uiso   1.00
C966   C     0.46387   0.56406   0.94082   0.00000  Uiso   1.00
C967   C     0.55285   0.40488   0.58660   0.00000  Uiso   1.00
C968   C     0.55064   0.34247   0.70192   0.00000  Uiso   1.00
C969   C     0.44568   0.66368   0.80103   0.00000  Uiso   1.00
C970   C     0.43919   0.54904   0.56536   0.00000  Uiso   1.00
C971   C     0.46029   0.54361   0.51522   0.00000  Uiso   1.00
C972   C     0.47790   0.50658   0.99438   0.00000  Uiso   1.00
C973   C     0.47622   0.49429   0.94897   0.00000  Uiso   1.00
C974   C     0.49697   0.48124   0.51639   0.00000  Uiso   1.00
C975   C     0.50440   0.44026   0.99726   0.00000  Uiso   1.00
C976   C     0.48851   0.42461   0.95857   0.00000  Uiso   1.00
C977   C     0.47514   0.45172   0.93436   0.00000  Uiso   1.00
H978   H     0.65262   0.47072   0.78859   0.00000  Uiso   1.00
H979   H     0.57070   0.36640   0.71884   0.00000  Uiso   1.00
H980   H     0.42706   0.35596   0.81840   0.00000  Uiso   1.00
H981   H     0.42358   0.64054   0.78583   0.00000  Uiso   1.00
H982   H     0.45618   0.65042   0.82743   0.00000  Uiso   1.00
H983   H     0.50991   0.36973   0.92884   0.00000  Uiso   1.00
H984   H     0.46423   0.36526   0.97319   0.00000  Uiso   1.00
H985   H     0.52059   0.35508   0.99631   0.00000  Uiso   1.00
H986   H     0.56268   0.38585   0.96354   0.00000  Uiso   1.00
H987   H     0.43531   0.52015   0.58222   0.00000  Uiso   1.00
H988   H     0.45767   0.57450   0.58228   0.00000  Uiso   1.00
H989   H     0.50922   0.52844   0.56932   0.00000  Uiso   1.00
H990   H     0.40605   0.55659   0.57048   0.00000  Uiso   1.00
H991   H     0.41192   0.60914   0.52591   0.00000  Uiso   1.00
H992   H     0.46372   0.62706   0.52601   0.00000  Uiso   1.00
H993   H     0.47645   0.41740   0.87451   0.00000  Uiso   1.00
H994   H     0.42769   0.41517   0.91141   0.00000  Uiso   1.00
H995   H     0.46178   0.58776   0.91996   0.00000  Uiso   1.00
H996   H     0.34879   0.52896   0.71143   0.00000  Uiso   1.00
H997   H     0.58232   0.42229   0.59485   0.00000  Uiso   1.00
H998   H     0.52918   0.39701   0.61849   0.00000  Uiso   1.00
H999   H     0.56152   0.37528   0.56746   0.00000  Uiso   1.00
H1000  H     0.57181   0.65322   0.68177   0.00000  Uiso   1.00
H1001  H     0.53822   0.35711   0.67794   0.00000  Uiso   1.00
N1002  N     0.48117   0.38121   0.94521   0.00000  Uiso   1.00
N1003  N     0.54446   0.38018   0.99613   0.00000  Uiso   1.00
N1004  N     0.44323   0.61301   0.50578   0.00000  Uiso   1.00
N1005  N     0.45532   0.43497   0.89817   0.00000  Uiso   1.00
O1006  O     0.50000   0.50000   0.75000   0.00000  Uiso   1.00
O1007  O     0.48784   0.45970   0.65459   0.00000  Uiso   1.00
O1008  O     0.46274   0.53724   0.84968   0.00000  Uiso   1.00
O1009  O     0.54157   0.51092   0.64606   0.00000  Uiso   1.00
O1010  O     0.50785   0.49213   0.84968   0.00000  Uiso   1.00
O1011  O     0.51264   0.41352   0.78214   0.00000  Uiso   1.00
O1012  O     0.47965   0.59418   0.77014   0.00000  Uiso   1.00
O1013  O     0.40745   0.46625   0.73413   0.00000  Uiso   1.00
O1014  O     0.60026   0.52605   0.71361   0.00000  Uiso   1.00
O1015  O     0.40405   0.52211   0.78213   0.00000  Uiso   1.00
O1016  O     0.58824   0.48559   0.77014   0.00000  Uiso   1.00
O1017  O     0.47093   0.40277   0.73413   0.00000  Uiso   1.00
O1018  O     0.53678   0.58953   0.71361   0.00000  Uiso   1.00
Zn1019 Zn    0.52672   0.47327   0.78734   0.00000  Uiso   1.00
Zn1020 Zn    0.46713   0.45791   0.71876   0.00000  Uiso   1.00
Zn1021 Zn    0.54389   0.53109   0.70657   0.00000  Uiso   1.00
Zn1022 Zn    0.46226   0.53773   0.78734   0.00000  Uiso   1.00
C1023  C     0.71937   0.49278   0.76000   0.00000  Uiso   1.00
C1024  C     0.84422   0.49668   0.55570   0.00000  Uiso   1.00
C1025  C     0.86751   0.43125   0.56104   0.00000  Uiso   1.00
C1026  C     0.94742   0.50715   0.74009   0.00000  Uiso   1.00
C1027  C     0.80593   0.52454   0.92113   0.00000  Uiso   1.00
C1028  C     0.99322   0.51018   0.73641   0.00000  Uiso   1.00
C1029  C     0.67414   0.48994   0.76364   0.00000  Uiso   1.00
C1030  C     0.84669   0.65594   0.73708   0.00000  Uiso   1.00
C1031  C     0.81753   0.34590   0.76472   0.00000  Uiso   1.00
C1032  C     0.82271   0.38947   0.76023   0.00000  Uiso   1.00
C1033  C     0.84312   0.61127   0.74031   0.00000  Uiso   1.00
C1034  C     0.78916   0.57320   0.98744   0.00000  Uiso   1.00
C1035  C     0.85166   0.48126   0.62905   0.00000  Uiso   1.00
C1036  C     0.81460   0.51737   0.87126   0.00000  Uiso   1.00
C1037  C     0.85983   0.41678   0.51833   0.00000  Uiso   1.00
C1038  C     0.85799   0.47087   0.58018   0.00000  Uiso   1.00
C1039  C     0.79721   0.56406   0.94082   0.00000  Uiso   1.00
C1040  C     0.88619   0.40488   0.58660   0.00000  Uiso   1.00
C1041  C     0.88397   0.34247   0.70192   0.00000  Uiso   1.00
C1042  C     0.77901   0.66368   0.80103   0.00000  Uiso   1.00
C1043  C     0.77252   0.54904   0.56536   0.00000  Uiso   1.00
C1044  C     0.79362   0.54361   0.51522   0.00000  Uiso   1.00
C1045  C     0.81123   0.50658   0.99438   0.00000  Uiso   1.00
C1046  C     0.80955   0.49429   0.94897   0.00000  Uiso   1.00
C1047  C     0.83030   0.48124   0.51639   0.00000  Uiso   1.00
C1048  C     0.83774   0.44026   0.99726   0.00000  Uiso   1.00
C1049  C     0.82184   0.42461   0.95857   0.00000  Uiso   1.00
C1050  C     0.80848   0.45172   0.93436   0.00000  Uiso   1.00
H1051  H     0.98596   0.47072   0.78859   0.00000  Uiso   1.00
H1052  H     0.90404   0.36640   0.71884   0.00000  Uiso   1.00
H1053  H     0.76039   0.35596   0.81840   0.00000  Uiso   1.00
H1054  H     0.75692   0.64054   0.78583   0.00000  Uiso   1.00
H1055  H     0.78951   0.65042   0.82743   0.00000  Uiso   1.00
H1056  H     0.84324   0.36973   0.92884   0.00000  Uiso   1.00
H1057  H     0.79756   0.36526   0.97319   0.00000  Uiso   1.00
H1058  H     0.85392   0.35508   0.99631   0.00000  Uiso   1.00
H1059  H     0.89601   0.38585   0.96354   0.00000  Uiso   1.00
H1060  H     0.76864   0.52015   0.58222   0.00000  Uiso   1.00
H1061  H     0.79101   0.57450   0.58228   0.00000  Uiso   1.00
H1062  H     0.84255   0.52844   0.56932   0.00000  Uiso   1.00
H1063  H     0.73939   0.55659   0.57048   0.00000  Uiso   1.00
H1064  H     0.74525   0.60914   0.52591   0.00000  Uiso   1.00
H1065  H     0.79706   0.62706   0.52601   0.00000  Uiso   1.00
H1066  H     0.80978   0.41740   0.87451   0.00000  Uiso   1.00
H1067  H     0.76102   0.41517   0.91141   0.00000  Uiso   1.00
H1068  H     0.79511   0.58776   0.91996   0.00000  Uiso   1.00
H1069  H     0.68213   0.52896   0.71143   0.00000  Uiso   1.00
H1070  H     0.91565   0.42229   0.59485   0.00000  Uiso   1.00
H1071  H     0.86251   0.39701   0.61849   0.00000  Uiso   1.00
H1072  H     0.89485   0.37528   0.56746   0.00000  Uiso   1.00
H1073  H     0.90514   0.65322   0.68177   0.00000  Uiso   1.00
H1074  H     0.87156   0.35711   0.67794   0.00000  Uiso   1.00
N1075  N     0.81451   0.38121   0.94521   0.00000  Uiso   1.00
N1076  N     0.87780   0.38018   0.99613   0.00000  Uiso   1.00
N1077  N     0.77657   0.61301   0.50578   0.00000  Uiso   1.00
N1078  N     0.78866   0.43497   0.89817   0.00000  Uiso   1.00
O1079  O     0.83333   0.50000   0.75000   0.00000  Uiso   1.00
O1080  O     0.82118   0.45970   0.65459   0.00000  Uiso   1.00
O1081  O     0.79607   0.53724   0.84968   0.00000  Uiso   1.00
O1082  O     0.87491   0.51092   0.64606   0.00000  Uiso   1.00
O1083  O     0.84118   0.49213   0.84968   0.00000  Uiso   1.00
O1084  O     0.84597   0.41352   0.78214   0.00000  Uiso   1.00
O1085  O     0.81298   0.59418   0.77014   0.00000  Uiso   1.00
O1086  O     0.74078   0.46625   0.73413   0.00000  Uiso   1.00
O1087  O     0.93360   0.52605   0.71361   0.00000  Uiso   1.00
O1088  O     0.73738   0.52211   0.78213   0.00000  Uiso   1.00
O1089  O     0.92158   0.48559   0.77014   0.00000  Uiso   1.00
O1090  O     0.80426   0.40277   0.73413   0.00000  Uiso   1.00
O1091  O     0.87012   0.58953   0.71361   0.00000  Uiso   1.00
Zn1092 Zn    0.86005   0.47327   0.78734   0.00000  Uiso   1.00
Zn1093 Zn    0.80046   0.45791   0.71876   0.00000  Uiso   1.00
Zn1094 Zn    0.87723   0.53109   0.70657   0.00000  Uiso   1.00
Zn1095 Zn    0.79560   0.53773   0.78734   0.00000  Uiso   1.00
C1096  C     0.05271   0.82611   0.76000   0.00000  Uiso   1.00
C1097  C     0.17755   0.83002   0.55570   0.00000  Uiso   1.00
C1098  C     0.20084   0.76458   0.56104   0.00000  Uiso   1.00
C1099  C     0.28076   0.84048   0.74009   0.00000  Uiso   1.00
C1100  C     0.13927   0.85788   0.92113   0.00000  Uiso   1.00
C1101  C     0.32655   0.84352   0.73641   0.00000  Uiso   1.00
C1102  C     0.00747   0.82328   0.76364   0.00000  Uiso   1.00
C1103  C     0.18003   0.98927   0.73708   0.00000  Uiso   1.00
C1104  C     0.15087   0.67924   0.76472   0.00000  Uiso   1.00
C1105  C     0.15604   0.72280   0.76023   0.00000  Uiso   1.00
C1106  C     0.17646   0.94461   0.74031   0.00000  Uiso   1.00
C1107  C     0.12249   0.90654   0.98744   0.00000  Uiso   1.00
C1108  C     0.18499   0.81459   0.62905   0.00000  Uiso   1.00
C1109  C     0.14793   0.85070   0.87126   0.00000  Uiso   1.00
C1110  C     0.19316   0.75011   0.51833   0.00000  Uiso   1.00
C1111  C     0.19132   0.80420   0.58018   0.00000  Uiso   1.00
C1112  C     0.13054   0.89740   0.94082   0.00000  Uiso   1.00
C1113  C     0.21952   0.73821   0.58660   0.00000  Uiso   1.00
C1114  C     0.21730   0.67580   0.70192   0.00000  Uiso   1.00
C1115  C     0.11235   0.99702   0.80103   0.00000  Uiso   1.00
C1116  C     0.10586   0.88238   0.56536   0.00000  Uiso   1.00
C1117  C     0.12696   0.87694   0.51522   0.00000  Uiso   1.00
C1118  C     0.14456   0.83991   0.99438   0.00000  Uiso   1.00
C1119  C     0.14288   0.82762   0.94897   0.00000  Uiso   1.00
C1120  C     0.16363   0.81457   0.51639   0.00000  Uiso   1.00
C1121  C     0.17107   0.77360   0.99726   0.00000  Uiso   1.00
C1122  C     0.15517   0.75795   0.95857   0.00000  Uiso   1.00
C1123  C     0.14181   0.78505   0.93436   0.00000  Uiso   1.00
H1124  H     0.31929   0.80405   0.78859   0.00000  Uiso   1.00
H1125  H     0.23737   0.69973   0.71884   0.00000  Uiso   1.00
H1126  H     0.09372   0.68929   0.81840   0.00000  Uiso   1.00
H1127  H     0.09025   0.97387   0.78583   0.00000  Uiso   1.00
H1128  H     0.12284   0.98376   0.82743   0.00000  Uiso   1.00
H1129  H     0.17658   0.70306   0.92884   0.00000  Uiso   1.00
H1130  H     0.13089   0.69859   0.97319   0.00000  Uiso   1.00
H1131  H     0.18725   0.68841   0.99631   0.00000  Uiso   1.00
H1132  H     0.22934   0.71918   0.96354   0.00000  Uiso   1.00
H1133  H     0.10198   0.85348   0.58222   0.00000  Uiso   1.00
H1134  H     0.12434   0.90783   0.58228   0.00000  Uiso   1.00
H1135  H     0.17589   0.86177   0.56932   0.00000  Uiso   1.00
H1136  H     0.07272   0.88992   0.57048   0.00000  Uiso   1.00
H1137  H     0.07859   0.94247   0.52591   0.00000  Uiso   1.00
H1138  H     0.13039   0.96039   0.52601   0.00000  Uiso   1.00
H1139  H     0.14311   0.75073   0.87451   0.00000  Uiso   1.00
H1140  H     0.09436   0.74850   0.91141   0.00000  Uiso   1.00
H1141  H     0.12844   0.92109   0.91996   0.00000  Uiso   1.00
H1142  H     0.01546   0.86229   0.71143   0.00000  Uiso   1.00
H1143  H     0.24899   0.75562   0.59485   0.00000  Uiso   1.00
H1144  H     0.19584   0.73034   0.61849   0.00000  Uiso   1.00
H1145  H     0.22818   0.70861   0.56746   0.00000  Uiso   1.00
H1146  H     0.23847   0.98655   0.68177   0.00000  Uiso   1.00
H1147  H     0.20489   0.69044   0.67794   0.00000  Uiso   1.00
N1148  N     0.14784   0.71454   0.94521   0.00000  Uiso   1.00
N1149  N     0.21113   0.71351   0.99613   0.00000  Uiso   1.00
N1150  N     0.10990   0.94635   0.50578   0.00000  Uiso   1.00
N1151  N     0.12199   0.76830   0.89817   0.00000  Uiso   1.00
O1152  O     0.16667   0.83333   0.75000   0.00000  Uiso   1.00
O1153  O     0.15451   0.79304   0.65459   0.00000  Uiso   1.00
O1154  O     0.12940   0.87058   0.84968   0.00000  Uiso   1.00
O1155  O     0.20824   0.84425   0.64606   0.00000  Uiso   1.00
O1156  O     0.17451   0.82546   0.84968   0.00000  Uiso   1.00
O1157  O     0.17930   0.74686   0.78214   0.00000  Uiso   1.00
O1158  O     0.14632   0.92751   0.77014   0.00000  Uiso   1.00
O1159  O     0.07412   0.79958   0.73413   0.00000  Uiso   1.00
O1160  O     0.26693   0.85939   0.71361   0.00000  Uiso   1.00
O1161  O     0.07071   0.85544   0.78213   0.00000  Uiso   1.00
O1162  O     0.25491   0.81892   0.77014   0.00000  Uiso   1.00
O1163  O     0.13760   0.73610   0.73413   0.00000  Uiso   1.00
O1164  O     0.20345   0.92286   0.71361   0.00000  Uiso   1.00
Zn1165 Zn    0.19338   0.80661   0.78734   0.00000  Uiso   1.00
Zn1166 Zn    0.13379   0.79124   0.71876   0.00000  Uiso   1.00
Zn1167 Zn    0.21056   0.86442   0.70657   0.00000  Uiso   1.00
Zn1168 Zn    0.12893   0.87106   0.78734   0.00000  Uiso   1.00
C1169  C     0.38604   0.82611   0.76000   0.00000  Uiso   1.00
C1170  C     0.51089   0.83002   0.55570   0.00000  Uiso   1.00
C1171  C     0.53418   0.76458   0.56104   0.00000  Uiso   1.00
C1172  C     0.61409   0.84048   0.74009   0.00000  Uiso   1.00
C1173  C     0.47260   0.85788   0.92113   0.00000  Uiso   1.00
C1174  C     0.65989   0.84352   0.73641   0.00000  Uiso   1.00
C1175  C     0.34080   0.82328   0.76364   0.00000  Uiso   1.00
C1176  C     0.51336   0.98927   0.73708   0.00000  Uiso   1.00
C1177  C     0.48420   0.67924   0.76472   0.00000  Uiso   1.00
C1178  C     0.48938   0.72280   0.76023   0.00000  Uiso   1.00
C1179  C     0.50979   0.94461   0.74031   0.00000  Uiso   1.00
C1180  C     0.45583   0.90654   0.98744   0.00000  Uiso   1.00
C1181  C     0.51833   0.81459   0.62905   0.00000  Uiso   1.00
C1182  C     0.48127   0.85070   0.87126   0.00000  Uiso   1.00
C1183  C     0.52649   0.75011   0.51833   0.00000  Uiso   1.00
C1184  C     0.52465   0.80420   0.58018   0.00000  Uiso   1.00
C1185  C     0.46387   0.89740   0.94082   0.00000  Uiso   1.00
C1186  C     0.55285   0.73821   0.58660   0.00000  Uiso   1.00
C1187  C     0.55064   0.67580   0.70192   0.00000  Uiso   1.00
C1188  C     0.44568   0.99702   0.80103   0.00000  Uiso   1.00
C1189  C     0.43919   0.88238   0.56536   0.00000  Uiso   1.00
C1190  C     0.46029   0.87694   0.51522   0.00000  Uiso   1.00
C1191  C     0.47790   0.83991   0.99438   0.00000  Uiso   1.00
C1192  C     0.47622   0.82762   0.94897   0.00000  Uiso   1.00
C1193  C     0.49697   0.81457   0.51639   0.00000  Uiso   1.00
C1194  C     0.50440   0.77360   0.99726   0.00000  Uiso   1.00
C1195  C     0.48851   0.75795   0.95857   0.00000  Uiso   1.00
C1196  C     0.47514   0.78505   0.93436   0.00000  Uiso   1.00
H1197  H     0.65262   0.80405   0.78859   0.00000  Uiso   1.00
H1198  H     0.57070   0.69973   0.71884   0.00000  Uiso   1.00
H1199  H     0.42706   0.68929   0.81840   0.00000  Uiso   1.00
H1200  H     0.42358   0.97387   0.78583   0.00000  Uiso   1.00
H1201  H     0.45618   0.98376   0.82743   0.00000  Uiso   1.00
H1202  H     0.50991   0.70306   0.92884   0.00000  Uiso   1.00
H1203  H     0.46423   0.69859   0.97319   0.00000  Uiso   1.00
H1204  H     0.52059   0.68841   0.99631   0.00000  Uiso   1.00
H1205  H     0.56268   0.71918   0.96354   0.00000  Uiso   1.00
H1206  H     0.43531   0.85348   0.58222   0.00000  Uiso   1.00
H1207  H     0.45767   0.90783   0.58228   0.00000  Uiso   1.00
H1208  H     0.50922   0.86177   0.56932   0.00000  Uiso   1.00
H1209  H     0.40605   0.88992   0.57048   0.00000  Uiso   1.00
H1210  H     0.41192   0.94247   0.52591   0.00000  Uiso   1.00
H1211  H     0.46372   0.96039   0.52601   0.00000  Uiso   1.00
H1212  H     0.47645   0.75073   0.87451   0.00000  Uiso   1.00
H1213  H     0.42769   0.74850   0.91141   0.00000  Uiso   1.00
H1214  H     0.46178   0.92109   0.91996   0.00000  Uiso   1.00
H1215  H     0.34879   0.86229   0.71143   0.00000  Uiso   1.00
H1216  H     0.58232   0.75562   0.59485   0.00000  Uiso   1.00
H1217  H     0.52918   0.73034   0.61849   0.00000  Uiso   1.00
H1218  H     0.56152   0.70861   0.56746   0.00000  Uiso   1.00
H1219  H     0.57181   0.98655   0.68177   0.00000  Uiso   1.00
H1220  H     0.53822   0.69044   0.67794   0.00000  Uiso   1.00
N1221  N     0.48117   0.71454   0.94521   0.00000  Uiso   1.00
N1222  N     0.54446   0.71351   0.99613   0.00000  Uiso   1.00
N1223  N     0.44323   0.94635   0.50578   0.00000  Uiso   1.00
N1224  N     0.45532   0.76830   0.89817   0.00000  Uiso   1.00
O1225  O     0.50000   0.83333   0.75000   0.00000  Uiso   1.00
O1226  O     0.48784   0.79304   0.65459   0.00000  Uiso   1.00
O1227  O     0.46274   0.87058   0.84968   0.00000  Uiso   1.00
O1228  O     0.54157   0.84425   0.64606   0.00000  Uiso   1.00
O1229  O     0.50785   0.82546   0.84968   0.00000  Uiso   1.00
O1230  O     0.51264   0.74686   0.78214   0.00000  Uiso   1.00
O1231  O     0.47965   0.92751   0.77014   0.00000  Uiso   1.00
O1232  O     0.40745   0.79958   0.73413   0.00000  Uiso   1.00
O1233  O     0.60026   0.85939   0.71361   0.00000  Uiso   1.00
O1234  O     0.40405   0.85544   0.78213   0.00000  Uiso   1.00
O1235  O     0.58824   0.81892   0.77014   0.00000  Uiso   1.00
O1236  O     0.47093   0.73610   0.73413   0.00000  Uiso   1.00
O1237  O     0.53678   0.92286   0.71361   0.00000  Uiso   1.00
Zn1238 Zn    0.52672   0.80661   0.78734   0.00000  Uiso   1.00
Zn1239 Zn    0.46713   0.79124   0.71876   0.00000  Uiso   1.00
Zn1240 Zn    0.54389   0.86442   0.70657   0.00000  Uiso   1.00
Zn1241 Zn    0.46226   0.87106   0.78734   0.00000  Uiso   1.00
C1242  C     0.71937   0.82611   0.76000   0.00000  Uiso   1.00
C1243  C     0.84422   0.83002   0.55570   0.00000  Uiso   1.00
C1244  C     0.86751   0.76458   0.56104   0.00000  Uiso   1.00
C1245  C     0.94742   0.84048   0.74009   0.00000  Uiso   1.00
C1246  C     0.80593   0.85788   0.92113   0.00000  Uiso   1.00
C1247  C     0.99322   0.84352   0.73641   0.00000  Uiso   1.00
C1248  C     0.67414   0.82328   0.76364   0.00000  Uiso   1.00
C1249  C     0.84669   0.98927   0.73708   0.00000  Uiso   1.00
C1250  C     0.81753   0.67924   0.76472   0.00000  Uiso   1.00
C1251  C     0.82271   0.72280   0.76023   0.00000  Uiso   1.00
C1252  C     0.84312   0.94461   0.74031   0.00000  Uiso   1.00
C1253  C     0.78916   0.90654   0.98744   0.00000  Uiso   1.00
C1254  C     0.85166   0.81459   0.62905   0.00000  Uiso   1.00
C1255  C     0.81460   0.85070   0.87126   0.00000  Uiso   1.00
C1256  C     0.85983   0.75011   0.51833   0.00000  Uiso   1.00
C1257  C     0.85799   0.80420   0.58018   0.00000  Uiso   1.00
C1258  C     0.79721   0.89740   0.94082   0.00000  Uiso   1.00
C1259  C     0.88619   0.73821   0.58660   0.00000  Uiso   1.00
C1260  C     0.88397   0.67580   0.70192   0.00000  Uiso   1.00
C1261  C     0.77901   0.99702   0.80103   0.00000  Uiso   1.00
C1262  C     0.77252   0.88238   0.56536   0.00000  Uiso   1.00
C1263  C     0.79362   0.87694   0.51522   0.00000  Uiso   1.00
C1264  C     0.81123   0.83991   0.99438   0.00000  Uiso   1.00
C1265  C     0.80955   0.82762   0.94897   0.00000  Uiso   1.00
C1266  C     0.83030   0.81457   0.51639   0.00000  Uiso   1.00
C1267  C     0.83774   0.77360   0.99726   0.00000  Uiso   1.00
C1268  C     0.82184   0.75795   0.95857   0.00000  Uiso   1.00
C1269  C     0.80848   0.78505   0.93436   0.00000  Uiso   1.00
H1270  H     0.98596   0.80405   0.78859   0.00000  Uiso   1.00
H1271  H     0.90404   0.69973   0.71884   0.00000  Uiso   1.00
H1272  H     0.76039   0.68929   0.81840   0.00000  Uiso   1.00
H1273  H     0.75692   0.97387   0.78583   0.00000  Uiso   1.00
H1274  H     0.78951   0.98376   0.82743   0.00000  Uiso   1.00
H1275  H     0.84324   0.70306   0.92884   0.00000  Uiso   1.00
H1276  H     0.79756   0.69859   0.97319   0.00000  Uiso   1.00
H1277  H     0.85392   0.68841   0.99631   0.00000  Uiso   1.00
H1278  H     0.89601   0.71918   0.96354   0.00000  Uiso   1.00
H1279  H     0.76864   0.85348   0.58222   0.00000  Uiso   1.00
H1280  H     0.79101   0.90783   0.58228   0.00000  Uiso   1.00
H1281  H     0.84255   0.86177   0.56932   0.00000  Uiso   1.00
H1282  H     0.73939   0.88992   0.57048   0.00000  Uiso   1.00
H1283  H     0.74525   0.94247   0.52591   0.00000  Uiso   1.00
H1284  H     0.79706   0.96039   0.52601   0.00000  Uiso   1.00
H1285  H     0.80978   0.75073   0.87451   0.00000  Uiso   1.00
H1286  H     0.76102   0.74850   0.91141   0.00000  Uiso   1.00
H1287  H     0.79511   0.92109   0.91996   0.00000  Uiso   1.00
H1288  H     0.68213   0.86229   0.71143   0.00000  Uiso   1.00
H1289  H     0.91565   0.75562   0.59485   0.00000  Uiso   1.00
H1290  H     0.86251   0.73034   0.61849   0.00000  Uiso   1.00
H1291  H     0.89485   0.70861   0.56746   0.00000  Uiso   1.00
H1292  H     0.90514   0.98655   0.68177   0.00000  Uiso   1.00
H1293  H     0.87156   0.69044   0.67794   0.00000  Uiso   1.00
N1294  N     0.81451   0.71454   0.94521   0.00000  Uiso   1.00
N1295  N     0.87780   0.71351   0.99613   0.00000  Uiso   1.00
N1296  N     0.77657   0.94635   0.50578   0.00000  Uiso   1.00
N1297  N     0.78866   0.76830   0.89817   0.00000  Uiso   1.00
O1298  O     0.83333   0.83333   0.75000   0.00000  Uiso   1.00
O1299  O     0.82118   0.79304   0.65459   0.00000  Uiso   1.00
O1300  O     0.79607   0.87058   0.84968   0.00000  Uiso   1.00
O1301  O     0.87491   0.84425   0.64606   0.00000  Uiso   1.00
O1302  O     0.84118   0.82546   0.84968   0.00000  Uiso   1.00
O1303  O     0.84597   0.74686   0.78214   0.00000  Uiso   1.00
O1304  O     0.81298   0.92751   0.77014   0.00000  Uiso   1.00
O1305  O     0.74078   0.79958   0.73413   0.00000  Uiso   1.00
O1306  O     0.93360   0.85939   0.71361   0.00000  Uiso   1.00
O1307  O     0.73738   0.85544   0.78213   0.00000  Uiso   1.00
O1308  O     0.92158   0.81892   0.77014   0.00000  Uiso   1.00
O1309  O     0.80426   0.73610   0.73413   0.00000  Uiso   1.00
O1310  O     0.87012   0.92286   0.71361   0.00000  Uiso   1.00
Zn1311 Zn    0.86005   0.80661   0.78734   0.00000  Uiso   1.00
Zn1312 Zn    0.80046   0.79124   0.71876   0.00000  Uiso   1.00
Zn1313 Zn    0.87723   0.86442   0.70657   0.00000  Uiso   1.00
Zn1314 Zn    0.79560   0.87106   0.78734   0.00000  Uiso   1.00
loop_
_geom_bond_atom_site_label_1
_geom_bond_atom_site_label_2
_geom_bond_distance
_geom_bond_site_symmetry_2
_ccdc_geom_bond_type
C1     O66     1.268   .     A
C1     O64     1.267   .     A
C1     C7      1.436   .     S
C2     C16     1.386   .     A
C2     H40     1.079   .     S
C2     C25     1.408   .     A
C3     C18     1.516   .     S
C3     C15     1.410   .     A
C3     C16     1.405   .     A
C4     O67     1.279   .     A
C4     O65     1.281   .     A
C4     C6      1.453   .     S
C5     C17     1.400   .     A
C5     C14     1.479   .     S
C5     C24     1.421   .     A
C6     C80     1.333   .     S
C6     H120    1.088   .     S
C7     C152    1.333   1_455 S
C7     H175    1.086   1_455 S
C8     C11     1.465   .     S
C8     C228    1.361   .     S
C8     C238    1.521   .     S
C9     C10     1.432   .     S
C9     C446    1.361   1_545 S
C9     C458    1.515   1_545 S
C10    O68     1.266   .     A
C10    O62     1.265   .     A
C11    O69     1.277   .     A
C11    O63     1.268   .     A
C12    C17     1.390   .     A
C12    C679    1.412   .     S
C12    N712    1.434   .     S
C13    O60     1.284   .     A
C13    C16     1.465   .     S
C13    O58     1.272   .     A
C14    O59     1.286   .     A
C14    O61     1.289   .     A
C15    C683    1.433   1_554 S
C15    N711    1.435   1_554 S
C17    H46     1.084   .     S
C18    H50     1.108   .     S
C18    H49     1.109   .     S
C18    H48     1.111   .     S
C19    H30     1.111   .     S
C19    H52     1.110   .     S
C19    C446    1.521   1_545 S
C19    H489    1.109   1_545 S
C20    H33     1.111   .     S
C20    H32     1.110   .     S
C20    C228    1.515   .     S
C20    H250    1.112   .     S
C21    H39     1.110   .     S
C21    C22     1.516   .     S
C21    H41     1.110   .     S
C21    H38     1.109   .     S
C22    C669    1.412   1_554 S
C22    C680    1.431   1_554 S
C23    C24     1.416   .     A
C23    C679    1.431   .     S
C23    C682    1.427   .     S
C24    C28     1.413   .     A
C25    C680    1.427   1_554 S
C25    C683    1.430   1_554 S
C26    C27     1.425   .     A
C26    C682    1.430   .     S
C26    C672    1.433   .     S
C27    N53     1.435   .     S
C27    C28     1.404   .     A
C28    N56     1.437   .     S
H29    C80     1.086   .     S
H31    C458    1.112   1_545 S
H34    N53     1.042   .     S
H35    N53     1.045   .     S
H36    N54     1.042   .     S
H37    N54     1.045   .     S
H42    N55     1.044   .     S
H43    N55     1.045   .     S
H44    N56     1.046   .     S
H45    N56     1.046   .     S
H47    C152    1.088   1_455 S
H51    C238    1.109   .     S
N54    C672    1.435   .     S
N55    C669    1.434   1_554 S
O57    Zn70    1.954   .     S
O57    Zn71    1.932   .     S
O57    Zn72    1.939   .     S
O57    Zn73    1.935   .     S
O58    Zn71    1.915   .     S
O59    Zn73    1.919   .     S
O60    Zn72    1.911   .     S
O61    Zn70    1.909   .     S
O62    Zn70    1.941   .     S
O63    Zn73    1.947   .     S
O64    Zn71    1.929   .     S
O65    Zn72    1.933   .     S
O66    Zn73    1.927   .     S
O67    Zn70    1.926   .     S
O68    Zn71    1.952   .     S
O69    Zn72    1.945   .     S
C74    O139    1.268   .     A
C74    O137    1.267   .     A
C74    C80     1.436   .     S
C75    C89     1.386   .     A
C75    H113    1.079   .     S
C75    C98     1.408   .     A
C76    C91     1.516   .     S
C76    C88     1.410   .     A
C76    C89     1.405   .     A
C77    O140    1.279   .     A
C77    O138    1.281   .     A
C77    C79     1.453   .     S
C78    C90     1.400   .     A
C78    C87     1.479   .     S
C78    C97     1.421   .     A
C79    C153    1.333   .     S
C79    H193    1.088   .     S
C81    C84     1.465   .     S
C81    C301    1.361   .     S
C81    C311    1.521   .     S
C82    C83     1.432   .     S
C82    C519    1.361   1_545 S
C82    C531    1.515   1_545 S
C83    O141    1.266   .     A
C83    O135    1.265   .     A
C84    O142    1.277   .     A
C84    O136    1.268   .     A
C85    C90     1.390   .     A
C85    C752    1.412   .     S
C85    N785    1.434   .     S
C86    O133    1.284   .     A
C86    C89     1.465   .     S
C86    O131    1.272   .     A
C87    O132    1.286   .     A
C87    O134    1.289   .     A
C88    C756    1.433   1_554 S
C88    N784    1.435   1_554 S
C90    H119    1.084   .     S
C91    H123    1.108   .     S
C91    H122    1.109   .     S
C91    H121    1.111   .     S
C92    H103    1.111   .     S
C92    H125    1.110   .     S
C92    C519    1.521   1_545 S
C92    H562    1.109   1_545 S
C93    H106    1.111   .     S
C93    H105    1.110   .     S
C93    C301    1.515   .     S
C93    H323    1.112   .     S
C94    H112    1.110   .     S
C94    C95     1.516   .     S
C94    H114    1.110   .     S
C94    H111    1.109   .     S
C95    C742    1.412   1_554 S
C95    C753    1.431   1_554 S
C96    C97     1.416   .     A
C96    C752    1.431   .     S
C96    C755    1.427   .     S
C97    C101    1.413   .     A
C98    C753    1.427   1_554 S
C98    C756    1.430   1_554 S
C99    C100    1.425   .     A
C99    C755    1.430   .     S
C99    C745    1.433   .     S
C100   N126    1.435   .     S
C100   C101    1.404   .     A
C101   N129    1.437   .     S
H102   C153    1.086   .     S
H104   C531    1.112   1_545 S
H107   N126    1.042   .     S
H108   N126    1.045   .     S
H109   N127    1.042   .     S
H110   N127    1.045   .     S
H115   N128    1.044   .     S
H116   N128    1.045   .     S
H117   N129    1.046   .     S
H118   N129    1.046   .     S
H124   C311    1.109   .     S
N127   C745    1.435   .     S
N128   C742    1.434   1_554 S
O130   Zn143   1.954   .     S
O130   Zn144   1.932   .     S
O130   Zn145   1.939   .     S
O130   Zn146   1.935   .     S
O131   Zn144   1.915   .     S
O132   Zn146   1.919   .     S
O133   Zn145   1.911   .     S
O134   Zn143   1.909   .     S
O135   Zn143   1.941   .     S
O136   Zn146   1.947   .     S
O137   Zn144   1.929   .     S
O138   Zn145   1.933   .     S
O139   Zn146   1.927   .     S
O140   Zn143   1.926   .     S
O141   Zn144   1.952   .     S
O142   Zn145   1.945   .     S
C147   O212    1.268   .     A
C147   O210    1.267   .     A
C147   C153    1.436   .     S
C148   C162    1.386   .     A
C148   H186    1.079   .     S
C148   C171    1.408   .     A
C149   C164    1.516   .     S
C149   C161    1.410   .     A
C149   C162    1.405   .     A
C150   O213    1.279   .     A
C150   O211    1.281   .     A
C150   C152    1.453   .     S
C151   C163    1.400   .     A
C151   C160    1.479   .     S
C151   C170    1.421   .     A
C152   C7      1.333   1_655 S
C152   H47     1.088   1_655 S
C154   C157    1.465   .     S
C154   C374    1.361   .     S
C154   C384    1.521   .     S
C155   C156    1.432   .     S
C155   C592    1.361   1_545 S
C155   C604    1.515   1_545 S
C156   O214    1.266   .     A
C156   O208    1.265   .     A
C157   O215    1.277   .     A
C157   O209    1.268   .     A
C158   C163    1.390   .     A
C158   C825    1.412   .     S
C158   N858    1.434   .     S
C159   O206    1.284   .     A
C159   C162    1.465   .     S
C159   O204    1.272   .     A
C160   O205    1.286   .     A
C160   O207    1.289   .     A
C161   C829    1.433   1_554 S
C161   N857    1.435   1_554 S
C163   H192    1.084   .     S
C164   H196    1.108   .     S
C164   H195    1.109   .     S
C164   H194    1.111   .     S
C165   H176    1.111   .     S
C165   H198    1.110   .     S
C165   C592    1.521   1_545 S
C165   H635    1.109   1_545 S
C166   H179    1.111   .     S
C166   H178    1.110   .     S
C166   C374    1.515   .     S
C166   H396    1.112   .     S
C167   H185    1.110   .     S
C167   C168    1.516   .     S
C167   H187    1.110   .     S
C167   H184    1.109   .     S
C168   C815    1.412   1_554 S
C168   C826    1.431   1_554 S
C169   C170    1.416   .     A
C169   C825    1.431   .     S
C169   C828    1.427   .     S
C170   C174    1.413   .     A
C171   C826    1.427   1_554 S
C171   C829    1.430   1_554 S
C172   C173    1.425   .     A
C172   C828    1.430   .     S
C172   C818    1.433   .     S
C173   N199    1.435   .     S
C173   C174    1.404   .     A
C174   N202    1.437   .     S
H175   C7      1.086   1_655 S
H177   C604    1.112   1_545 S
H180   N199    1.042   .     S
H181   N199    1.045   .     S
H182   N200    1.042   .     S
H183   N200    1.045   .     S
H188   N201    1.044   .     S
H189   N201    1.045   .     S
H190   N202    1.046   .     S
H191   N202    1.046   .     S
H197   C384    1.109   .     S
N200   C818    1.435   .     S
N201   C815    1.434   1_554 S
O203   Zn216   1.954   .     S
O203   Zn217   1.932   .     S
O203   Zn218   1.939   .     S
O203   Zn219   1.935   .     S
O204   Zn217   1.915   .     S
O205   Zn219   1.919   .     S
O206   Zn218   1.911   .     S
O207   Zn216   1.909   .     S
O208   Zn216   1.941   .     S
O209   Zn219   1.947   .     S
O210   Zn217   1.929   .     S
O211   Zn218   1.933   .     S
O212   Zn219   1.927   .     S
O213   Zn216   1.926   .     S
O214   Zn217   1.952   .     S
O215   Zn218   1.945   .     S
C220   O285    1.268   .     A
C220   O283    1.267   .     A
C220   C226    1.436   .     S
C221   C235    1.386   .     A
C221   H259    1.079   .     S
C221   C244    1.408   .     A
C222   C237    1.516   .     S
C222   C234    1.410   .     A
C222   C235    1.405   .     A
C223   O286    1.279   .     A
C223   O284    1.281   .     A
C223   C225    1.453   .     S
C224   C236    1.400   .     A
C224   C233    1.479   .     S
C224   C243    1.421   .     A
C225   C299    1.333   .     S
C225   H339    1.088   .     S
C226   C371    1.333   1_455 S
C226   H394    1.086   1_455 S
C227   C230    1.465   .     S
C227   C447    1.361   .     S
C227   C457    1.521   .     S
C228   C229    1.432   .     S
C229   O287    1.266   .     A
C229   O281    1.265   .     A
C230   O288    1.277   .     A
C230   O282    1.268   .     A
C231   C236    1.390   .     A
C231   C898    1.412   .     S
C231   N931    1.434   .     S
C232   O279    1.284   .     A
C232   C235    1.465   .     S
C232   O277    1.272   .     A
C233   O278    1.286   .     A
C233   O280    1.289   .     A
C234   C902    1.433   1_554 S
C234   N930    1.435   1_554 S
C236   H265    1.084   .     S
C237   H269    1.108   .     S
C237   H268    1.109   .     S
C237   H267    1.111   .     S
C238   H249    1.111   .     S
C238   H271    1.110   .     S
C239   H252    1.111   .     S
C239   H251    1.110   .     S
C239   C447    1.515   .     S
C239   H469    1.112   .     S
C240   H258    1.110   .     S
C240   C241    1.516   .     S
C240   H260    1.110   .     S
C240   H257    1.109   .     S
C241   C888    1.412   1_554 S
C241   C899    1.431   1_554 S
C242   C243    1.416   .     A
C242   C898    1.431   .     S
C242   C901    1.427   .     S
C243   C247    1.413   .     A
C244   C899    1.427   1_554 S
C244   C902    1.430   1_554 S
C245   C246    1.425   .     A
C245   C901    1.430   .     S
C245   C891    1.433   .     S
C246   N272    1.435   .     S
C246   C247    1.404   .     A
C247   N275    1.437   .     S
H248   C299    1.086   .     S
H253   N272    1.042   .     S
H254   N272    1.045   .     S
H255   N273    1.042   .     S
H256   N273    1.045   .     S
H261   N274    1.044   .     S
H262   N274    1.045   .     S
H263   N275    1.046   .     S
H264   N275    1.046   .     S
H266   C371    1.088   1_455 S
H270   C457    1.109   .     S
N273   C891    1.435   .     S
N274   C888    1.434   1_554 S
O276   Zn289   1.954   .     S
O276   Zn290   1.932   .     S
O276   Zn291   1.939   .     S
O276   Zn292   1.935   .     S
O277   Zn290   1.915   .     S
O278   Zn292   1.919   .     S
O279   Zn291   1.911   .     S
O280   Zn289   1.909   .     S
O281   Zn289   1.941   .     S
O282   Zn292   1.947   .     S
O283   Zn290   1.929   .     S
O284   Zn291   1.933   .     S
O285   Zn292   1.927   .     S
O286   Zn289   1.926   .     S
O287   Zn290   1.952   .     S
O288   Zn291   1.945   .     S
C293   O358    1.268   .     A
C293   O356    1.267   .     A
C293   C299    1.436   .     S
C294   C308    1.386   .     A
C294   H332    1.079   .     S
C294   C317    1.408   .     A
C295   C310    1.516   .     S
C295   C307    1.410   .     A
C295   C308    1.405   .     A
C296   O359    1.279   .     A
C296   O357    1.281   .     A
C296   C298    1.453   .     S
C297   C309    1.400   .     A
C297   C306    1.479   .     S
C297   C316    1.421   .     A
C298   C372    1.333   .     S
C298   H412    1.088   .     S
C300   C303    1.465   .     S
C300   C520    1.361   .     S
C300   C530    1.521   .     S
C301   C302    1.432   .     S
C302   O360    1.266   .     A
C302   O354    1.265   .     A
C303   O361    1.277   .     A
C303   O355    1.268   .     A
C304   C309    1.390   .     A
C304   C971    1.412   .     S
C304   N1004   1.434   .     S
C305   O352    1.284   .     A
C305   C308    1.465   .     S
C305   O350    1.272   .     A
C306   O351    1.286   .     A
C306   O353    1.289   .     A
C307   C975    1.433   1_554 S
C307   N1003   1.435   1_554 S
C309   H338    1.084   .     S
C310   H342    1.108   .     S
C310   H341    1.109   .     S
C310   H340    1.111   .     S
C311   H322    1.111   .     S
C311   H344    1.110   .     S
C312   H325    1.111   .     S
C312   H324    1.110   .     S
C312   C520    1.515   .     S
C312   H542    1.112   .     S
C313   H331    1.110   .     S
C313   C314    1.516   .     S
C313   H333    1.110   .     S
C313   H330    1.109   .     S
C314   C961    1.412   1_554 S
C314   C972    1.431   1_554 S
C315   C316    1.416   .     A
C315   C971    1.431   .     S
C315   C974    1.427   .     S
C316   C320    1.413   .     A
C317   C972    1.427   1_554 S
C317   C975    1.430   1_554 S
C318   C319    1.425   .     A
C318   C974    1.430   .     S
C318   C964    1.433   .     S
C319   N345    1.435   .     S
C319   C320    1.404   .     A
C320   N348    1.437   .     S
H321   C372    1.086   .     S
H326   N345    1.042   .     S
H327   N345    1.045   .     S
H328   N346    1.042   .     S
H329   N346    1.045   .     S
H334   N347    1.044   .     S
H335   N347    1.045   .     S
H336   N348    1.046   .     S
H337   N348    1.046   .     S
H343   C530    1.109   .     S
N346   C964    1.435   .     S
N347   C961    1.434   1_554 S
O349   Zn362   1.954   .     S
O349   Zn363   1.932   .     S
O349   Zn364   1.939   .     S
O349   Zn365   1.935   .     S
O350   Zn363   1.915   .     S
O351   Zn365   1.919   .     S
O352   Zn364   1.911   .     S
O353   Zn362   1.909   .     S
O354   Zn362   1.941   .     S
O355   Zn365   1.947   .     S
O356   Zn363   1.929   .     S
O357   Zn364   1.933   .     S
O358   Zn365   1.927   .     S
O359   Zn362   1.926   .     S
O360   Zn363   1.952   .     S
O361   Zn364   1.945   .     S
C366   O431    1.268   .     A
C366   O429    1.267   .     A
C366   C372    1.436   .     S
C367   C381    1.386   .     A
C367   H405    1.079   .     S
C367   C390    1.408   .     A
C368   C383    1.516   .     S
C368   C380    1.410   .     A
C368   C381    1.405   .     A
C369   O432    1.279   .     A
C369   O430    1.281   .     A
C369   C371    1.453   .     S
C370   C382    1.400   .     A
C370   C379    1.479   .     S
C370   C389    1.421   .     A
C371   C226    1.333   1_655 S
C371   H266    1.088   1_655 S
C373   C376    1.465   .     S
C373   C593    1.361   .     S
C373   C603    1.521   .     S
C374   C375    1.432   .     S
C375   O433    1.266   .     A
C375   O427    1.265   .     A
C376   O434    1.277   .     A
C376   O428    1.268   .     A
C377   C382    1.390   .     A
C377   C1044   1.412   .     S
C377   N1077   1.434   .     S
C378   O425    1.284   .     A
C378   C381    1.465   .     S
C378   O423    1.272   .     A
C379   O424    1.286   .     A
C379   O426    1.289   .     A
C380   C1048   1.433   1_554 S
C380   N1076   1.435   1_554 S
C382   H411    1.084   .     S
C383   H415    1.108   .     S
C383   H414    1.109   .     S
C383   H413    1.111   .     S
C384   H395    1.111   .     S
C384   H417    1.110   .     S
C385   H398    1.111   .     S
C385   H397    1.110   .     S
C385   C593    1.515   .     S
C385   H615    1.112   .     S
C386   H404    1.110   .     S
C386   C387    1.516   .     S
C386   H406    1.110   .     S
C386   H403    1.109   .     S
C387   C1034   1.412   1_554 S
C387   C1045   1.431   1_554 S
C388   C389    1.416   .     A
C388   C1044   1.431   .     S
C388   C1047   1.427   .     S
C389   C393    1.413   .     A
C390   C1045   1.427   1_554 S
C390   C1048   1.430   1_554 S
C391   C392    1.425   .     A
C391   C1047   1.430   .     S
C391   C1037   1.433   .     S
C392   N418    1.435   .     S
C392   C393    1.404   .     A
C393   N421    1.437   .     S
H394   C226    1.086   1_655 S
H399   N418    1.042   .     S
H400   N418    1.045   .     S
H401   N419    1.042   .     S
H402   N419    1.045   .     S
H407   N420    1.044   .     S
H408   N420    1.045   .     S
H409   N421    1.046   .     S
H410   N421    1.046   .     S
H416   C603    1.109   .     S
N419   C1037   1.435   .     S
N420   C1034   1.434   1_554 S
O422   Zn435   1.954   .     S
O422   Zn436   1.932   .     S
O422   Zn437   1.939   .     S
O422   Zn438   1.935   .     S
O423   Zn436   1.915   .     S
O424   Zn438   1.919   .     S
O425   Zn437   1.911   .     S
O426   Zn435   1.909   .     S
O427   Zn435   1.941   .     S
O428   Zn438   1.947   .     S
O429   Zn436   1.929   .     S
O430   Zn437   1.933   .     S
O431   Zn438   1.927   .     S
O432   Zn435   1.926   .     S
O433   Zn436   1.952   .     S
O434   Zn437   1.945   .     S
C439   O504    1.268   .     A
C439   O502    1.267   .     A
C439   C445    1.436   .     S
C440   C454    1.386   .     A
C440   H478    1.079   .     S
C440   C463    1.408   .     A
C441   C456    1.516   .     S
C441   C453    1.410   .     A
C441   C454    1.405   .     A
C442   O505    1.279   .     A
C442   O503    1.281   .     A
C442   C444    1.453   .     S
C443   C455    1.400   .     A
C443   C452    1.479   .     S
C443   C462    1.421   .     A
C444   C518    1.333   .     S
C444   H558    1.088   .     S
C445   C590    1.333   1_455 S
C445   H613    1.086   1_455 S
C446   C449    1.465   .     S
C446   C9      1.361   1_565 S
C446   C19     1.521   1_565 S
C447   C448    1.432   .     S
C448   O506    1.266   .     A
C448   O500    1.265   .     A
C449   O507    1.277   .     A
C449   O501    1.268   .     A
C450   C455    1.390   .     A
C450   C1117   1.412   .     S
C450   N1150   1.434   .     S
C451   O498    1.284   .     A
C451   C454    1.465   .     S
C451   O496    1.272   .     A
C452   O497    1.286   .     A
C452   O499    1.289   .     A
C453   C1121   1.433   1_554 S
C453   N1149   1.435   1_554 S
C455   H484    1.084   .     S
C456   H488    1.108   .     S
C456   H487    1.109   .     S
C456   H486    1.111   .     S
C457   H468    1.111   .     S
C457   H490    1.110   .     S
C458   H471    1.111   .     S
C458   H470    1.110   .     S
C458   C9      1.515   1_565 S
C458   H31     1.112   1_565 S
C459   H477    1.110   .     S
C459   C460    1.516   .     S
C459   H479    1.110   .     S
C459   H476    1.109   .     S
C460   C1107   1.412   1_554 S
C460   C1118   1.431   1_554 S
C461   C462    1.416   .     A
C461   C1117   1.431   .     S
C461   C1120   1.427   .     S
C462   C466    1.413   .     A
C463   C1118   1.427   1_554 S
C463   C1121   1.430   1_554 S
C464   C465    1.425   .     A
C464   C1120   1.430   .     S
C464   C1110   1.433   .     S
C465   N491    1.435   .     S
C465   C466    1.404   .     A
C466   N494    1.437   .     S
H467   C518    1.086   .     S
H472   N491    1.042   .     S
H473   N491    1.045   .     S
H474   N492    1.042   .     S
H475   N492    1.045   .     S
H480   N493    1.044   .     S
H481   N493    1.045   .     S
H482   N494    1.046   .     S
H483   N494    1.046   .     S
H485   C590    1.088   1_455 S
H489   C19     1.109   1_565 S
N492   C1110   1.435   .     S
N493   C1107   1.434   1_554 S
O495   Zn508   1.954   .     S
O495   Zn509   1.932   .     S
O495   Zn510   1.939   .     S
O495   Zn511   1.935   .     S
O496   Zn509   1.915   .     S
O497   Zn511   1.919   .     S
O498   Zn510   1.911   .     S
O499   Zn508   1.909   .     S
O500   Zn508   1.941   .     S
O501   Zn511   1.947   .     S
O502   Zn509   1.929   .     S
O503   Zn510   1.933   .     S
O504   Zn511   1.927   .     S
O505   Zn508   1.926   .     S
O506   Zn509   1.952   .     S
O507   Zn510   1.945   .     S
C512   O577    1.268   .     A
C512   O575    1.267   .     A
C512   C518    1.436   .     S
C513   C527    1.386   .     A
C513   H551    1.079   .     S
C513   C536    1.408   .     A
C514   C529    1.516   .     S
C514   C526    1.410   .     A
C514   C527    1.405   .     A
C515   O578    1.279   .     A
C515   O576    1.281   .     A
C515   C517    1.453   .     S
C516   C528    1.400   .     A
C516   C525    1.479   .     S
C516   C535    1.421   .     A
C517   C591    1.333   .     S
C517   H631    1.088   .     S
C519   C522    1.465   .     S
C519   C82     1.361   1_565 S
C519   C92     1.521   1_565 S
C520   C521    1.432   .     S
C521   O579    1.266   .     A
C521   O573    1.265   .     A
C522   O580    1.277   .     A
C522   O574    1.268   .     A
C523   C528    1.390   .     A
C523   C1190   1.412   .     S
C523   N1223   1.434   .     S
C524   O571    1.284   .     A
C524   C527    1.465   .     S
C524   O569    1.272   .     A
C525   O570    1.286   .     A
C525   O572    1.289   .     A
C526   C1194   1.433   1_554 S
C526   N1222   1.435   1_554 S
C528   H557    1.084   .     S
C529   H561    1.108   .     S
C529   H560    1.109   .     S
C529   H559    1.111   .     S
C530   H541    1.111   .     S
C530   H563    1.110   .     S
C531   H544    1.111   .     S
C531   H543    1.110   .     S
C531   C82     1.515   1_565 S
C531   H104    1.112   1_565 S
C532   H550    1.110   .     S
C532   C533    1.516   .     S
C532   H552    1.110   .     S
C532   H549    1.109   .     S
C533   C1180   1.412   1_554 S
C533   C1191   1.431   1_554 S
C534   C535    1.416   .     A
C534   C1190   1.431   .     S
C534   C1193   1.427   .     S
C535   C539    1.413   .     A
C536   C1191   1.427   1_554 S
C536   C1194   1.430   1_554 S
C537   C538    1.425   .     A
C537   C1193   1.430   .     S
C537   C1183   1.433   .     S
C538   N564    1.435   .     S
C538   C539    1.404   .     A
C539   N567    1.437   .     S
H540   C591    1.086   .     S
H545   N564    1.042   .     S
H546   N564    1.045   .     S
H547   N565    1.042   .     S
H548   N565    1.045   .     S
H553   N566    1.044   .     S
H554   N566    1.045   .     S
H555   N567    1.046   .     S
H556   N567    1.046   .     S
H562   C92     1.109   1_565 S
N565   C1183   1.435   .     S
N566   C1180   1.434   1_554 S
O568   Zn581   1.954   .     S
O568   Zn582   1.932   .     S
O568   Zn583   1.939   .     S
O568   Zn584   1.935   .     S
O569   Zn582   1.915   .     S
O570   Zn584   1.919   .     S
O571   Zn583   1.911   .     S
O572   Zn581   1.909   .     S
O573   Zn581   1.941   .     S
O574   Zn584   1.947   .     S
O575   Zn582   1.929   .     S
O576   Zn583   1.933   .     S
O577   Zn584   1.927   .     S
O578   Zn581   1.926   .     S
O579   Zn582   1.952   .     S
O580   Zn583   1.945   .     S
C585   O650    1.268   .     A
C585   O648    1.267   .     A
C585   C591    1.436   .     S
C586   C600    1.386   .     A
C586   H624    1.079   .     S
C586   C609    1.408   .     A
C587   C602    1.516   .     S
C587   C599    1.410   .     A
C587   C600    1.405   .     A
C588   O651    1.279   .     A
C588   O649    1.281   .     A
C588   C590    1.453   .     S
C589   C601    1.400   .     A
C589   C598    1.479   .     S
C589   C608    1.421   .     A
C590   C445    1.333   1_655 S
C590   H485    1.088   1_655 S
C592   C595    1.465   .     S
C592   C155    1.361   1_565 S
C592   C165    1.521   1_565 S
C593   C594    1.432   .     S
C594   O652    1.266   .     A
C594   O646    1.265   .     A
C595   O653    1.277   .     A
C595   O647    1.268   .     A
C596   C601    1.390   .     A
C596   C1263   1.412   .     S
C596   N1296   1.434   .     S
C597   O644    1.284   .     A
C597   C600    1.465   .     S
C597   O642    1.272   .     A
C598   O643    1.286   .     A
C598   O645    1.289   .     A
C599   C1267   1.433   1_554 S
C599   N1295   1.435   1_554 S
C601   H630    1.084   .     S
C602   H634    1.108   .     S
C602   H633    1.109   .     S
C602   H632    1.111   .     S
C603   H614    1.111   .     S
C603   H636    1.110   .     S
C604   H617    1.111   .     S
C604   H616    1.110   .     S
C604   C155    1.515   1_565 S
C604   H177    1.112   1_565 S
C605   H623    1.110   .     S
C605   C606    1.516   .     S
C605   H625    1.110   .     S
C605   H622    1.109   .     S
C606   C1253   1.412   1_554 S
C606   C1264   1.431   1_554 S
C607   C608    1.416   .     A
C607   C1263   1.431   .     S
C607   C1266   1.427   .     S
C608   C612    1.413   .     A
C609   C1264   1.427   1_554 S
C609   C1267   1.430   1_554 S
C610   C611    1.425   .     A
C610   C1266   1.430   .     S
C610   C1256   1.433   .     S
C611   N637    1.435   .     S
C611   C612    1.404   .     A
C612   N640    1.437   .     S
H613   C445    1.086   1_655 S
H618   N637    1.042   .     S
H619   N637    1.045   .     S
H620   N638    1.042   .     S
H621   N638    1.045   .     S
H626   N639    1.044   .     S
H627   N639    1.045   .     S
H628   N640    1.046   .     S
H629   N640    1.046   .     S
H635   C165    1.109   1_565 S
N638   C1256   1.435   .     S
N639   C1253   1.434   1_554 S
O641   Zn654   1.954   .     S
O641   Zn655   1.932   .     S
O641   Zn656   1.939   .     S
O641   Zn657   1.935   .     S
O642   Zn655   1.915   .     S
O643   Zn657   1.919   .     S
O644   Zn656   1.911   .     S
O645   Zn654   1.909   .     S
O646   Zn654   1.941   .     S
O647   Zn657   1.947   .     S
O648   Zn655   1.929   .     S
O649   Zn656   1.933   .     S
O650   Zn657   1.927   .     S
O651   Zn654   1.926   .     S
O652   Zn655   1.952   .     S
O653   Zn656   1.945   .     S
C658   O723    1.268   .     A
C658   O721    1.267   .     A
C658   C664    1.436   .     S
C659   C673    1.386   .     A
C659   H697    1.079   .     S
C659   C682    1.408   .     A
C660   C675    1.516   .     S
C660   C672    1.410   .     A
C660   C673    1.405   .     A
C661   O724    1.279   .     A
C661   O722    1.281   .     A
C661   C663    1.453   .     S
C662   C674    1.400   .     A
C662   C671    1.479   .     S
C662   C681    1.421   .     A
C663   C737    1.333   .     S
C663   H777    1.088   .     S
C664   C809    1.333   1_455 S
C664   H832    1.086   1_455 S
C665   C668    1.465   .     S
C665   C885    1.361   .     S
C665   C895    1.521   .     S
C666   C667    1.432   .     S
C666   C1103   1.361   1_545 S
C666   C1115   1.515   1_545 S
C667   O725    1.266   .     A
C667   O719    1.265   .     A
C668   O726    1.277   .     A
C668   O720    1.268   .     A
C669   C674    1.390   .     A
C669   C22     1.412   1_556 S
C669   N55     1.434   1_556 S
C670   O717    1.284   .     A
C670   C673    1.465   .     S
C670   O715    1.272   .     A
C671   O716    1.286   .     A
C671   O718    1.289   .     A
C674   H703    1.084   .     S
C675   H707    1.108   .     S
C675   H706    1.109   .     S
C675   H705    1.111   .     S
C676   H687    1.111   .     S
C676   H709    1.110   .     S
C676   C1103   1.521   1_545 S
C676   H1146   1.109   1_545 S
C677   H690    1.111   .     S
C677   H689    1.110   .     S
C677   C885    1.515   .     S
C677   H907    1.112   .     S
C678   H696    1.110   .     S
C678   C679    1.516   .     S
C678   H698    1.110   .     S
C678   H695    1.109   .     S
C680   C681    1.416   .     A
C680   C22     1.431   1_556 S
C680   C25     1.427   1_556 S
C681   C685    1.413   .     A
C683   C684    1.425   .     A
C683   C25     1.430   1_556 S
C683   C15     1.433   1_556 S
C684   N710    1.435   .     S
C684   C685    1.404   .     A
C685   N713    1.437   .     S
H686   C737    1.086   .     S
H688   C1115   1.112   1_545 S
H691   N710    1.042   .     S
H692   N710    1.045   .     S
H693   N711    1.042   .     S
H694   N711    1.045   .     S
H699   N712    1.044   .     S
H700   N712    1.045   .     S
H701   N713    1.046   .     S
H702   N713    1.046   .     S
H704   C809    1.088   1_455 S
H708   C895    1.109   .     S
N711   C15     1.435   1_556 S
O714   Zn727   1.954   .     S
O714   Zn728   1.932   .     S
O714   Zn729   1.939   .     S
O714   Zn730   1.935   .     S
O715   Zn728   1.915   .     S
O716   Zn730   1.919   .     S
O717   Zn729   1.911   .     S
O718   Zn727   1.909   .     S
O719   Zn727   1.941   .     S
O720   Zn730   1.947   .     S
O721   Zn728   1.929   .     S
O722   Zn729   1.933   .     S
O723   Zn730   1.927   .     S
O724   Zn727   1.926   .     S
O725   Zn728   1.952   .     S
O726   Zn729   1.945   .     S
C731   O796    1.268   .     A
C731   O794    1.267   .     A
C731   C737    1.436   .     S
C732   C746    1.386   .     A
C732   H770    1.079   .     S
C732   C755    1.408   .     A
C733   C748    1.516   .     S
C733   C745    1.410   .     A
C733   C746    1.405   .     A
C734   O797    1.279   .     A
C734   O795    1.281   .     A
C734   C736    1.453   .     S
C735   C747    1.400   .     A
C735   C744    1.479   .     S
C735   C754    1.421   .     A
C736   C810    1.333   .     S
C736   H850    1.088   .     S
C738   C741    1.465   .     S
C738   C958    1.361   .     S
C738   C968    1.521   .     S
C739   C740    1.432   .     S
C739   C1176   1.361   1_545 S
C739   C1188   1.515   1_545 S
C740   O798    1.266   .     A
C740   O792    1.265   .     A
C741   O799    1.277   .     A
C741   O793    1.268   .     A
C742   C747    1.390   .     A
C742   C95     1.412   1_556 S
C742   N128    1.434   1_556 S
C743   O790    1.284   .     A
C743   C746    1.465   .     S
C743   O788    1.272   .     A
C744   O789    1.286   .     A
C744   O791    1.289   .     A
C747   H776    1.084   .     S
C748   H780    1.108   .     S
C748   H779    1.109   .     S
C748   H778    1.111   .     S
C749   H760    1.111   .     S
C749   H782    1.110   .     S
C749   C1176   1.521   1_545 S
C749   H1219   1.109   1_545 S
C750   H763    1.111   .     S
C750   H762    1.110   .     S
C750   C958    1.515   .     S
C750   H980    1.112   .     S
C751   H769    1.110   .     S
C751   C752    1.516   .     S
C751   H771    1.110   .     S
C751   H768    1.109   .     S
C753   C754    1.416   .     A
C753   C95     1.431   1_556 S
C753   C98     1.427   1_556 S
C754   C758    1.413   .     A
C756   C757    1.425   .     A
C756   C98     1.430   1_556 S
C756   C88     1.433   1_556 S
C757   N783    1.435   .     S
C757   C758    1.404   .     A
C758   N786    1.437   .     S
H759   C810    1.086   .     S
H761   C1188   1.112   1_545 S
H764   N783    1.042   .     S
H765   N783    1.045   .     S
H766   N784    1.042   .     S
H767   N784    1.045   .     S
H772   N785    1.044   .     S
H773   N785    1.045   .     S
H774   N786    1.046   .     S
H775   N786    1.046   .     S
H781   C968    1.109   .     S
N784   C88     1.435   1_556 S
O787   Zn800   1.954   .     S
O787   Zn801   1.932   .     S
O787   Zn802   1.939   .     S
O787   Zn803   1.935   .     S
O788   Zn801   1.915   .     S
O789   Zn803   1.919   .     S
O790   Zn802   1.911   .     S
O791   Zn800   1.909   .     S
O792   Zn800   1.941   .     S
O793   Zn803   1.947   .     S
O794   Zn801   1.929   .     S
O795   Zn802   1.933   .     S
O796   Zn803   1.927   .     S
O797   Zn800   1.926   .     S
O798   Zn801   1.952   .     S
O799   Zn802   1.945   .     S
C804   O869    1.268   .     A
C804   O867    1.267   .     A
C804   C810    1.436   .     S
C805   C819    1.386   .     A
C805   H843    1.079   .     S
C805   C828    1.408   .     A
C806   C821    1.516   .     S
C806   C818    1.410   .     A
C806   C819    1.405   .     A
C807   O870    1.279   .     A
C807   O868    1.281   .     A
C807   C809    1.453   .     S
C808   C820    1.400   .     A
C808   C817    1.479   .     S
C808   C827    1.421   .     A
C809   C664    1.333   1_655 S
C809   H704    1.088   1_655 S
C811   C814    1.465   .     S
C811   C1031   1.361   .     S
C811   C1041   1.521   .     S
C812   C813    1.432   .     S
C812   C1249   1.361   1_545 S
C812   C1261   1.515   1_545 S
C813   O871    1.266   .     A
C813   O865    1.265   .     A
C814   O872    1.277   .     A
C814   O866    1.268   .     A
C815   C820    1.390   .     A
C815   C168    1.412   1_556 S
C815   N201    1.434   1_556 S
C816   O863    1.284   .     A
C816   C819    1.465   .     S
C816   O861    1.272   .     A
C817   O862    1.286   .     A
C817   O864    1.289   .     A
C820   H849    1.084   .     S
C821   H853    1.108   .     S
C821   H852    1.109   .     S
C821   H851    1.111   .     S
C822   H833    1.111   .     S
C822   H855    1.110   .     S
C822   C1249   1.521   1_545 S
C822   H1292   1.109   1_545 S
C823   H836    1.111   .     S
C823   H835    1.110   .     S
C823   C1031   1.515   .     S
C823   H1053   1.112   .     S
C824   H842    1.110   .     S
C824   C825    1.516   .     S
C824   H844    1.110   .     S
C824   H841    1.109   .     S
C826   C827    1.416   .     A
C826   C168    1.431   1_556 S
C826   C171    1.427   1_556 S
C827   C831    1.413   .     A
C829   C830    1.425   .     A
C829   C171    1.430   1_556 S
C829   C161    1.433   1_556 S
C830   N856    1.435   .     S
C830   C831    1.404   .     A
C831   N859    1.437   .     S
H832   C664    1.086   1_655 S
H834   C1261   1.112   1_545 S
H837   N856    1.042   .     S
H838   N856    1.045   .     S
H839   N857    1.042   .     S
H840   N857    1.045   .     S
H845   N858    1.044   .     S
H846   N858    1.045   .     S
H847   N859    1.046   .     S
H848   N859    1.046   .     S
H854   C1041   1.109   .     S
N857   C161    1.435   1_556 S
O860   Zn873   1.954   .     S
O860   Zn874   1.932   .     S
O860   Zn875   1.939   .     S
O860   Zn876   1.935   .     S
O861   Zn874   1.915   .     S
O862   Zn876   1.919   .     S
O863   Zn875   1.911   .     S
O864   Zn873   1.909   .     S
O865   Zn873   1.941   .     S
O866   Zn876   1.947   .     S
O867   Zn874   1.929   .     S
O868   Zn875   1.933   .     S
O869   Zn876   1.927   .     S
O870   Zn873   1.926   .     S
O871   Zn874   1.952   .     S
O872   Zn875   1.945   .     S
C877   O942    1.268   .     A
C877   O940    1.267   .     A
C877   C883    1.436   .     S
C878   C892    1.386   .     A
C878   H916    1.079   .     S
C878   C901    1.408   .     A
C879   C894    1.516   .     S
C879   C891    1.410   .     A
C879   C892    1.405   .     A
C880   O943    1.279   .     A
C880   O941    1.281   .     A
C880   C882    1.453   .     S
C881   C893    1.400   .     A
C881   C890    1.479   .     S
C881   C900    1.421   .     A
C882   C956    1.333   .     S
C882   H996    1.088   .     S
C883   C1028   1.333   1_455 S
C883   H1051   1.086   1_455 S
C884   C887    1.465   .     S
C884   C1104   1.361   .     S
C884   C1114   1.521   .     S
C885   C886    1.432   .     S
C886   O944    1.266   .     A
C886   O938    1.265   .     A
C887   O945    1.277   .     A
C887   O939    1.268   .     A
C888   C893    1.390   .     A
C888   C241    1.412   1_556 S
C888   N274    1.434   1_556 S
C889   O936    1.284   .     A
C889   C892    1.465   .     S
C889   O934    1.272   .     A
C890   O935    1.286   .     A
C890   O937    1.289   .     A
C893   H922    1.084   .     S
C894   H926    1.108   .     S
C894   H925    1.109   .     S
C894   H924    1.111   .     S
C895   H906    1.111   .     S
C895   H928    1.110   .     S
C896   H909    1.111   .     S
C896   H908    1.110   .     S
C896   C1104   1.515   .     S
C896   H1126   1.112   .     S
C897   H915    1.110   .     S
C897   C898    1.516   .     S
C897   H917    1.110   .     S
C897   H914    1.109   .     S
C899   C900    1.416   .     A
C899   C241    1.431   1_556 S
C899   C244    1.427   1_556 S
C900   C904    1.413   .     A
C902   C903    1.425   .     A
C902   C244    1.430   1_556 S
C902   C234    1.433   1_556 S
C903   N929    1.435   .     S
C903   C904    1.404   .     A
C904   N932    1.437   .     S
H905   C956    1.086   .     S
H910   N929    1.042   .     S
H911   N929    1.045   .     S
H912   N930    1.042   .     S
H913   N930    1.045   .     S
H918   N931    1.044   .     S
H919   N931    1.045   .     S
H920   N932    1.046   .     S
H921   N932    1.046   .     S
H923   C1028   1.088   1_455 S
H927   C1114   1.109   .     S
N930   C234    1.435   1_556 S
O933   Zn946   1.954   .     S
O933   Zn947   1.932   .     S
O933   Zn948   1.939   .     S
O933   Zn949   1.935   .     S
O934   Zn947   1.915   .     S
O935   Zn949   1.919   .     S
O936   Zn948   1.911   .     S
O937   Zn946   1.909   .     S
O938   Zn946   1.941   .     S
O939   Zn949   1.947   .     S
O940   Zn947   1.929   .     S
O941   Zn948   1.933   .     S
O942   Zn949   1.927   .     S
O943   Zn946   1.926   .     S
O944   Zn947   1.952   .     S
O945   Zn948   1.945   .     S
C950   O1015   1.268   .     A
C950   O1013   1.267   .     A
C950   C956    1.436   .     S
C951   C965    1.386   .     A
C951   H989    1.079   .     S
C951   C974    1.408   .     A
C952   C967    1.516   .     S
C952   C964    1.410   .     A
C952   C965    1.405   .     A
C953   O1016   1.279   .     A
C953   O1014   1.281   .     A
C953   C955    1.453   .     S
C954   C966    1.400   .     A
C954   C963    1.479   .     S
C954   C973    1.421   .     A
C955   C1029   1.333   .     S
C955   H1069   1.088   .     S
C957   C960    1.465   .     S
C957   C1177   1.361   .     S
C957   C1187   1.521   .     S
C958   C959    1.432   .     S
C959   O1017   1.266   .     A
C959   O1011   1.265   .     A
C960   O1018   1.277   .     A
C960   O1012   1.268   .     A
C961   C966    1.390   .     A
C961   C314    1.412   1_556 S
C961   N347    1.434   1_556 S
C962   O1009   1.284   .     A
C962   C965    1.465   .     S
C962   O1007   1.272   .     A
C963   O1008   1.286   .     A
C963   O1010   1.289   .     A
C966   H995    1.084   .     S
C967   H999    1.108   .     S
C967   H998    1.109   .     S
C967   H997    1.111   .     S
C968   H979    1.111   .     S
C968   H1001   1.110   .     S
C969   H982    1.111   .     S
C969   H981    1.110   .     S
C969   C1177   1.515   .     S
C969   H1199   1.112   .     S
C970   H988    1.110   .     S
C970   C971    1.516   .     S
C970   H990    1.110   .     S
C970   H987    1.109   .     S
C972   C973    1.416   .     A
C972   C314    1.431   1_556 S
C972   C317    1.427   1_556 S
C973   C977    1.413   .     A
C975   C976    1.425   .     A
C975   C317    1.430   1_556 S
C975   C307    1.433   1_556 S
C976   N1002   1.435   .     S
C976   C977    1.404   .     A
C977   N1005   1.437   .     S
H978   C1029   1.086   .     S
H983   N1002   1.042   .     S
H984   N1002   1.045   .     S
H985   N1003   1.042   .     S
H986   N1003   1.045   .     S
H991   N1004   1.044   .     S
H992   N1004   1.045   .     S
H993   N1005   1.046   .     S
H994   N1005   1.046   .     S
H1000  C1187   1.109   .     S
N1003  C307    1.435   1_556 S
O1006  Zn1019  1.954   .     S
O1006  Zn1020  1.932   .     S
O1006  Zn1021  1.939   .     S
O1006  Zn1022  1.935   .     S
O1007  Zn1020  1.915   .     S
O1008  Zn1022  1.919   .     S
O1009  Zn1021  1.911   .     S
O1010  Zn1019  1.909   .     S
O1011  Zn1019  1.941   .     S
O1012  Zn1022  1.947   .     S
O1013  Zn1020  1.929   .     S
O1014  Zn1021  1.933   .     S
O1015  Zn1022  1.927   .     S
O1016  Zn1019  1.926   .     S
O1017  Zn1020  1.952   .     S
O1018  Zn1021  1.945   .     S
C1023  O1088   1.268   .     A
C1023  O1086   1.267   .     A
C1023  C1029   1.436   .     S
C1024  C1038   1.386   .     A
C1024  H1062   1.079   .     S
C1024  C1047   1.408   .     A
C1025  C1040   1.516   .     S
C1025  C1037   1.410   .     A
C1025  C1038   1.405   .     A
C1026  O1089   1.279   .     A
C1026  O1087   1.281   .     A
C1026  C1028   1.453   .     S
C1027  C1039   1.400   .     A
C1027  C1036   1.479   .     S
C1027  C1046   1.421   .     A
C1028  C883    1.333   1_655 S
C1028  H923    1.088   1_655 S
C1030  C1033   1.465   .     S
C1030  C1250   1.361   .     S
C1030  C1260   1.521   .     S
C1031  C1032   1.432   .     S
C1032  O1090   1.266   .     A
C1032  O1084   1.265   .     A
C1033  O1091   1.277   .     A
C1033  O1085   1.268   .     A
C1034  C1039   1.390   .     A
C1034  C387    1.412   1_556 S
C1034  N420    1.434   1_556 S
C1035  O1082   1.284   .     A
C1035  C1038   1.465   .     S
C1035  O1080   1.272   .     A
C1036  O1081   1.286   .     A
C1036  O1083   1.289   .     A
C1039  H1068   1.084   .     S
C1040  H1072   1.108   .     S
C1040  H1071   1.109   .     S
C1040  H1070   1.111   .     S
C1041  H1052   1.111   .     S
C1041  H1074   1.110   .     S
C1042  H1055   1.111   .     S
C1042  H1054   1.110   .     S
C1042  C1250   1.515   .     S
C1042  H1272   1.112   .     S
C1043  H1061   1.110   .     S
C1043  C1044   1.516   .     S
C1043  H1063   1.110   .     S
C1043  H1060   1.109   .     S
C1045  C1046   1.416   .     A
C1045  C387    1.431   1_556 S
C1045  C390    1.427   1_556 S
C1046  C1050   1.413   .     A
C1048  C1049   1.425   .     A
C1048  C390    1.430   1_556 S
C1048  C380    1.433   1_556 S
C1049  N1075   1.435   .     S
C1049  C1050   1.404   .     A
C1050  N1078   1.437   .     S
H1051  C883    1.086   1_655 S
H1056  N1075   1.042   .     S
H1057  N1075   1.045   .     S
H1058  N1076   1.042   .     S
H1059  N1076   1.045   .     S
H1064  N1077   1.044   .     S
H1065  N1077   1.045   .     S
H1066  N1078   1.046   .     S
H1067  N1078   1.046   .     S
H1073  C1260   1.109   .     S
N1076  C380    1.435   1_556 S
O1079  Zn1092  1.954   .     S
O1079  Zn1093  1.932   .     S
O1079  Zn1094  1.939   .     S
O1079  Zn1095  1.935   .     S
O1080  Zn1093  1.915   .     S
O1081  Zn1095  1.919   .     S
O1082  Zn1094  1.911   .     S
O1083  Zn1092  1.909   .     S
O1084  Zn1092  1.941   .     S
O1085  Zn1095  1.947   .     S
O1086  Zn1093  1.929   .     S
O1087  Zn1094  1.933   .     S
O1088  Zn1095  1.927   .     S
O1089  Zn1092  1.926   .     S
O1090  Zn1093  1.952   .     S
O1091  Zn1094  1.945   .     S
C1096  O1161   1.268   .     A
C1096  O1159   1.267   .     A
C1096  C1102   1.436   .     S
C1097  C1111   1.386   .     A
C1097  H1135   1.079   .     S
C1097  C1120   1.408   .     A
C1098  C1113   1.516   .     S
C1098  C1110   1.410   .     A
C1098  C1111   1.405   .     A
C1099  O1162   1.279   .     A
C1099  O1160   1.281   .     A
C1099  C1101   1.453   .     S
C1100  C1112   1.400   .     A
C1100  C1109   1.479   .     S
C1100  C1119   1.421   .     A
C1101  C1175   1.333   .     S
C1101  H1215   1.088   .     S
C1102  C1247   1.333   1_455 S
C1102  H1270   1.086   1_455 S
C1103  C1106   1.465   .     S
C1103  C666    1.361   1_565 S
C1103  C676    1.521   1_565 S
C1104  C1105   1.432   .     S
C1105  O1163   1.266   .     A
C1105  O1157   1.265   .     A
C1106  O1164   1.277   .     A
C1106  O1158   1.268   .     A
C1107  C1112   1.390   .     A
C1107  C460    1.412   1_556 S
C1107  N493    1.434   1_556 S
C1108  O1155   1.284   .     A
C1108  C1111   1.465   .     S
C1108  O1153   1.272   .     A
C1109  O1154   1.286   .     A
C1109  O1156   1.289   .     A
C1112  H1141   1.084   .     S
C1113  H1145   1.108   .     S
C1113  H1144   1.109   .     S
C1113  H1143   1.111   .     S
C1114  H1125   1.111   .     S
C1114  H1147   1.110   .     S
C1115  H1128   1.111   .     S
C1115  H1127   1.110   .     S
C1115  C666    1.515   1_565 S
C1115  H688    1.112   1_565 S
C1116  H1134   1.110   .     S
C1116  C1117   1.516   .     S
C1116  H1136   1.110   .     S
C1116  H1133   1.109   .     S
C1118  C1119   1.416   .     A
C1118  C460    1.431   1_556 S
C1118  C463    1.427   1_556 S
C1119  C1123   1.413   .     A
C1121  C1122   1.425   .     A
C1121  C463    1.430   1_556 S
C1121  C453    1.433   1_556 S
C1122  N1148   1.435   .     S
C1122  C1123   1.404   .     A
C1123  N1151   1.437   .     S
H1124  C1175   1.086   .     S
H1129  N1148   1.042   .     S
H1130  N1148   1.045   .     S
H1131  N1149   1.042   .     S
H1132  N1149   1.045   .     S
H1137  N1150   1.044   .     S
H1138  N1150   1.045   .     S
H1139  N1151   1.046   .     S
H1140  N1151   1.046   .     S
H1142  C1247   1.088   1_455 S
H1146  C676    1.109   1_565 S
N1149  C453    1.435   1_556 S
O1152  Zn1165  1.954   .     S
O1152  Zn1166  1.932   .     S
O1152  Zn1167  1.939   .     S
O1152  Zn1168  1.935   .     S
O1153  Zn1166  1.915   .     S
O1154  Zn1168  1.919   .     S
O1155  Zn1167  1.911   .     S
O1156  Zn1165  1.909   .     S
O1157  Zn1165  1.941   .     S
O1158  Zn1168  1.947   .     S
O1159  Zn1166  1.929   .     S
O1160  Zn1167  1.933   .     S
O1161  Zn1168  1.927   .     S
O1162  Zn1165  1.926   .     S
O1163  Zn1166  1.952   .     S
O1164  Zn1167  1.945   .     S
C1169  O1234   1.268   .     A
C1169  O1232   1.267   .     A
C1169  C1175   1.436   .     S
C1170  C1184   1.386   .     A
C1170  H1208   1.079   .     S
C1170  C1193   1.408   .     A
C1171  C1186   1.516   .     S
C1171  C1183   1.410   .     A
C1171  C1184   1.405   .     A
C1172  O1235   1.279   .     A
C1172  O1233   1.281   .     A
C1172  C1174   1.453   .     S
C1173  C1185   1.400   .     A
C1173  C1182   1.479   .     S
C1173  C1192   1.421   .     A
C1174  C1248   1.333   .     S
C1174  H1288   1.088   .     S
C1176  C1179   1.465   .     S
C1176  C739    1.361   1_565 S
C1176  C749    1.521   1_565 S
C1177  C1178   1.432   .     S
C1178  O1236   1.266   .     A
C1178  O1230   1.265   .     A
C1179  O1237   1.277   .     A
C1179  O1231   1.268   .     A
C1180  C1185   1.390   .     A
C1180  C533    1.412   1_556 S
C1180  N566    1.434   1_556 S
C1181  O1228   1.284   .     A
C1181  C1184   1.465   .     S
C1181  O1226   1.272   .     A
C1182  O1227   1.286   .     A
C1182  O1229   1.289   .     A
C1185  H1214   1.084   .     S
C1186  H1218   1.108   .     S
C1186  H1217   1.109   .     S
C1186  H1216   1.111   .     S
C1187  H1198   1.111   .     S
C1187  H1220   1.110   .     S
C1188  H1201   1.111   .     S
C1188  H1200   1.110   .     S
C1188  C739    1.515   1_565 S
C1188  H761    1.112   1_565 S
C1189  H1207   1.110   .     S
C1189  C1190   1.516   .     S
C1189  H1209   1.110   .     S
C1189  H1206   1.109   .     S
C1191  C1192   1.416   .     A
C1191  C533    1.431   1_556 S
C1191  C536    1.427   1_556 S
C1192  C1196   1.413   .     A
C1194  C1195   1.425   .     A
C1194  C536    1.430   1_556 S
C1194  C526    1.433   1_556 S
C1195  N1221   1.435   .     S
C1195  C1196   1.404   .     A
C1196  N1224   1.437   .     S
H1197  C1248   1.086   .     S
H1202  N1221   1.042   .     S
H1203  N1221   1.045   .     S
H1204  N1222   1.042   .     S
H1205  N1222   1.045   .     S
H1210  N1223   1.044   .     S
H1211  N1223   1.045   .     S
H1212  N1224   1.046   .     S
H1213  N1224   1.046   .     S
H1219  C749    1.109   1_565 S
N1222  C526    1.435   1_556 S
O1225  Zn1238  1.954   .     S
O1225  Zn1239  1.932   .     S
O1225  Zn1240  1.939   .     S
O1225  Zn1241  1.935   .     S
O1226  Zn1239  1.915   .     S
O1227  Zn1241  1.919   .     S
O1228  Zn1240  1.911   .     S
O1229  Zn1238  1.909   .     S
O1230  Zn1238  1.941   .     S
O1231  Zn1241  1.947   .     S
O1232  Zn1239  1.929   .     S
O1233  Zn1240  1.933   .     S
O1234  Zn1241  1.927   .     S
O1235  Zn1238  1.926   .     S
O1236  Zn1239  1.952   .     S
O1237  Zn1240  1.945   .     S
C1242  O1307   1.268   .     A
C1242  O1305   1.267   .     A
C1242  C1248   1.436   .     S
C1243  C1257   1.386   .     A
C1243  H1281   1.079   .     S
C1243  C1266   1.408   .     A
C1244  C1259   1.516   .     S
C1244  C1256   1.410   .     A
C1244  C1257   1.405   .     A
C1245  O1308   1.279   .     A
C1245  O1306   1.281   .     A
C1245  C1247   1.453   .     S
C1246  C1258   1.400   .     A
C1246  C1255   1.479   .     S
C1246  C1265   1.421   .     A
C1247  C1102   1.333   1_655 S
C1247  H1142   1.088   1_655 S
C1249  C1252   1.465   .     S
C1249  C812    1.361   1_565 S
C1249  C822    1.521   1_565 S
C1250  C1251   1.432   .     S
C1251  O1309   1.266   .     A
C1251  O1303   1.265   .     A
C1252  O1310   1.277   .     A
C1252  O1304   1.268   .     A
C1253  C1258   1.390   .     A
C1253  C606    1.412   1_556 S
C1253  N639    1.434   1_556 S
C1254  O1301   1.284   .     A
C1254  C1257   1.465   .     S
C1254  O1299   1.272   .     A
C1255  O1300   1.286   .     A
C1255  O1302   1.289   .     A
C1258  H1287   1.084   .     S
C1259  H1291   1.108   .     S
C1259  H1290   1.109   .     S
C1259  H1289   1.111   .     S
C1260  H1271   1.111   .     S
C1260  H1293   1.110   .     S
C1261  H1274   1.111   .     S
C1261  H1273   1.110   .     S
C1261  C812    1.515   1_565 S
C1261  H834    1.112   1_565 S
C1262  H1280   1.110   .     S
C1262  C1263   1.516   .     S
C1262  H1282   1.110   .     S
C1262  H1279   1.109   .     S
C1264  C1265   1.416   .     A
C1264  C606    1.431   1_556 S
C1264  C609    1.427   1_556 S
C1265  C1269   1.413   .     A
C1267  C1268   1.425   .     A
C1267  C609    1.430   1_556 S
C1267  C599    1.433   1_556 S
C1268  N1294   1.435   .     S
C1268  C1269   1.404   .     A
C1269  N1297   1.437   .     S
H1270  C1102   1.086   1_655 S
H1275  N1294   1.042   .     S
H1276  N1294   1.045   .     S
H1277  N1295   1.042   .     S
H1278  N1295   1.045   .     S
H1283  N1296   1.044   .     S
H1284  N1296   1.045   .     S
H1285  N1297   1.046   .     S
H1286  N1297   1.046   .     S
H1292  C822    1.109   1_565 S
N1295  C599    1.435   1_556 S
O1298  Zn1311  1.954   .     S
O1298  Zn1312  1.932   .     S
O1298  Zn1313  1.939   .     S
O1298  Zn1314  1.935   .     S
O1299  Zn1312  1.915   .     S
O1300  Zn1314  1.919   .     S
O1301  Zn1313  1.911   .     S
O1302  Zn1311  1.909   .     S
O1303  Zn1311  1.941   .     S
O1304  Zn1314  1.947   .     S
O1305  Zn1312  1.929   .     S
O1306  Zn1313  1.933   .     S
O1307  Zn1314  1.927   .     S
O1308  Zn1311  1.926   .     S
O1309  Zn1312  1.952   .     S
O1310  Zn1313  1.945   .     S
