data_str_m1_o10_o18_pcu_sym.49
_audit_creation_date              2020-01-03
_audit_creation_method            'Materials Studio'
_symmetry_space_group_name_H-M    'P1'
_symmetry_Int_Tables_number       1
_symmetry_cell_setting            triclinic
loop_
_symmetry_equiv_pos_as_xyz
  x,y,z
_cell_length_a                    32.7953
_cell_length_b                    32.4878
_cell_length_c                    35.7511
_cell_angle_alpha                 97.8423
_cell_angle_beta                  72.3388
_cell_angle_gamma                 98.8119
loop_
_atom_site_label
_atom_site_type_symbol
_atom_site_fract_x
_atom_site_fract_y
_atom_site_fract_z
_atom_site_U_iso_or_equiv
_atom_site_adp_type
_atom_site_occupancy
C1     C     0.05286   0.15999   0.25894   0.00000  Uiso   1.00
C2     C     0.21457   0.15131   0.45916   0.00000  Uiso   1.00
C3     C     0.23669   0.13116   0.47799   0.00000  Uiso   1.00
C4     C     0.28140   0.17320   0.24079   0.00000  Uiso   1.00
C5     C     0.21833   0.12599   0.01887   0.00000  Uiso   1.00
C6     C     0.18604   0.15142   0.04074   0.00000  Uiso   1.00
C7     C     0.23171   0.09831   0.03925   0.00000  Uiso   1.00
C8     C     0.22032   0.10347   0.08103   0.00000  Uiso   1.00
C9     C     0.18131   0.16220   0.08135   0.00000  Uiso   1.00
C10    C     0.32793   0.17401   0.23629   0.00000  Uiso   1.00
C11    C     0.00740   0.15758   0.26383   0.00000  Uiso   1.00
C12    C     0.09670   0.21419   0.42331   0.00000  Uiso   1.00
C13    C     0.18065   0.32242   0.23479   0.00000  Uiso   1.00
C14    C     0.15275   0.01209   0.26175   0.00000  Uiso   1.00
C15    C     0.15501   0.05636   0.25978   0.00000  Uiso   1.00
C16    C     0.17690   0.27781   0.24048   0.00000  Uiso   1.00
C17    C     0.18861   0.14525   0.14409   0.00000  Uiso   1.00
C18    C     0.14518   0.18790   0.35627   0.00000  Uiso   1.00
C19    C     0.13374   0.19525   0.39988   0.00000  Uiso   1.00
C20    C     0.19762   0.13731   0.10140   0.00000  Uiso   1.00
C21    C     0.08454   0.21327   0.46424   0.00000  Uiso   1.00
C22    C     0.25335   0.06162   0.01783   0.00000  Uiso   1.00
C23    C     0.15922   0.17954   0.41856   0.00000  Uiso   1.00
C24    C     0.02956   0.19260   0.20101   0.00000  Uiso   1.00
C25    C     0.01527   0.20830   0.16910   0.00000  Uiso   1.00
C26    C     0.31075   0.13823   0.30087   0.00000  Uiso   1.00
C27    C     0.33319   0.12418   0.32807   0.00000  Uiso   1.00
C28    C     0.21417   0.01007   0.20026   0.00000  Uiso   1.00
C29    C     0.24445   0.31591   0.16945   0.00000  Uiso   1.00
C30    C     0.16492   0.20269   0.10077   0.00000  Uiso   1.00
C31    C     0.23244   0.07465   0.10407   0.00000  Uiso   1.00
C32    C     0.28232   0.12214   0.45474   0.00000  Uiso   1.00
C33    C     0.31593   0.14679   0.47349   0.00000  Uiso   1.00
C34    C     0.14847   0.18076   0.45986   0.00000  Uiso   1.00
C35    C     0.06981   0.23525   0.40679   0.00000  Uiso   1.00
C36    C     0.10936   0.19619   0.48240   0.00000  Uiso   1.00
C37    C     0.17439   0.16557   0.47941   0.00000  Uiso   1.00
C38    C     0.16011   0.16573   0.02098   0.00000  Uiso   1.00
C39    C     0.11885   0.17723   0.04169   0.00000  Uiso   1.00
C40    C     0.09462   0.19356   0.02293   0.00000  Uiso   1.00
H41    H     0.06367   0.20331   0.04015   0.00000  Uiso   1.00
H42    H     0.04423   0.21823   0.14499   0.00000  Uiso   1.00
H43    H     0.04958   0.21912   0.21251   0.00000  Uiso   1.00
H44    H     0.05091   0.16823   0.18567   0.00000  Uiso   1.00
H45    H     0.02200   0.10080   0.31183   0.00000  Uiso   1.00
H46    H     0.01801   0.15142   0.34068   0.00000  Uiso   1.00
H47    H     0.30855   0.10927   0.35279   0.00000  Uiso   1.00
H48    H     0.28934   0.16147   0.31901   0.00000  Uiso   1.00
H49    H     0.29117   0.10982   0.29168   0.00000  Uiso   1.00
H50    H     0.26569   0.30313   0.18286   0.00000  Uiso   1.00
H51    H     0.22584   0.29036   0.15533   0.00000  Uiso   1.00
H52    H     0.12911   0.33225   0.28703   0.00000  Uiso   1.00
H53    H     0.26554   0.00191   0.14603   0.00000  Uiso   1.00
H54    H     0.19676   0.02463   0.18418   0.00000  Uiso   1.00
H55    H     0.23458   0.03562   0.21249   0.00000  Uiso   1.00
H56    H     0.16957   0.22865   0.08315   0.00000  Uiso   1.00
H57    H     0.23861   0.08617   0.13203   0.00000  Uiso   1.00
H58    H     0.31239   0.18070   0.47747   0.00000  Uiso   1.00
H59    H     0.31265   0.13611   0.00254   0.00000  Uiso   1.00
H60    H     0.01541   0.14217   0.45397   0.00000  Uiso   1.00
H61    H     0.28577   0.08842   0.45054   0.00000  Uiso   1.00
H62    H     0.29071   0.13146   0.42431   0.00000  Uiso   1.00
H63    H     0.05552   0.22632   0.48227   0.00000  Uiso   1.00
H64    H     0.08422   0.25333   0.38175   0.00000  Uiso   1.00
H65    H     0.18677   0.16517   0.39996   0.00000  Uiso   1.00
H66    H     0.10433   0.17285   0.07257   0.00000  Uiso   1.00
H67    H     0.22982   0.15589   0.42856   0.00000  Uiso   1.00
H68    H     0.28190   0.05455   0.02386   0.00000  Uiso   1.00
H69    H     0.32871   0.18294   0.15614   0.00000  Uiso   1.00
H70    H     0.33096   0.23602   0.18108   0.00000  Uiso   1.00
O71    O     0.16667   0.16667   0.25000   0.00000  Uiso   1.00
O72    O     0.15693   0.12393   0.16625   0.00000  Uiso   1.00
O73    O     0.12687   0.20646   0.33749   0.00000  Uiso   1.00
O74    O     0.21088   0.17493   0.15877   0.00000  Uiso   1.00
O75    O     0.17198   0.16135   0.33749   0.00000  Uiso   1.00
O76    O     0.23822   0.03803   0.49447   0.00000  Uiso   1.00
O77    O     0.14501   0.20715   0.13569   0.00000  Uiso   1.00
O78    O     0.23395   0.03751   0.09306   0.00000  Uiso   1.00
O79    O     0.03096   0.23389   0.42209   0.00000  Uiso   1.00
O80    O     0.17849   0.08101   0.27820   0.00000  Uiso   1.00
O81    O     0.14581   0.26136   0.26767   0.00000  Uiso   1.00
O82    O     0.07452   0.13251   0.23607   0.00000  Uiso   1.00
O83    O     0.26785   0.19179   0.21805   0.00000  Uiso   1.00
O84    O     0.06990   0.18960   0.27820   0.00000  Uiso   1.00
O85    O     0.25440   0.15277   0.26767   0.00000  Uiso   1.00
O86    O     0.13800   0.06903   0.23607   0.00000  Uiso   1.00
O87    O     0.20437   0.25527   0.21805   0.00000  Uiso   1.00
Zn88   Zn    0.19244   0.14090   0.28277   0.00000  Uiso   1.00
Zn89   Zn    0.13459   0.12378   0.22257   0.00000  Uiso   1.00
Zn90   Zn    0.21166   0.19664   0.21188   0.00000  Uiso   1.00
Zn91   Zn    0.12798   0.20535   0.28277   0.00000  Uiso   1.00
C92    C     0.38619   0.15999   0.25894   0.00000  Uiso   1.00
C93    C     0.54791   0.15131   0.45916   0.00000  Uiso   1.00
C94    C     0.57002   0.13116   0.47799   0.00000  Uiso   1.00
C95    C     0.61473   0.17320   0.24079   0.00000  Uiso   1.00
C96    C     0.55166   0.12599   0.01887   0.00000  Uiso   1.00
C97    C     0.51937   0.15142   0.04074   0.00000  Uiso   1.00
C98    C     0.56505   0.09831   0.03925   0.00000  Uiso   1.00
C99    C     0.55365   0.10347   0.08103   0.00000  Uiso   1.00
C100   C     0.51464   0.16220   0.08135   0.00000  Uiso   1.00
C101   C     0.66126   0.17401   0.23629   0.00000  Uiso   1.00
C102   C     0.34073   0.15758   0.26383   0.00000  Uiso   1.00
C103   C     0.43003   0.21419   0.42331   0.00000  Uiso   1.00
C104   C     0.51398   0.32242   0.23479   0.00000  Uiso   1.00
C105   C     0.48608   0.01209   0.26175   0.00000  Uiso   1.00
C106   C     0.48835   0.05636   0.25978   0.00000  Uiso   1.00
C107   C     0.51023   0.27781   0.24048   0.00000  Uiso   1.00
C108   C     0.52194   0.14525   0.14409   0.00000  Uiso   1.00
C109   C     0.47851   0.18790   0.35627   0.00000  Uiso   1.00
C110   C     0.46707   0.19525   0.39988   0.00000  Uiso   1.00
C111   C     0.53095   0.13731   0.10140   0.00000  Uiso   1.00
C112   C     0.41787   0.21327   0.46424   0.00000  Uiso   1.00
C113   C     0.58669   0.06162   0.01783   0.00000  Uiso   1.00
C114   C     0.49255   0.17954   0.41856   0.00000  Uiso   1.00
C115   C     0.36290   0.19260   0.20101   0.00000  Uiso   1.00
C116   C     0.34860   0.20830   0.16910   0.00000  Uiso   1.00
C117   C     0.64408   0.13823   0.30087   0.00000  Uiso   1.00
C118   C     0.66652   0.12418   0.32807   0.00000  Uiso   1.00
C119   C     0.54750   0.01007   0.20026   0.00000  Uiso   1.00
C120   C     0.57778   0.31591   0.16945   0.00000  Uiso   1.00
C121   C     0.49825   0.20269   0.10077   0.00000  Uiso   1.00
C122   C     0.56577   0.07465   0.10407   0.00000  Uiso   1.00
C123   C     0.61565   0.12214   0.45474   0.00000  Uiso   1.00
C124   C     0.64926   0.14679   0.47349   0.00000  Uiso   1.00
C125   C     0.48180   0.18076   0.45986   0.00000  Uiso   1.00
C126   C     0.40315   0.23525   0.40679   0.00000  Uiso   1.00
C127   C     0.44270   0.19619   0.48240   0.00000  Uiso   1.00
C128   C     0.50772   0.16557   0.47941   0.00000  Uiso   1.00
C129   C     0.49345   0.16573   0.02098   0.00000  Uiso   1.00
C130   C     0.45218   0.17723   0.04169   0.00000  Uiso   1.00
C131   C     0.42796   0.19356   0.02293   0.00000  Uiso   1.00
H132   H     0.39701   0.20331   0.04015   0.00000  Uiso   1.00
H133   H     0.37756   0.21823   0.14499   0.00000  Uiso   1.00
H134   H     0.38292   0.21912   0.21251   0.00000  Uiso   1.00
H135   H     0.38424   0.16823   0.18567   0.00000  Uiso   1.00
H136   H     0.35534   0.10080   0.31183   0.00000  Uiso   1.00
H137   H     0.35135   0.15142   0.34068   0.00000  Uiso   1.00
H138   H     0.64189   0.10927   0.35279   0.00000  Uiso   1.00
H139   H     0.62267   0.16147   0.31901   0.00000  Uiso   1.00
H140   H     0.62450   0.10982   0.29168   0.00000  Uiso   1.00
H141   H     0.59902   0.30313   0.18286   0.00000  Uiso   1.00
H142   H     0.55917   0.29036   0.15533   0.00000  Uiso   1.00
H143   H     0.46244   0.33225   0.28703   0.00000  Uiso   1.00
H144   H     0.59887   0.00191   0.14603   0.00000  Uiso   1.00
H145   H     0.53010   0.02463   0.18418   0.00000  Uiso   1.00
H146   H     0.56792   0.03562   0.21249   0.00000  Uiso   1.00
H147   H     0.50290   0.22865   0.08315   0.00000  Uiso   1.00
H148   H     0.57194   0.08617   0.13203   0.00000  Uiso   1.00
H149   H     0.64573   0.18070   0.47747   0.00000  Uiso   1.00
H150   H     0.64599   0.13611   0.00254   0.00000  Uiso   1.00
H151   H     0.34875   0.14217   0.45397   0.00000  Uiso   1.00
H152   H     0.61911   0.08842   0.45054   0.00000  Uiso   1.00
H153   H     0.62405   0.13146   0.42431   0.00000  Uiso   1.00
H154   H     0.38885   0.22632   0.48227   0.00000  Uiso   1.00
H155   H     0.41755   0.25333   0.38175   0.00000  Uiso   1.00
H156   H     0.52010   0.16517   0.39996   0.00000  Uiso   1.00
H157   H     0.43766   0.17285   0.07257   0.00000  Uiso   1.00
H158   H     0.56315   0.15589   0.42856   0.00000  Uiso   1.00
H159   H     0.61524   0.05455   0.02386   0.00000  Uiso   1.00
H160   H     0.66204   0.18294   0.15614   0.00000  Uiso   1.00
H161   H     0.66430   0.23602   0.18108   0.00000  Uiso   1.00
O162   O     0.50000   0.16667   0.25000   0.00000  Uiso   1.00
O163   O     0.49027   0.12393   0.16625   0.00000  Uiso   1.00
O164   O     0.46020   0.20646   0.33749   0.00000  Uiso   1.00
O165   O     0.54421   0.17493   0.15877   0.00000  Uiso   1.00
O166   O     0.50532   0.16135   0.33749   0.00000  Uiso   1.00
O167   O     0.57155   0.03803   0.49447   0.00000  Uiso   1.00
O168   O     0.47834   0.20715   0.13569   0.00000  Uiso   1.00
O169   O     0.56728   0.03751   0.09306   0.00000  Uiso   1.00
O170   O     0.36429   0.23389   0.42209   0.00000  Uiso   1.00
O171   O     0.51182   0.08101   0.27820   0.00000  Uiso   1.00
O172   O     0.47914   0.26136   0.26767   0.00000  Uiso   1.00
O173   O     0.40785   0.13251   0.23607   0.00000  Uiso   1.00
O174   O     0.60119   0.19179   0.21805   0.00000  Uiso   1.00
O175   O     0.40323   0.18960   0.27820   0.00000  Uiso   1.00
O176   O     0.58773   0.15277   0.26767   0.00000  Uiso   1.00
O177   O     0.47133   0.06903   0.23607   0.00000  Uiso   1.00
O178   O     0.53771   0.25527   0.21805   0.00000  Uiso   1.00
Zn179  Zn    0.52577   0.14090   0.28277   0.00000  Uiso   1.00
Zn180  Zn    0.46792   0.12378   0.22257   0.00000  Uiso   1.00
Zn181  Zn    0.54500   0.19664   0.21188   0.00000  Uiso   1.00
Zn182  Zn    0.46131   0.20535   0.28277   0.00000  Uiso   1.00
C183   C     0.71952   0.15999   0.25894   0.00000  Uiso   1.00
C184   C     0.88124   0.15131   0.45916   0.00000  Uiso   1.00
C185   C     0.90335   0.13116   0.47799   0.00000  Uiso   1.00
C186   C     0.94807   0.17320   0.24079   0.00000  Uiso   1.00
C187   C     0.88499   0.12599   0.01887   0.00000  Uiso   1.00
C188   C     0.85270   0.15142   0.04074   0.00000  Uiso   1.00
C189   C     0.89838   0.09831   0.03925   0.00000  Uiso   1.00
C190   C     0.88699   0.10347   0.08103   0.00000  Uiso   1.00
C191   C     0.84797   0.16220   0.08135   0.00000  Uiso   1.00
C192   C     0.99460   0.17401   0.23629   0.00000  Uiso   1.00
C193   C     0.67406   0.15758   0.26383   0.00000  Uiso   1.00
C194   C     0.76337   0.21419   0.42331   0.00000  Uiso   1.00
C195   C     0.84732   0.32242   0.23479   0.00000  Uiso   1.00
C196   C     0.81942   0.01209   0.26175   0.00000  Uiso   1.00
C197   C     0.82168   0.05636   0.25978   0.00000  Uiso   1.00
C198   C     0.84357   0.27781   0.24048   0.00000  Uiso   1.00
C199   C     0.85527   0.14525   0.14409   0.00000  Uiso   1.00
C200   C     0.81184   0.18790   0.35627   0.00000  Uiso   1.00
C201   C     0.80040   0.19525   0.39988   0.00000  Uiso   1.00
C202   C     0.86429   0.13731   0.10140   0.00000  Uiso   1.00
C203   C     0.75120   0.21327   0.46424   0.00000  Uiso   1.00
C204   C     0.92002   0.06162   0.01783   0.00000  Uiso   1.00
C205   C     0.82589   0.17954   0.41856   0.00000  Uiso   1.00
C206   C     0.69623   0.19260   0.20101   0.00000  Uiso   1.00
C207   C     0.68193   0.20830   0.16910   0.00000  Uiso   1.00
C208   C     0.97741   0.13823   0.30087   0.00000  Uiso   1.00
C209   C     0.99985   0.12418   0.32807   0.00000  Uiso   1.00
C210   C     0.88084   0.01007   0.20026   0.00000  Uiso   1.00
C211   C     0.91111   0.31591   0.16945   0.00000  Uiso   1.00
C212   C     0.83158   0.20269   0.10077   0.00000  Uiso   1.00
C213   C     0.89910   0.07465   0.10407   0.00000  Uiso   1.00
C214   C     0.94898   0.12214   0.45474   0.00000  Uiso   1.00
C215   C     0.98260   0.14679   0.47349   0.00000  Uiso   1.00
C216   C     0.81514   0.18076   0.45986   0.00000  Uiso   1.00
C217   C     0.73648   0.23525   0.40679   0.00000  Uiso   1.00
C218   C     0.77603   0.19619   0.48240   0.00000  Uiso   1.00
C219   C     0.84105   0.16557   0.47941   0.00000  Uiso   1.00
C220   C     0.82678   0.16573   0.02098   0.00000  Uiso   1.00
C221   C     0.78552   0.17723   0.04169   0.00000  Uiso   1.00
C222   C     0.76129   0.19356   0.02293   0.00000  Uiso   1.00
H223   H     0.73034   0.20331   0.04015   0.00000  Uiso   1.00
H224   H     0.71090   0.21823   0.14499   0.00000  Uiso   1.00
H225   H     0.71625   0.21912   0.21251   0.00000  Uiso   1.00
H226   H     0.71758   0.16823   0.18567   0.00000  Uiso   1.00
H227   H     0.68867   0.10080   0.31183   0.00000  Uiso   1.00
H228   H     0.68468   0.15142   0.34068   0.00000  Uiso   1.00
H229   H     0.97522   0.10927   0.35279   0.00000  Uiso   1.00
H230   H     0.95600   0.16147   0.31901   0.00000  Uiso   1.00
H231   H     0.95784   0.10982   0.29168   0.00000  Uiso   1.00
H232   H     0.93236   0.30313   0.18286   0.00000  Uiso   1.00
H233   H     0.89250   0.29036   0.15533   0.00000  Uiso   1.00
H234   H     0.79577   0.33225   0.28703   0.00000  Uiso   1.00
H235   H     0.93220   0.00191   0.14603   0.00000  Uiso   1.00
H236   H     0.86343   0.02463   0.18418   0.00000  Uiso   1.00
H237   H     0.90125   0.03562   0.21249   0.00000  Uiso   1.00
H238   H     0.83624   0.22865   0.08315   0.00000  Uiso   1.00
H239   H     0.90527   0.08617   0.13203   0.00000  Uiso   1.00
H240   H     0.97906   0.18070   0.47747   0.00000  Uiso   1.00
H241   H     0.97932   0.13611   0.00254   0.00000  Uiso   1.00
H242   H     0.68208   0.14217   0.45397   0.00000  Uiso   1.00
H243   H     0.95244   0.08842   0.45054   0.00000  Uiso   1.00
H244   H     0.95738   0.13146   0.42431   0.00000  Uiso   1.00
H245   H     0.72219   0.22632   0.48227   0.00000  Uiso   1.00
H246   H     0.75089   0.25333   0.38175   0.00000  Uiso   1.00
H247   H     0.85344   0.16517   0.39996   0.00000  Uiso   1.00
H248   H     0.77100   0.17285   0.07257   0.00000  Uiso   1.00
H249   H     0.89649   0.15589   0.42856   0.00000  Uiso   1.00
H250   H     0.94857   0.05455   0.02386   0.00000  Uiso   1.00
H251   H     0.99538   0.18294   0.15614   0.00000  Uiso   1.00
H252   H     0.99763   0.23602   0.18108   0.00000  Uiso   1.00
O253   O     0.83333   0.16667   0.25000   0.00000  Uiso   1.00
O254   O     0.82360   0.12393   0.16625   0.00000  Uiso   1.00
O255   O     0.79354   0.20646   0.33749   0.00000  Uiso   1.00
O256   O     0.87755   0.17493   0.15877   0.00000  Uiso   1.00
O257   O     0.83865   0.16135   0.33749   0.00000  Uiso   1.00
O258   O     0.90489   0.03803   0.49447   0.00000  Uiso   1.00
O259   O     0.81168   0.20715   0.13569   0.00000  Uiso   1.00
O260   O     0.90061   0.03751   0.09306   0.00000  Uiso   1.00
O261   O     0.69762   0.23389   0.42209   0.00000  Uiso   1.00
O262   O     0.84515   0.08101   0.27820   0.00000  Uiso   1.00
O263   O     0.81247   0.26136   0.26767   0.00000  Uiso   1.00
O264   O     0.74119   0.13251   0.23607   0.00000  Uiso   1.00
O265   O     0.93452   0.19179   0.21805   0.00000  Uiso   1.00
O266   O     0.73656   0.18960   0.27820   0.00000  Uiso   1.00
O267   O     0.92106   0.15277   0.26767   0.00000  Uiso   1.00
O268   O     0.80467   0.06903   0.23607   0.00000  Uiso   1.00
O269   O     0.87104   0.25527   0.21805   0.00000  Uiso   1.00
Zn270  Zn    0.85910   0.14090   0.28277   0.00000  Uiso   1.00
Zn271  Zn    0.80125   0.12378   0.22257   0.00000  Uiso   1.00
Zn272  Zn    0.87833   0.19664   0.21188   0.00000  Uiso   1.00
Zn273  Zn    0.79465   0.20535   0.28277   0.00000  Uiso   1.00
C274   C     0.05286   0.49333   0.25894   0.00000  Uiso   1.00
C275   C     0.21457   0.48464   0.45916   0.00000  Uiso   1.00
C276   C     0.23669   0.46449   0.47799   0.00000  Uiso   1.00
C277   C     0.28140   0.50653   0.24079   0.00000  Uiso   1.00
C278   C     0.21833   0.45932   0.01887   0.00000  Uiso   1.00
C279   C     0.18604   0.48476   0.04074   0.00000  Uiso   1.00
C280   C     0.23171   0.43164   0.03925   0.00000  Uiso   1.00
C281   C     0.22032   0.43680   0.08103   0.00000  Uiso   1.00
C282   C     0.18131   0.49554   0.08135   0.00000  Uiso   1.00
C283   C     0.32793   0.50735   0.23629   0.00000  Uiso   1.00
C284   C     0.00740   0.49091   0.26383   0.00000  Uiso   1.00
C285   C     0.09670   0.54753   0.42331   0.00000  Uiso   1.00
C286   C     0.18065   0.65575   0.23479   0.00000  Uiso   1.00
C287   C     0.15275   0.34542   0.26175   0.00000  Uiso   1.00
C288   C     0.15501   0.38969   0.25978   0.00000  Uiso   1.00
C289   C     0.17690   0.61115   0.24048   0.00000  Uiso   1.00
C290   C     0.18861   0.47858   0.14409   0.00000  Uiso   1.00
C291   C     0.14518   0.52123   0.35627   0.00000  Uiso   1.00
C292   C     0.13374   0.52858   0.39988   0.00000  Uiso   1.00
C293   C     0.19762   0.47064   0.10140   0.00000  Uiso   1.00
C294   C     0.08454   0.54660   0.46424   0.00000  Uiso   1.00
C295   C     0.25335   0.39495   0.01783   0.00000  Uiso   1.00
C296   C     0.15922   0.51287   0.41856   0.00000  Uiso   1.00
C297   C     0.02956   0.52593   0.20101   0.00000  Uiso   1.00
C298   C     0.01527   0.54164   0.16910   0.00000  Uiso   1.00
C299   C     0.31075   0.47156   0.30087   0.00000  Uiso   1.00
C300   C     0.33319   0.45751   0.32807   0.00000  Uiso   1.00
C301   C     0.21417   0.34340   0.20026   0.00000  Uiso   1.00
C302   C     0.24445   0.64925   0.16945   0.00000  Uiso   1.00
C303   C     0.16492   0.53603   0.10077   0.00000  Uiso   1.00
C304   C     0.23244   0.40798   0.10407   0.00000  Uiso   1.00
C305   C     0.28232   0.45547   0.45474   0.00000  Uiso   1.00
C306   C     0.31593   0.48013   0.47349   0.00000  Uiso   1.00
C307   C     0.14847   0.51409   0.45986   0.00000  Uiso   1.00
C308   C     0.06981   0.56858   0.40679   0.00000  Uiso   1.00
C309   C     0.10936   0.52952   0.48240   0.00000  Uiso   1.00
C310   C     0.17439   0.49890   0.47941   0.00000  Uiso   1.00
C311   C     0.16011   0.49907   0.02098   0.00000  Uiso   1.00
C312   C     0.11885   0.51056   0.04169   0.00000  Uiso   1.00
C313   C     0.09462   0.52689   0.02293   0.00000  Uiso   1.00
H314   H     0.06367   0.53665   0.04015   0.00000  Uiso   1.00
H315   H     0.04423   0.55156   0.14499   0.00000  Uiso   1.00
H316   H     0.04958   0.55246   0.21251   0.00000  Uiso   1.00
H317   H     0.05091   0.50157   0.18567   0.00000  Uiso   1.00
H318   H     0.02200   0.43414   0.31183   0.00000  Uiso   1.00
H319   H     0.01801   0.48475   0.34068   0.00000  Uiso   1.00
H320   H     0.30855   0.44260   0.35279   0.00000  Uiso   1.00
H321   H     0.28934   0.49480   0.31901   0.00000  Uiso   1.00
H322   H     0.29117   0.44316   0.29168   0.00000  Uiso   1.00
H323   H     0.26569   0.63646   0.18286   0.00000  Uiso   1.00
H324   H     0.22584   0.62369   0.15533   0.00000  Uiso   1.00
H325   H     0.12911   0.66559   0.28703   0.00000  Uiso   1.00
H326   H     0.26554   0.33525   0.14603   0.00000  Uiso   1.00
H327   H     0.19676   0.35796   0.18418   0.00000  Uiso   1.00
H328   H     0.23458   0.36895   0.21249   0.00000  Uiso   1.00
H329   H     0.16957   0.56198   0.08315   0.00000  Uiso   1.00
H330   H     0.23861   0.41950   0.13203   0.00000  Uiso   1.00
H331   H     0.31239   0.51403   0.47747   0.00000  Uiso   1.00
H332   H     0.31265   0.46945   0.00254   0.00000  Uiso   1.00
H333   H     0.01541   0.47550   0.45397   0.00000  Uiso   1.00
H334   H     0.28577   0.42175   0.45054   0.00000  Uiso   1.00
H335   H     0.29071   0.46479   0.42431   0.00000  Uiso   1.00
H336   H     0.05552   0.55965   0.48227   0.00000  Uiso   1.00
H337   H     0.08422   0.58666   0.38175   0.00000  Uiso   1.00
H338   H     0.18677   0.49850   0.39996   0.00000  Uiso   1.00
H339   H     0.10433   0.50618   0.07257   0.00000  Uiso   1.00
H340   H     0.22982   0.48922   0.42856   0.00000  Uiso   1.00
H341   H     0.28190   0.38788   0.02386   0.00000  Uiso   1.00
H342   H     0.32871   0.51627   0.15614   0.00000  Uiso   1.00
H343   H     0.33096   0.56936   0.18108   0.00000  Uiso   1.00
O344   O     0.16667   0.50000   0.25000   0.00000  Uiso   1.00
O345   O     0.15693   0.45726   0.16625   0.00000  Uiso   1.00
O346   O     0.12687   0.53979   0.33749   0.00000  Uiso   1.00
O347   O     0.21088   0.50826   0.15877   0.00000  Uiso   1.00
O348   O     0.17198   0.49468   0.33749   0.00000  Uiso   1.00
O349   O     0.23822   0.37136   0.49447   0.00000  Uiso   1.00
O350   O     0.14501   0.54048   0.13569   0.00000  Uiso   1.00
O351   O     0.23395   0.37084   0.09306   0.00000  Uiso   1.00
O352   O     0.03096   0.56723   0.42209   0.00000  Uiso   1.00
O353   O     0.17849   0.41434   0.27820   0.00000  Uiso   1.00
O354   O     0.14581   0.59469   0.26767   0.00000  Uiso   1.00
O355   O     0.07452   0.46584   0.23607   0.00000  Uiso   1.00
O356   O     0.26785   0.52512   0.21805   0.00000  Uiso   1.00
O357   O     0.06990   0.52293   0.27820   0.00000  Uiso   1.00
O358   O     0.25440   0.48610   0.26767   0.00000  Uiso   1.00
O359   O     0.13800   0.40236   0.23607   0.00000  Uiso   1.00
O360   O     0.20437   0.58860   0.21805   0.00000  Uiso   1.00
Zn361  Zn    0.19244   0.47423   0.28277   0.00000  Uiso   1.00
Zn362  Zn    0.13459   0.45711   0.22257   0.00000  Uiso   1.00
Zn363  Zn    0.21166   0.52997   0.21188   0.00000  Uiso   1.00
Zn364  Zn    0.12798   0.53868   0.28277   0.00000  Uiso   1.00
C365   C     0.38619   0.49333   0.25894   0.00000  Uiso   1.00
C366   C     0.54791   0.48464   0.45916   0.00000  Uiso   1.00
C367   C     0.57002   0.46449   0.47799   0.00000  Uiso   1.00
C368   C     0.61473   0.50653   0.24079   0.00000  Uiso   1.00
C369   C     0.55166   0.45932   0.01887   0.00000  Uiso   1.00
C370   C     0.51937   0.48476   0.04074   0.00000  Uiso   1.00
C371   C     0.56505   0.43164   0.03925   0.00000  Uiso   1.00
C372   C     0.55365   0.43680   0.08103   0.00000  Uiso   1.00
C373   C     0.51464   0.49554   0.08135   0.00000  Uiso   1.00
C374   C     0.66126   0.50735   0.23629   0.00000  Uiso   1.00
C375   C     0.34073   0.49091   0.26383   0.00000  Uiso   1.00
C376   C     0.43003   0.54753   0.42331   0.00000  Uiso   1.00
C377   C     0.51398   0.65575   0.23479   0.00000  Uiso   1.00
C378   C     0.48608   0.34542   0.26175   0.00000  Uiso   1.00
C379   C     0.48835   0.38969   0.25978   0.00000  Uiso   1.00
C380   C     0.51023   0.61115   0.24048   0.00000  Uiso   1.00
C381   C     0.52194   0.47858   0.14409   0.00000  Uiso   1.00
C382   C     0.47851   0.52123   0.35627   0.00000  Uiso   1.00
C383   C     0.46707   0.52858   0.39988   0.00000  Uiso   1.00
C384   C     0.53095   0.47064   0.10140   0.00000  Uiso   1.00
C385   C     0.41787   0.54660   0.46424   0.00000  Uiso   1.00
C386   C     0.58669   0.39495   0.01783   0.00000  Uiso   1.00
C387   C     0.49255   0.51287   0.41856   0.00000  Uiso   1.00
C388   C     0.36290   0.52593   0.20101   0.00000  Uiso   1.00
C389   C     0.34860   0.54164   0.16910   0.00000  Uiso   1.00
C390   C     0.64408   0.47156   0.30087   0.00000  Uiso   1.00
C391   C     0.66652   0.45751   0.32807   0.00000  Uiso   1.00
C392   C     0.54750   0.34340   0.20026   0.00000  Uiso   1.00
C393   C     0.57778   0.64925   0.16945   0.00000  Uiso   1.00
C394   C     0.49825   0.53603   0.10077   0.00000  Uiso   1.00
C395   C     0.56577   0.40798   0.10407   0.00000  Uiso   1.00
C396   C     0.61565   0.45547   0.45474   0.00000  Uiso   1.00
C397   C     0.64926   0.48013   0.47349   0.00000  Uiso   1.00
C398   C     0.48180   0.51409   0.45986   0.00000  Uiso   1.00
C399   C     0.40315   0.56858   0.40679   0.00000  Uiso   1.00
C400   C     0.44270   0.52952   0.48240   0.00000  Uiso   1.00
C401   C     0.50772   0.49890   0.47941   0.00000  Uiso   1.00
C402   C     0.49345   0.49907   0.02098   0.00000  Uiso   1.00
C403   C     0.45218   0.51056   0.04169   0.00000  Uiso   1.00
C404   C     0.42796   0.52689   0.02293   0.00000  Uiso   1.00
H405   H     0.39701   0.53665   0.04015   0.00000  Uiso   1.00
H406   H     0.37756   0.55156   0.14499   0.00000  Uiso   1.00
H407   H     0.38292   0.55246   0.21251   0.00000  Uiso   1.00
H408   H     0.38424   0.50157   0.18567   0.00000  Uiso   1.00
H409   H     0.35534   0.43414   0.31183   0.00000  Uiso   1.00
H410   H     0.35135   0.48475   0.34068   0.00000  Uiso   1.00
H411   H     0.64189   0.44260   0.35279   0.00000  Uiso   1.00
H412   H     0.62267   0.49480   0.31901   0.00000  Uiso   1.00
H413   H     0.62450   0.44316   0.29168   0.00000  Uiso   1.00
H414   H     0.59902   0.63646   0.18286   0.00000  Uiso   1.00
H415   H     0.55917   0.62369   0.15533   0.00000  Uiso   1.00
H416   H     0.46244   0.66559   0.28703   0.00000  Uiso   1.00
H417   H     0.59887   0.33525   0.14603   0.00000  Uiso   1.00
H418   H     0.53010   0.35796   0.18418   0.00000  Uiso   1.00
H419   H     0.56792   0.36895   0.21249   0.00000  Uiso   1.00
H420   H     0.50290   0.56198   0.08315   0.00000  Uiso   1.00
H421   H     0.57194   0.41950   0.13203   0.00000  Uiso   1.00
H422   H     0.64573   0.51403   0.47747   0.00000  Uiso   1.00
H423   H     0.64599   0.46945   0.00254   0.00000  Uiso   1.00
H424   H     0.34875   0.47550   0.45397   0.00000  Uiso   1.00
H425   H     0.61911   0.42175   0.45054   0.00000  Uiso   1.00
H426   H     0.62405   0.46479   0.42431   0.00000  Uiso   1.00
H427   H     0.38885   0.55965   0.48227   0.00000  Uiso   1.00
H428   H     0.41755   0.58666   0.38175   0.00000  Uiso   1.00
H429   H     0.52010   0.49850   0.39996   0.00000  Uiso   1.00
H430   H     0.43766   0.50618   0.07257   0.00000  Uiso   1.00
H431   H     0.56315   0.48922   0.42856   0.00000  Uiso   1.00
H432   H     0.61524   0.38788   0.02386   0.00000  Uiso   1.00
H433   H     0.66204   0.51627   0.15614   0.00000  Uiso   1.00
H434   H     0.66430   0.56936   0.18108   0.00000  Uiso   1.00
O435   O     0.50000   0.50000   0.25000   0.00000  Uiso   1.00
O436   O     0.49027   0.45726   0.16625   0.00000  Uiso   1.00
O437   O     0.46020   0.53979   0.33749   0.00000  Uiso   1.00
O438   O     0.54421   0.50826   0.15877   0.00000  Uiso   1.00
O439   O     0.50532   0.49468   0.33749   0.00000  Uiso   1.00
O440   O     0.57155   0.37136   0.49447   0.00000  Uiso   1.00
O441   O     0.47834   0.54048   0.13569   0.00000  Uiso   1.00
O442   O     0.56728   0.37084   0.09306   0.00000  Uiso   1.00
O443   O     0.36429   0.56723   0.42209   0.00000  Uiso   1.00
O444   O     0.51182   0.41434   0.27820   0.00000  Uiso   1.00
O445   O     0.47914   0.59469   0.26767   0.00000  Uiso   1.00
O446   O     0.40785   0.46584   0.23607   0.00000  Uiso   1.00
O447   O     0.60119   0.52512   0.21805   0.00000  Uiso   1.00
O448   O     0.40323   0.52293   0.27820   0.00000  Uiso   1.00
O449   O     0.58773   0.48610   0.26767   0.00000  Uiso   1.00
O450   O     0.47133   0.40236   0.23607   0.00000  Uiso   1.00
O451   O     0.53771   0.58860   0.21805   0.00000  Uiso   1.00
Zn452  Zn    0.52577   0.47423   0.28277   0.00000  Uiso   1.00
Zn453  Zn    0.46792   0.45711   0.22257   0.00000  Uiso   1.00
Zn454  Zn    0.54500   0.52997   0.21188   0.00000  Uiso   1.00
Zn455  Zn    0.46131   0.53868   0.28277   0.00000  Uiso   1.00
C456   C     0.71952   0.49333   0.25894   0.00000  Uiso   1.00
C457   C     0.88124   0.48464   0.45916   0.00000  Uiso   1.00
C458   C     0.90335   0.46449   0.47799   0.00000  Uiso   1.00
C459   C     0.94807   0.50653   0.24079   0.00000  Uiso   1.00
C460   C     0.88499   0.45932   0.01887   0.00000  Uiso   1.00
C461   C     0.85270   0.48476   0.04074   0.00000  Uiso   1.00
C462   C     0.89838   0.43164   0.03925   0.00000  Uiso   1.00
C463   C     0.88699   0.43680   0.08103   0.00000  Uiso   1.00
C464   C     0.84797   0.49554   0.08135   0.00000  Uiso   1.00
C465   C     0.99460   0.50735   0.23629   0.00000  Uiso   1.00
C466   C     0.67406   0.49091   0.26383   0.00000  Uiso   1.00
C467   C     0.76337   0.54753   0.42331   0.00000  Uiso   1.00
C468   C     0.84732   0.65575   0.23479   0.00000  Uiso   1.00
C469   C     0.81942   0.34542   0.26175   0.00000  Uiso   1.00
C470   C     0.82168   0.38969   0.25978   0.00000  Uiso   1.00
C471   C     0.84357   0.61115   0.24048   0.00000  Uiso   1.00
C472   C     0.85527   0.47858   0.14409   0.00000  Uiso   1.00
C473   C     0.81184   0.52123   0.35627   0.00000  Uiso   1.00
C474   C     0.80040   0.52858   0.39988   0.00000  Uiso   1.00
C475   C     0.86429   0.47064   0.10140   0.00000  Uiso   1.00
C476   C     0.75120   0.54660   0.46424   0.00000  Uiso   1.00
C477   C     0.92002   0.39495   0.01783   0.00000  Uiso   1.00
C478   C     0.82589   0.51287   0.41856   0.00000  Uiso   1.00
C479   C     0.69623   0.52593   0.20101   0.00000  Uiso   1.00
C480   C     0.68193   0.54164   0.16910   0.00000  Uiso   1.00
C481   C     0.97741   0.47156   0.30087   0.00000  Uiso   1.00
C482   C     0.99985   0.45751   0.32807   0.00000  Uiso   1.00
C483   C     0.88084   0.34340   0.20026   0.00000  Uiso   1.00
C484   C     0.91111   0.64925   0.16945   0.00000  Uiso   1.00
C485   C     0.83158   0.53603   0.10077   0.00000  Uiso   1.00
C486   C     0.89910   0.40798   0.10407   0.00000  Uiso   1.00
C487   C     0.94898   0.45547   0.45474   0.00000  Uiso   1.00
C488   C     0.98260   0.48013   0.47349   0.00000  Uiso   1.00
C489   C     0.81514   0.51409   0.45986   0.00000  Uiso   1.00
C490   C     0.73648   0.56858   0.40679   0.00000  Uiso   1.00
C491   C     0.77603   0.52952   0.48240   0.00000  Uiso   1.00
C492   C     0.84105   0.49890   0.47941   0.00000  Uiso   1.00
C493   C     0.82678   0.49907   0.02098   0.00000  Uiso   1.00
C494   C     0.78552   0.51056   0.04169   0.00000  Uiso   1.00
C495   C     0.76129   0.52689   0.02293   0.00000  Uiso   1.00
H496   H     0.73034   0.53665   0.04015   0.00000  Uiso   1.00
H497   H     0.71090   0.55156   0.14499   0.00000  Uiso   1.00
H498   H     0.71625   0.55246   0.21251   0.00000  Uiso   1.00
H499   H     0.71758   0.50157   0.18567   0.00000  Uiso   1.00
H500   H     0.68867   0.43414   0.31183   0.00000  Uiso   1.00
H501   H     0.68468   0.48475   0.34068   0.00000  Uiso   1.00
H502   H     0.97522   0.44260   0.35279   0.00000  Uiso   1.00
H503   H     0.95600   0.49480   0.31901   0.00000  Uiso   1.00
H504   H     0.95784   0.44316   0.29168   0.00000  Uiso   1.00
H505   H     0.93236   0.63646   0.18286   0.00000  Uiso   1.00
H506   H     0.89250   0.62369   0.15533   0.00000  Uiso   1.00
H507   H     0.79577   0.66559   0.28703   0.00000  Uiso   1.00
H508   H     0.93220   0.33525   0.14603   0.00000  Uiso   1.00
H509   H     0.86343   0.35796   0.18418   0.00000  Uiso   1.00
H510   H     0.90125   0.36895   0.21249   0.00000  Uiso   1.00
H511   H     0.83624   0.56198   0.08315   0.00000  Uiso   1.00
H512   H     0.90527   0.41950   0.13203   0.00000  Uiso   1.00
H513   H     0.97906   0.51403   0.47747   0.00000  Uiso   1.00
H514   H     0.97932   0.46945   0.00254   0.00000  Uiso   1.00
H515   H     0.68208   0.47550   0.45397   0.00000  Uiso   1.00
H516   H     0.95244   0.42175   0.45054   0.00000  Uiso   1.00
H517   H     0.95738   0.46479   0.42431   0.00000  Uiso   1.00
H518   H     0.72219   0.55965   0.48227   0.00000  Uiso   1.00
H519   H     0.75089   0.58666   0.38175   0.00000  Uiso   1.00
H520   H     0.85344   0.49850   0.39996   0.00000  Uiso   1.00
H521   H     0.77100   0.50618   0.07257   0.00000  Uiso   1.00
H522   H     0.89649   0.48922   0.42856   0.00000  Uiso   1.00
H523   H     0.94857   0.38788   0.02386   0.00000  Uiso   1.00
H524   H     0.99538   0.51627   0.15614   0.00000  Uiso   1.00
H525   H     0.99763   0.56936   0.18108   0.00000  Uiso   1.00
O526   O     0.83333   0.50000   0.25000   0.00000  Uiso   1.00
O527   O     0.82360   0.45726   0.16625   0.00000  Uiso   1.00
O528   O     0.79354   0.53979   0.33749   0.00000  Uiso   1.00
O529   O     0.87755   0.50826   0.15877   0.00000  Uiso   1.00
O530   O     0.83865   0.49468   0.33749   0.00000  Uiso   1.00
O531   O     0.90489   0.37136   0.49447   0.00000  Uiso   1.00
O532   O     0.81168   0.54048   0.13569   0.00000  Uiso   1.00
O533   O     0.90061   0.37084   0.09306   0.00000  Uiso   1.00
O534   O     0.69762   0.56723   0.42209   0.00000  Uiso   1.00
O535   O     0.84515   0.41434   0.27820   0.00000  Uiso   1.00
O536   O     0.81247   0.59469   0.26767   0.00000  Uiso   1.00
O537   O     0.74119   0.46584   0.23607   0.00000  Uiso   1.00
O538   O     0.93452   0.52512   0.21805   0.00000  Uiso   1.00
O539   O     0.73656   0.52293   0.27820   0.00000  Uiso   1.00
O540   O     0.92106   0.48610   0.26767   0.00000  Uiso   1.00
O541   O     0.80467   0.40236   0.23607   0.00000  Uiso   1.00
O542   O     0.87104   0.58860   0.21805   0.00000  Uiso   1.00
Zn543  Zn    0.85910   0.47423   0.28277   0.00000  Uiso   1.00
Zn544  Zn    0.80125   0.45711   0.22257   0.00000  Uiso   1.00
Zn545  Zn    0.87833   0.52997   0.21188   0.00000  Uiso   1.00
Zn546  Zn    0.79465   0.53868   0.28277   0.00000  Uiso   1.00
C547   C     0.05286   0.82666   0.25894   0.00000  Uiso   1.00
C548   C     0.21457   0.81797   0.45916   0.00000  Uiso   1.00
C549   C     0.23669   0.79783   0.47799   0.00000  Uiso   1.00
C550   C     0.28140   0.83987   0.24079   0.00000  Uiso   1.00
C551   C     0.21833   0.79265   0.01887   0.00000  Uiso   1.00
C552   C     0.18604   0.81809   0.04074   0.00000  Uiso   1.00
C553   C     0.23171   0.76498   0.03925   0.00000  Uiso   1.00
C554   C     0.22032   0.77014   0.08103   0.00000  Uiso   1.00
C555   C     0.18131   0.82887   0.08135   0.00000  Uiso   1.00
C556   C     0.32793   0.84068   0.23629   0.00000  Uiso   1.00
C557   C     0.00740   0.82425   0.26383   0.00000  Uiso   1.00
C558   C     0.09670   0.88086   0.42331   0.00000  Uiso   1.00
C559   C     0.18065   0.98909   0.23479   0.00000  Uiso   1.00
C560   C     0.15275   0.67876   0.26175   0.00000  Uiso   1.00
C561   C     0.15501   0.72302   0.25978   0.00000  Uiso   1.00
C562   C     0.17690   0.94448   0.24048   0.00000  Uiso   1.00
C563   C     0.18861   0.81191   0.14409   0.00000  Uiso   1.00
C564   C     0.14518   0.85456   0.35627   0.00000  Uiso   1.00
C565   C     0.13374   0.86191   0.39988   0.00000  Uiso   1.00
C566   C     0.19762   0.80398   0.10140   0.00000  Uiso   1.00
C567   C     0.08454   0.87993   0.46424   0.00000  Uiso   1.00
C568   C     0.25335   0.72828   0.01783   0.00000  Uiso   1.00
C569   C     0.15922   0.84621   0.41856   0.00000  Uiso   1.00
C570   C     0.02956   0.85927   0.20101   0.00000  Uiso   1.00
C571   C     0.01527   0.87497   0.16910   0.00000  Uiso   1.00
C572   C     0.31075   0.80489   0.30087   0.00000  Uiso   1.00
C573   C     0.33319   0.79084   0.32807   0.00000  Uiso   1.00
C574   C     0.21417   0.67674   0.20026   0.00000  Uiso   1.00
C575   C     0.24445   0.98258   0.16945   0.00000  Uiso   1.00
C576   C     0.16492   0.86936   0.10077   0.00000  Uiso   1.00
C577   C     0.23244   0.74132   0.10407   0.00000  Uiso   1.00
C578   C     0.28232   0.78881   0.45474   0.00000  Uiso   1.00
C579   C     0.31593   0.81346   0.47349   0.00000  Uiso   1.00
C580   C     0.14847   0.84742   0.45986   0.00000  Uiso   1.00
C581   C     0.06981   0.90192   0.40679   0.00000  Uiso   1.00
C582   C     0.10936   0.86285   0.48240   0.00000  Uiso   1.00
C583   C     0.17439   0.83224   0.47941   0.00000  Uiso   1.00
C584   C     0.16011   0.83240   0.02098   0.00000  Uiso   1.00
C585   C     0.11885   0.84389   0.04169   0.00000  Uiso   1.00
C586   C     0.09462   0.86023   0.02293   0.00000  Uiso   1.00
H587   H     0.06367   0.86998   0.04015   0.00000  Uiso   1.00
H588   H     0.04423   0.88490   0.14499   0.00000  Uiso   1.00
H589   H     0.04958   0.88579   0.21251   0.00000  Uiso   1.00
H590   H     0.05091   0.83490   0.18567   0.00000  Uiso   1.00
H591   H     0.02200   0.76747   0.31183   0.00000  Uiso   1.00
H592   H     0.01801   0.81809   0.34068   0.00000  Uiso   1.00
H593   H     0.30855   0.77593   0.35279   0.00000  Uiso   1.00
H594   H     0.28934   0.82813   0.31901   0.00000  Uiso   1.00
H595   H     0.29117   0.77649   0.29168   0.00000  Uiso   1.00
H596   H     0.26569   0.96980   0.18286   0.00000  Uiso   1.00
H597   H     0.22584   0.95702   0.15533   0.00000  Uiso   1.00
H598   H     0.12911   0.99892   0.28703   0.00000  Uiso   1.00
H599   H     0.26554   0.66858   0.14603   0.00000  Uiso   1.00
H600   H     0.19676   0.69130   0.18418   0.00000  Uiso   1.00
H601   H     0.23458   0.70229   0.21249   0.00000  Uiso   1.00
H602   H     0.16957   0.89531   0.08315   0.00000  Uiso   1.00
H603   H     0.23861   0.75284   0.13203   0.00000  Uiso   1.00
H604   H     0.31239   0.84736   0.47747   0.00000  Uiso   1.00
H605   H     0.31265   0.80278   0.00254   0.00000  Uiso   1.00
H606   H     0.01541   0.80883   0.45397   0.00000  Uiso   1.00
H607   H     0.28577   0.75509   0.45054   0.00000  Uiso   1.00
H608   H     0.29071   0.79813   0.42431   0.00000  Uiso   1.00
H609   H     0.05552   0.89299   0.48227   0.00000  Uiso   1.00
H610   H     0.08422   0.92000   0.38175   0.00000  Uiso   1.00
H611   H     0.18677   0.83183   0.39996   0.00000  Uiso   1.00
H612   H     0.10433   0.83952   0.07257   0.00000  Uiso   1.00
H613   H     0.22982   0.82255   0.42856   0.00000  Uiso   1.00
H614   H     0.28190   0.72122   0.02386   0.00000  Uiso   1.00
H615   H     0.32871   0.84960   0.15614   0.00000  Uiso   1.00
H616   H     0.33096   0.90269   0.18108   0.00000  Uiso   1.00
O617   O     0.16667   0.83333   0.25000   0.00000  Uiso   1.00
O618   O     0.15693   0.79060   0.16625   0.00000  Uiso   1.00
O619   O     0.12687   0.87313   0.33749   0.00000  Uiso   1.00
O620   O     0.21088   0.84159   0.15877   0.00000  Uiso   1.00
O621   O     0.17198   0.82802   0.33749   0.00000  Uiso   1.00
O622   O     0.23822   0.70470   0.49447   0.00000  Uiso   1.00
O623   O     0.14501   0.87381   0.13569   0.00000  Uiso   1.00
O624   O     0.23395   0.70418   0.09306   0.00000  Uiso   1.00
O625   O     0.03096   0.90056   0.42209   0.00000  Uiso   1.00
O626   O     0.17849   0.74768   0.27820   0.00000  Uiso   1.00
O627   O     0.14581   0.92803   0.26767   0.00000  Uiso   1.00
O628   O     0.07452   0.79917   0.23607   0.00000  Uiso   1.00
O629   O     0.26785   0.85845   0.21805   0.00000  Uiso   1.00
O630   O     0.06990   0.85627   0.27820   0.00000  Uiso   1.00
O631   O     0.25440   0.81944   0.26767   0.00000  Uiso   1.00
O632   O     0.13800   0.73570   0.23607   0.00000  Uiso   1.00
O633   O     0.20437   0.92193   0.21805   0.00000  Uiso   1.00
Zn634  Zn    0.19244   0.80756   0.28277   0.00000  Uiso   1.00
Zn635  Zn    0.13459   0.79044   0.22257   0.00000  Uiso   1.00
Zn636  Zn    0.21166   0.86331   0.21188   0.00000  Uiso   1.00
Zn637  Zn    0.12798   0.87202   0.28277   0.00000  Uiso   1.00
C638   C     0.38619   0.82666   0.25894   0.00000  Uiso   1.00
C639   C     0.54791   0.81797   0.45916   0.00000  Uiso   1.00
C640   C     0.57002   0.79783   0.47799   0.00000  Uiso   1.00
C641   C     0.61473   0.83987   0.24079   0.00000  Uiso   1.00
C642   C     0.55166   0.79265   0.01887   0.00000  Uiso   1.00
C643   C     0.51937   0.81809   0.04074   0.00000  Uiso   1.00
C644   C     0.56505   0.76498   0.03925   0.00000  Uiso   1.00
C645   C     0.55365   0.77014   0.08103   0.00000  Uiso   1.00
C646   C     0.51464   0.82887   0.08135   0.00000  Uiso   1.00
C647   C     0.66126   0.84068   0.23629   0.00000  Uiso   1.00
C648   C     0.34073   0.82425   0.26383   0.00000  Uiso   1.00
C649   C     0.43003   0.88086   0.42331   0.00000  Uiso   1.00
C650   C     0.51398   0.98909   0.23479   0.00000  Uiso   1.00
C651   C     0.48608   0.67876   0.26175   0.00000  Uiso   1.00
C652   C     0.48835   0.72302   0.25978   0.00000  Uiso   1.00
C653   C     0.51023   0.94448   0.24048   0.00000  Uiso   1.00
C654   C     0.52194   0.81191   0.14409   0.00000  Uiso   1.00
C655   C     0.47851   0.85456   0.35627   0.00000  Uiso   1.00
C656   C     0.46707   0.86191   0.39988   0.00000  Uiso   1.00
C657   C     0.53095   0.80398   0.10140   0.00000  Uiso   1.00
C658   C     0.41787   0.87993   0.46424   0.00000  Uiso   1.00
C659   C     0.58669   0.72828   0.01783   0.00000  Uiso   1.00
C660   C     0.49255   0.84621   0.41856   0.00000  Uiso   1.00
C661   C     0.36290   0.85927   0.20101   0.00000  Uiso   1.00
C662   C     0.34860   0.87497   0.16910   0.00000  Uiso   1.00
C663   C     0.64408   0.80489   0.30087   0.00000  Uiso   1.00
C664   C     0.66652   0.79084   0.32807   0.00000  Uiso   1.00
C665   C     0.54750   0.67674   0.20026   0.00000  Uiso   1.00
C666   C     0.57778   0.98258   0.16945   0.00000  Uiso   1.00
C667   C     0.49825   0.86936   0.10077   0.00000  Uiso   1.00
C668   C     0.56577   0.74132   0.10407   0.00000  Uiso   1.00
C669   C     0.61565   0.78881   0.45474   0.00000  Uiso   1.00
C670   C     0.64926   0.81346   0.47349   0.00000  Uiso   1.00
C671   C     0.48180   0.84742   0.45986   0.00000  Uiso   1.00
C672   C     0.40315   0.90192   0.40679   0.00000  Uiso   1.00
C673   C     0.44270   0.86285   0.48240   0.00000  Uiso   1.00
C674   C     0.50772   0.83224   0.47941   0.00000  Uiso   1.00
C675   C     0.49345   0.83240   0.02098   0.00000  Uiso   1.00
C676   C     0.45218   0.84389   0.04169   0.00000  Uiso   1.00
C677   C     0.42796   0.86023   0.02293   0.00000  Uiso   1.00
H678   H     0.39701   0.86998   0.04015   0.00000  Uiso   1.00
H679   H     0.37756   0.88490   0.14499   0.00000  Uiso   1.00
H680   H     0.38292   0.88579   0.21251   0.00000  Uiso   1.00
H681   H     0.38424   0.83490   0.18567   0.00000  Uiso   1.00
H682   H     0.35534   0.76747   0.31183   0.00000  Uiso   1.00
H683   H     0.35135   0.81809   0.34068   0.00000  Uiso   1.00
H684   H     0.64189   0.77593   0.35279   0.00000  Uiso   1.00
H685   H     0.62267   0.82813   0.31901   0.00000  Uiso   1.00
H686   H     0.62450   0.77649   0.29168   0.00000  Uiso   1.00
H687   H     0.59902   0.96980   0.18286   0.00000  Uiso   1.00
H688   H     0.55917   0.95702   0.15533   0.00000  Uiso   1.00
H689   H     0.46244   0.99892   0.28703   0.00000  Uiso   1.00
H690   H     0.59887   0.66858   0.14603   0.00000  Uiso   1.00
H691   H     0.53010   0.69130   0.18418   0.00000  Uiso   1.00
H692   H     0.56792   0.70229   0.21249   0.00000  Uiso   1.00
H693   H     0.50290   0.89531   0.08315   0.00000  Uiso   1.00
H694   H     0.57194   0.75284   0.13203   0.00000  Uiso   1.00
H695   H     0.64573   0.84736   0.47747   0.00000  Uiso   1.00
H696   H     0.64599   0.80278   0.00254   0.00000  Uiso   1.00
H697   H     0.34875   0.80883   0.45397   0.00000  Uiso   1.00
H698   H     0.61911   0.75509   0.45054   0.00000  Uiso   1.00
H699   H     0.62405   0.79813   0.42431   0.00000  Uiso   1.00
H700   H     0.38885   0.89299   0.48227   0.00000  Uiso   1.00
H701   H     0.41755   0.92000   0.38175   0.00000  Uiso   1.00
H702   H     0.52010   0.83183   0.39996   0.00000  Uiso   1.00
H703   H     0.43766   0.83952   0.07257   0.00000  Uiso   1.00
H704   H     0.56315   0.82255   0.42856   0.00000  Uiso   1.00
H705   H     0.61524   0.72122   0.02386   0.00000  Uiso   1.00
H706   H     0.66204   0.84960   0.15614   0.00000  Uiso   1.00
H707   H     0.66430   0.90269   0.18108   0.00000  Uiso   1.00
O708   O     0.50000   0.83333   0.25000   0.00000  Uiso   1.00
O709   O     0.49027   0.79060   0.16625   0.00000  Uiso   1.00
O710   O     0.46020   0.87313   0.33749   0.00000  Uiso   1.00
O711   O     0.54421   0.84159   0.15877   0.00000  Uiso   1.00
O712   O     0.50532   0.82802   0.33749   0.00000  Uiso   1.00
O713   O     0.57155   0.70470   0.49447   0.00000  Uiso   1.00
O714   O     0.47834   0.87381   0.13569   0.00000  Uiso   1.00
O715   O     0.56728   0.70418   0.09306   0.00000  Uiso   1.00
O716   O     0.36429   0.90056   0.42209   0.00000  Uiso   1.00
O717   O     0.51182   0.74768   0.27820   0.00000  Uiso   1.00
O718   O     0.47914   0.92803   0.26767   0.00000  Uiso   1.00
O719   O     0.40785   0.79917   0.23607   0.00000  Uiso   1.00
O720   O     0.60119   0.85845   0.21805   0.00000  Uiso   1.00
O721   O     0.40323   0.85627   0.27820   0.00000  Uiso   1.00
O722   O     0.58773   0.81944   0.26767   0.00000  Uiso   1.00
O723   O     0.47133   0.73570   0.23607   0.00000  Uiso   1.00
O724   O     0.53771   0.92193   0.21805   0.00000  Uiso   1.00
Zn725  Zn    0.52577   0.80756   0.28277   0.00000  Uiso   1.00
Zn726  Zn    0.46792   0.79044   0.22257   0.00000  Uiso   1.00
Zn727  Zn    0.54500   0.86331   0.21188   0.00000  Uiso   1.00
Zn728  Zn    0.46131   0.87202   0.28277   0.00000  Uiso   1.00
C729   C     0.71952   0.82666   0.25894   0.00000  Uiso   1.00
C730   C     0.88124   0.81797   0.45916   0.00000  Uiso   1.00
C731   C     0.90335   0.79783   0.47799   0.00000  Uiso   1.00
C732   C     0.94807   0.83987   0.24079   0.00000  Uiso   1.00
C733   C     0.88499   0.79265   0.01887   0.00000  Uiso   1.00
C734   C     0.85270   0.81809   0.04074   0.00000  Uiso   1.00
C735   C     0.89838   0.76498   0.03925   0.00000  Uiso   1.00
C736   C     0.88699   0.77014   0.08103   0.00000  Uiso   1.00
C737   C     0.84797   0.82887   0.08135   0.00000  Uiso   1.00
C738   C     0.99460   0.84068   0.23629   0.00000  Uiso   1.00
C739   C     0.67406   0.82425   0.26383   0.00000  Uiso   1.00
C740   C     0.76337   0.88086   0.42331   0.00000  Uiso   1.00
C741   C     0.84732   0.98909   0.23479   0.00000  Uiso   1.00
C742   C     0.81942   0.67876   0.26175   0.00000  Uiso   1.00
C743   C     0.82168   0.72302   0.25978   0.00000  Uiso   1.00
C744   C     0.84357   0.94448   0.24048   0.00000  Uiso   1.00
C745   C     0.85527   0.81191   0.14409   0.00000  Uiso   1.00
C746   C     0.81184   0.85456   0.35627   0.00000  Uiso   1.00
C747   C     0.80040   0.86191   0.39988   0.00000  Uiso   1.00
C748   C     0.86429   0.80398   0.10140   0.00000  Uiso   1.00
C749   C     0.75120   0.87993   0.46424   0.00000  Uiso   1.00
C750   C     0.92002   0.72828   0.01783   0.00000  Uiso   1.00
C751   C     0.82589   0.84621   0.41856   0.00000  Uiso   1.00
C752   C     0.69623   0.85927   0.20101   0.00000  Uiso   1.00
C753   C     0.68193   0.87497   0.16910   0.00000  Uiso   1.00
C754   C     0.97741   0.80489   0.30087   0.00000  Uiso   1.00
C755   C     0.99985   0.79084   0.32807   0.00000  Uiso   1.00
C756   C     0.88084   0.67674   0.20026   0.00000  Uiso   1.00
C757   C     0.91111   0.98258   0.16945   0.00000  Uiso   1.00
C758   C     0.83158   0.86936   0.10077   0.00000  Uiso   1.00
C759   C     0.89910   0.74132   0.10407   0.00000  Uiso   1.00
C760   C     0.94898   0.78881   0.45474   0.00000  Uiso   1.00
C761   C     0.98260   0.81346   0.47349   0.00000  Uiso   1.00
C762   C     0.81514   0.84742   0.45986   0.00000  Uiso   1.00
C763   C     0.73648   0.90192   0.40679   0.00000  Uiso   1.00
C764   C     0.77603   0.86285   0.48240   0.00000  Uiso   1.00
C765   C     0.84105   0.83224   0.47941   0.00000  Uiso   1.00
C766   C     0.82678   0.83240   0.02098   0.00000  Uiso   1.00
C767   C     0.78552   0.84389   0.04169   0.00000  Uiso   1.00
C768   C     0.76129   0.86023   0.02293   0.00000  Uiso   1.00
H769   H     0.73034   0.86998   0.04015   0.00000  Uiso   1.00
H770   H     0.71090   0.88490   0.14499   0.00000  Uiso   1.00
H771   H     0.71625   0.88579   0.21251   0.00000  Uiso   1.00
H772   H     0.71758   0.83490   0.18567   0.00000  Uiso   1.00
H773   H     0.68867   0.76747   0.31183   0.00000  Uiso   1.00
H774   H     0.68468   0.81809   0.34068   0.00000  Uiso   1.00
H775   H     0.97522   0.77593   0.35279   0.00000  Uiso   1.00
H776   H     0.95600   0.82813   0.31901   0.00000  Uiso   1.00
H777   H     0.95784   0.77649   0.29168   0.00000  Uiso   1.00
H778   H     0.93236   0.96980   0.18286   0.00000  Uiso   1.00
H779   H     0.89250   0.95702   0.15533   0.00000  Uiso   1.00
H780   H     0.79577   0.99892   0.28703   0.00000  Uiso   1.00
H781   H     0.93220   0.66858   0.14603   0.00000  Uiso   1.00
H782   H     0.86343   0.69130   0.18418   0.00000  Uiso   1.00
H783   H     0.90125   0.70229   0.21249   0.00000  Uiso   1.00
H784   H     0.83624   0.89531   0.08315   0.00000  Uiso   1.00
H785   H     0.90527   0.75284   0.13203   0.00000  Uiso   1.00
H786   H     0.97906   0.84736   0.47747   0.00000  Uiso   1.00
H787   H     0.97932   0.80278   0.00254   0.00000  Uiso   1.00
H788   H     0.68208   0.80883   0.45397   0.00000  Uiso   1.00
H789   H     0.95244   0.75509   0.45054   0.00000  Uiso   1.00
H790   H     0.95738   0.79813   0.42431   0.00000  Uiso   1.00
H791   H     0.72219   0.89299   0.48227   0.00000  Uiso   1.00
H792   H     0.75089   0.92000   0.38175   0.00000  Uiso   1.00
H793   H     0.85344   0.83183   0.39996   0.00000  Uiso   1.00
H794   H     0.77100   0.83952   0.07257   0.00000  Uiso   1.00
H795   H     0.89649   0.82255   0.42856   0.00000  Uiso   1.00
H796   H     0.94857   0.72122   0.02386   0.00000  Uiso   1.00
H797   H     0.99538   0.84960   0.15614   0.00000  Uiso   1.00
H798   H     0.99763   0.90269   0.18108   0.00000  Uiso   1.00
O799   O     0.83333   0.83333   0.25000   0.00000  Uiso   1.00
O800   O     0.82360   0.79060   0.16625   0.00000  Uiso   1.00
O801   O     0.79354   0.87313   0.33749   0.00000  Uiso   1.00
O802   O     0.87755   0.84159   0.15877   0.00000  Uiso   1.00
O803   O     0.83865   0.82802   0.33749   0.00000  Uiso   1.00
O804   O     0.90489   0.70470   0.49447   0.00000  Uiso   1.00
O805   O     0.81168   0.87381   0.13569   0.00000  Uiso   1.00
O806   O     0.90061   0.70418   0.09306   0.00000  Uiso   1.00
O807   O     0.69762   0.90056   0.42209   0.00000  Uiso   1.00
O808   O     0.84515   0.74768   0.27820   0.00000  Uiso   1.00
O809   O     0.81247   0.92803   0.26767   0.00000  Uiso   1.00
O810   O     0.74119   0.79917   0.23607   0.00000  Uiso   1.00
O811   O     0.93452   0.85845   0.21805   0.00000  Uiso   1.00
O812   O     0.73656   0.85627   0.27820   0.00000  Uiso   1.00
O813   O     0.92106   0.81944   0.26767   0.00000  Uiso   1.00
O814   O     0.80467   0.73570   0.23607   0.00000  Uiso   1.00
O815   O     0.87104   0.92193   0.21805   0.00000  Uiso   1.00
Zn816  Zn    0.85910   0.80756   0.28277   0.00000  Uiso   1.00
Zn817  Zn    0.80125   0.79044   0.22257   0.00000  Uiso   1.00
Zn818  Zn    0.87833   0.86331   0.21188   0.00000  Uiso   1.00
Zn819  Zn    0.79465   0.87202   0.28277   0.00000  Uiso   1.00
C820   C     0.05286   0.15999   0.75894   0.00000  Uiso   1.00
C821   C     0.21457   0.15131   0.95916   0.00000  Uiso   1.00
C822   C     0.23669   0.13116   0.97799   0.00000  Uiso   1.00
C823   C     0.28140   0.17320   0.74079   0.00000  Uiso   1.00
C824   C     0.21833   0.12599   0.51887   0.00000  Uiso   1.00
C825   C     0.18604   0.15142   0.54074   0.00000  Uiso   1.00
C826   C     0.23171   0.09831   0.53925   0.00000  Uiso   1.00
C827   C     0.22032   0.10347   0.58103   0.00000  Uiso   1.00
C828   C     0.18131   0.16220   0.58135   0.00000  Uiso   1.00
C829   C     0.32793   0.17401   0.73629   0.00000  Uiso   1.00
C830   C     0.00740   0.15758   0.76383   0.00000  Uiso   1.00
C831   C     0.09670   0.21419   0.92331   0.00000  Uiso   1.00
C832   C     0.18065   0.32242   0.73479   0.00000  Uiso   1.00
C833   C     0.15275   0.01209   0.76175   0.00000  Uiso   1.00
C834   C     0.15501   0.05636   0.75978   0.00000  Uiso   1.00
C835   C     0.17690   0.27781   0.74048   0.00000  Uiso   1.00
C836   C     0.18861   0.14525   0.64409   0.00000  Uiso   1.00
C837   C     0.14518   0.18790   0.85627   0.00000  Uiso   1.00
C838   C     0.13374   0.19525   0.89988   0.00000  Uiso   1.00
C839   C     0.19762   0.13731   0.60140   0.00000  Uiso   1.00
C840   C     0.08454   0.21327   0.96424   0.00000  Uiso   1.00
C841   C     0.25335   0.06162   0.51783   0.00000  Uiso   1.00
C842   C     0.15922   0.17954   0.91856   0.00000  Uiso   1.00
C843   C     0.02956   0.19260   0.70101   0.00000  Uiso   1.00
C844   C     0.01527   0.20830   0.66910   0.00000  Uiso   1.00
C845   C     0.31075   0.13823   0.80087   0.00000  Uiso   1.00
C846   C     0.33319   0.12418   0.82807   0.00000  Uiso   1.00
C847   C     0.21417   0.01007   0.70026   0.00000  Uiso   1.00
C848   C     0.24445   0.31591   0.66945   0.00000  Uiso   1.00
C849   C     0.16492   0.20269   0.60077   0.00000  Uiso   1.00
C850   C     0.23244   0.07465   0.60407   0.00000  Uiso   1.00
C851   C     0.28232   0.12214   0.95474   0.00000  Uiso   1.00
C852   C     0.31593   0.14679   0.97349   0.00000  Uiso   1.00
C853   C     0.14847   0.18076   0.95986   0.00000  Uiso   1.00
C854   C     0.06981   0.23525   0.90679   0.00000  Uiso   1.00
C855   C     0.10936   0.19619   0.98240   0.00000  Uiso   1.00
C856   C     0.17439   0.16557   0.97941   0.00000  Uiso   1.00
C857   C     0.16011   0.16573   0.52098   0.00000  Uiso   1.00
C858   C     0.11885   0.17723   0.54169   0.00000  Uiso   1.00
C859   C     0.09462   0.19356   0.52293   0.00000  Uiso   1.00
H860   H     0.06367   0.20331   0.54015   0.00000  Uiso   1.00
H861   H     0.04423   0.21823   0.64499   0.00000  Uiso   1.00
H862   H     0.04958   0.21912   0.71251   0.00000  Uiso   1.00
H863   H     0.05091   0.16823   0.68567   0.00000  Uiso   1.00
H864   H     0.02200   0.10080   0.81183   0.00000  Uiso   1.00
H865   H     0.01801   0.15142   0.84068   0.00000  Uiso   1.00
H866   H     0.30855   0.10927   0.85279   0.00000  Uiso   1.00
H867   H     0.28934   0.16147   0.81901   0.00000  Uiso   1.00
H868   H     0.29117   0.10982   0.79168   0.00000  Uiso   1.00
H869   H     0.26569   0.30313   0.68286   0.00000  Uiso   1.00
H870   H     0.22584   0.29036   0.65533   0.00000  Uiso   1.00
H871   H     0.12911   0.33225   0.78703   0.00000  Uiso   1.00
H872   H     0.26554   0.00191   0.64603   0.00000  Uiso   1.00
H873   H     0.19676   0.02463   0.68418   0.00000  Uiso   1.00
H874   H     0.23458   0.03562   0.71249   0.00000  Uiso   1.00
H875   H     0.16957   0.22865   0.58315   0.00000  Uiso   1.00
H876   H     0.23861   0.08617   0.63203   0.00000  Uiso   1.00
H877   H     0.31239   0.18070   0.97747   0.00000  Uiso   1.00
H878   H     0.31265   0.13611   0.50254   0.00000  Uiso   1.00
H879   H     0.01541   0.14217   0.95397   0.00000  Uiso   1.00
H880   H     0.28577   0.08842   0.95054   0.00000  Uiso   1.00
H881   H     0.29071   0.13146   0.92431   0.00000  Uiso   1.00
H882   H     0.05552   0.22632   0.98227   0.00000  Uiso   1.00
H883   H     0.08422   0.25333   0.88175   0.00000  Uiso   1.00
H884   H     0.18677   0.16517   0.89996   0.00000  Uiso   1.00
H885   H     0.10433   0.17285   0.57257   0.00000  Uiso   1.00
H886   H     0.22982   0.15589   0.92856   0.00000  Uiso   1.00
H887   H     0.28190   0.05455   0.52386   0.00000  Uiso   1.00
H888   H     0.32871   0.18294   0.65614   0.00000  Uiso   1.00
H889   H     0.33096   0.23602   0.68108   0.00000  Uiso   1.00
O890   O     0.16667   0.16667   0.75000   0.00000  Uiso   1.00
O891   O     0.15693   0.12393   0.66625   0.00000  Uiso   1.00
O892   O     0.12687   0.20646   0.83749   0.00000  Uiso   1.00
O893   O     0.21088   0.17493   0.65877   0.00000  Uiso   1.00
O894   O     0.17198   0.16135   0.83749   0.00000  Uiso   1.00
O895   O     0.23822   0.03803   0.99447   0.00000  Uiso   1.00
O896   O     0.14501   0.20715   0.63569   0.00000  Uiso   1.00
O897   O     0.23395   0.03751   0.59306   0.00000  Uiso   1.00
O898   O     0.03096   0.23389   0.92209   0.00000  Uiso   1.00
O899   O     0.17849   0.08101   0.77820   0.00000  Uiso   1.00
O900   O     0.14581   0.26136   0.76767   0.00000  Uiso   1.00
O901   O     0.07452   0.13251   0.73607   0.00000  Uiso   1.00
O902   O     0.26785   0.19179   0.71805   0.00000  Uiso   1.00
O903   O     0.06990   0.18960   0.77820   0.00000  Uiso   1.00
O904   O     0.25440   0.15277   0.76767   0.00000  Uiso   1.00
O905   O     0.13800   0.06903   0.73607   0.00000  Uiso   1.00
O906   O     0.20437   0.25527   0.71805   0.00000  Uiso   1.00
Zn907  Zn    0.19244   0.14090   0.78277   0.00000  Uiso   1.00
Zn908  Zn    0.13459   0.12378   0.72257   0.00000  Uiso   1.00
Zn909  Zn    0.21166   0.19664   0.71188   0.00000  Uiso   1.00
Zn910  Zn    0.12798   0.20535   0.78277   0.00000  Uiso   1.00
C911   C     0.38619   0.15999   0.75894   0.00000  Uiso   1.00
C912   C     0.54791   0.15131   0.95916   0.00000  Uiso   1.00
C913   C     0.57002   0.13116   0.97799   0.00000  Uiso   1.00
C914   C     0.61473   0.17320   0.74079   0.00000  Uiso   1.00
C915   C     0.55166   0.12599   0.51887   0.00000  Uiso   1.00
C916   C     0.51937   0.15142   0.54074   0.00000  Uiso   1.00
C917   C     0.56505   0.09831   0.53925   0.00000  Uiso   1.00
C918   C     0.55365   0.10347   0.58103   0.00000  Uiso   1.00
C919   C     0.51464   0.16220   0.58135   0.00000  Uiso   1.00
C920   C     0.66126   0.17401   0.73629   0.00000  Uiso   1.00
C921   C     0.34073   0.15758   0.76383   0.00000  Uiso   1.00
C922   C     0.43003   0.21419   0.92331   0.00000  Uiso   1.00
C923   C     0.51398   0.32242   0.73479   0.00000  Uiso   1.00
C924   C     0.48608   0.01209   0.76175   0.00000  Uiso   1.00
C925   C     0.48835   0.05636   0.75978   0.00000  Uiso   1.00
C926   C     0.51023   0.27781   0.74048   0.00000  Uiso   1.00
C927   C     0.52194   0.14525   0.64409   0.00000  Uiso   1.00
C928   C     0.47851   0.18790   0.85627   0.00000  Uiso   1.00
C929   C     0.46707   0.19525   0.89988   0.00000  Uiso   1.00
C930   C     0.53095   0.13731   0.60140   0.00000  Uiso   1.00
C931   C     0.41787   0.21327   0.96424   0.00000  Uiso   1.00
C932   C     0.58669   0.06162   0.51783   0.00000  Uiso   1.00
C933   C     0.49255   0.17954   0.91856   0.00000  Uiso   1.00
C934   C     0.36290   0.19260   0.70101   0.00000  Uiso   1.00
C935   C     0.34860   0.20830   0.66910   0.00000  Uiso   1.00
C936   C     0.64408   0.13823   0.80087   0.00000  Uiso   1.00
C937   C     0.66652   0.12418   0.82807   0.00000  Uiso   1.00
C938   C     0.54750   0.01007   0.70026   0.00000  Uiso   1.00
C939   C     0.57778   0.31591   0.66945   0.00000  Uiso   1.00
C940   C     0.49825   0.20269   0.60077   0.00000  Uiso   1.00
C941   C     0.56577   0.07465   0.60407   0.00000  Uiso   1.00
C942   C     0.61565   0.12214   0.95474   0.00000  Uiso   1.00
C943   C     0.64926   0.14679   0.97349   0.00000  Uiso   1.00
C944   C     0.48180   0.18076   0.95986   0.00000  Uiso   1.00
C945   C     0.40315   0.23525   0.90679   0.00000  Uiso   1.00
C946   C     0.44270   0.19619   0.98240   0.00000  Uiso   1.00
C947   C     0.50772   0.16557   0.97941   0.00000  Uiso   1.00
C948   C     0.49345   0.16573   0.52098   0.00000  Uiso   1.00
C949   C     0.45218   0.17723   0.54169   0.00000  Uiso   1.00
C950   C     0.42796   0.19356   0.52293   0.00000  Uiso   1.00
H951   H     0.39701   0.20331   0.54015   0.00000  Uiso   1.00
H952   H     0.37756   0.21823   0.64499   0.00000  Uiso   1.00
H953   H     0.38292   0.21912   0.71251   0.00000  Uiso   1.00
H954   H     0.38424   0.16823   0.68567   0.00000  Uiso   1.00
H955   H     0.35534   0.10080   0.81183   0.00000  Uiso   1.00
H956   H     0.35135   0.15142   0.84068   0.00000  Uiso   1.00
H957   H     0.64189   0.10927   0.85279   0.00000  Uiso   1.00
H958   H     0.62267   0.16147   0.81901   0.00000  Uiso   1.00
H959   H     0.62450   0.10982   0.79168   0.00000  Uiso   1.00
H960   H     0.59902   0.30313   0.68286   0.00000  Uiso   1.00
H961   H     0.55917   0.29036   0.65533   0.00000  Uiso   1.00
H962   H     0.46244   0.33225   0.78703   0.00000  Uiso   1.00
H963   H     0.59887   0.00191   0.64603   0.00000  Uiso   1.00
H964   H     0.53010   0.02463   0.68418   0.00000  Uiso   1.00
H965   H     0.56792   0.03562   0.71249   0.00000  Uiso   1.00
H966   H     0.50290   0.22865   0.58315   0.00000  Uiso   1.00
H967   H     0.57194   0.08617   0.63203   0.00000  Uiso   1.00
H968   H     0.64573   0.18070   0.97747   0.00000  Uiso   1.00
H969   H     0.64599   0.13611   0.50254   0.00000  Uiso   1.00
H970   H     0.34875   0.14217   0.95397   0.00000  Uiso   1.00
H971   H     0.61911   0.08842   0.95054   0.00000  Uiso   1.00
H972   H     0.62405   0.13146   0.92431   0.00000  Uiso   1.00
H973   H     0.38885   0.22632   0.98227   0.00000  Uiso   1.00
H974   H     0.41755   0.25333   0.88175   0.00000  Uiso   1.00
H975   H     0.52010   0.16517   0.89996   0.00000  Uiso   1.00
H976   H     0.43766   0.17285   0.57257   0.00000  Uiso   1.00
H977   H     0.56315   0.15589   0.92856   0.00000  Uiso   1.00
H978   H     0.61524   0.05455   0.52386   0.00000  Uiso   1.00
H979   H     0.66204   0.18294   0.65614   0.00000  Uiso   1.00
H980   H     0.66430   0.23602   0.68108   0.00000  Uiso   1.00
O981   O     0.50000   0.16667   0.75000   0.00000  Uiso   1.00
O982   O     0.49027   0.12393   0.66625   0.00000  Uiso   1.00
O983   O     0.46020   0.20646   0.83749   0.00000  Uiso   1.00
O984   O     0.54421   0.17493   0.65877   0.00000  Uiso   1.00
O985   O     0.50532   0.16135   0.83749   0.00000  Uiso   1.00
O986   O     0.57155   0.03803   0.99447   0.00000  Uiso   1.00
O987   O     0.47834   0.20715   0.63569   0.00000  Uiso   1.00
O988   O     0.56728   0.03751   0.59306   0.00000  Uiso   1.00
O989   O     0.36429   0.23389   0.92209   0.00000  Uiso   1.00
O990   O     0.51182   0.08101   0.77820   0.00000  Uiso   1.00
O991   O     0.47914   0.26136   0.76767   0.00000  Uiso   1.00
O992   O     0.40785   0.13251   0.73607   0.00000  Uiso   1.00
O993   O     0.60119   0.19179   0.71805   0.00000  Uiso   1.00
O994   O     0.40323   0.18960   0.77820   0.00000  Uiso   1.00
O995   O     0.58773   0.15277   0.76767   0.00000  Uiso   1.00
O996   O     0.47133   0.06903   0.73607   0.00000  Uiso   1.00
O997   O     0.53771   0.25527   0.71805   0.00000  Uiso   1.00
Zn998  Zn    0.52577   0.14090   0.78277   0.00000  Uiso   1.00
Zn999  Zn    0.46792   0.12378   0.72257   0.00000  Uiso   1.00
Zn1000 Zn    0.54500   0.19664   0.71188   0.00000  Uiso   1.00
Zn1001 Zn    0.46131   0.20535   0.78277   0.00000  Uiso   1.00
C1002  C     0.71952   0.15999   0.75894   0.00000  Uiso   1.00
C1003  C     0.88124   0.15131   0.95916   0.00000  Uiso   1.00
C1004  C     0.90335   0.13116   0.97799   0.00000  Uiso   1.00
C1005  C     0.94807   0.17320   0.74079   0.00000  Uiso   1.00
C1006  C     0.88499   0.12599   0.51887   0.00000  Uiso   1.00
C1007  C     0.85270   0.15142   0.54074   0.00000  Uiso   1.00
C1008  C     0.89838   0.09831   0.53925   0.00000  Uiso   1.00
C1009  C     0.88699   0.10347   0.58103   0.00000  Uiso   1.00
C1010  C     0.84797   0.16220   0.58135   0.00000  Uiso   1.00
C1011  C     0.99460   0.17401   0.73629   0.00000  Uiso   1.00
C1012  C     0.67406   0.15758   0.76383   0.00000  Uiso   1.00
C1013  C     0.76337   0.21419   0.92331   0.00000  Uiso   1.00
C1014  C     0.84732   0.32242   0.73479   0.00000  Uiso   1.00
C1015  C     0.81942   0.01209   0.76175   0.00000  Uiso   1.00
C1016  C     0.82168   0.05636   0.75978   0.00000  Uiso   1.00
C1017  C     0.84357   0.27781   0.74048   0.00000  Uiso   1.00
C1018  C     0.85527   0.14525   0.64409   0.00000  Uiso   1.00
C1019  C     0.81184   0.18790   0.85627   0.00000  Uiso   1.00
C1020  C     0.80040   0.19525   0.89988   0.00000  Uiso   1.00
C1021  C     0.86429   0.13731   0.60140   0.00000  Uiso   1.00
C1022  C     0.75120   0.21327   0.96424   0.00000  Uiso   1.00
C1023  C     0.92002   0.06162   0.51783   0.00000  Uiso   1.00
C1024  C     0.82589   0.17954   0.91856   0.00000  Uiso   1.00
C1025  C     0.69623   0.19260   0.70101   0.00000  Uiso   1.00
C1026  C     0.68193   0.20830   0.66910   0.00000  Uiso   1.00
C1027  C     0.97741   0.13823   0.80087   0.00000  Uiso   1.00
C1028  C     0.99985   0.12418   0.82807   0.00000  Uiso   1.00
C1029  C     0.88084   0.01007   0.70026   0.00000  Uiso   1.00
C1030  C     0.91111   0.31591   0.66945   0.00000  Uiso   1.00
C1031  C     0.83158   0.20269   0.60077   0.00000  Uiso   1.00
C1032  C     0.89910   0.07465   0.60407   0.00000  Uiso   1.00
C1033  C     0.94898   0.12214   0.95474   0.00000  Uiso   1.00
C1034  C     0.98260   0.14679   0.97349   0.00000  Uiso   1.00
C1035  C     0.81514   0.18076   0.95986   0.00000  Uiso   1.00
C1036  C     0.73648   0.23525   0.90679   0.00000  Uiso   1.00
C1037  C     0.77603   0.19619   0.98240   0.00000  Uiso   1.00
C1038  C     0.84105   0.16557   0.97941   0.00000  Uiso   1.00
C1039  C     0.82678   0.16573   0.52098   0.00000  Uiso   1.00
C1040  C     0.78552   0.17723   0.54169   0.00000  Uiso   1.00
C1041  C     0.76129   0.19356   0.52293   0.00000  Uiso   1.00
H1042  H     0.73034   0.20331   0.54015   0.00000  Uiso   1.00
H1043  H     0.71090   0.21823   0.64499   0.00000  Uiso   1.00
H1044  H     0.71625   0.21912   0.71251   0.00000  Uiso   1.00
H1045  H     0.71758   0.16823   0.68567   0.00000  Uiso   1.00
H1046  H     0.68867   0.10080   0.81183   0.00000  Uiso   1.00
H1047  H     0.68468   0.15142   0.84068   0.00000  Uiso   1.00
H1048  H     0.97522   0.10927   0.85279   0.00000  Uiso   1.00
H1049  H     0.95600   0.16147   0.81901   0.00000  Uiso   1.00
H1050  H     0.95784   0.10982   0.79168   0.00000  Uiso   1.00
H1051  H     0.93236   0.30313   0.68286   0.00000  Uiso   1.00
H1052  H     0.89250   0.29036   0.65533   0.00000  Uiso   1.00
H1053  H     0.79577   0.33225   0.78703   0.00000  Uiso   1.00
H1054  H     0.93220   0.00191   0.64603   0.00000  Uiso   1.00
H1055  H     0.86343   0.02463   0.68418   0.00000  Uiso   1.00
H1056  H     0.90125   0.03562   0.71249   0.00000  Uiso   1.00
H1057  H     0.83624   0.22865   0.58315   0.00000  Uiso   1.00
H1058  H     0.90527   0.08617   0.63203   0.00000  Uiso   1.00
H1059  H     0.97906   0.18070   0.97747   0.00000  Uiso   1.00
H1060  H     0.97932   0.13611   0.50254   0.00000  Uiso   1.00
H1061  H     0.68208   0.14217   0.95397   0.00000  Uiso   1.00
H1062  H     0.95244   0.08842   0.95054   0.00000  Uiso   1.00
H1063  H     0.95738   0.13146   0.92431   0.00000  Uiso   1.00
H1064  H     0.72219   0.22632   0.98227   0.00000  Uiso   1.00
H1065  H     0.75089   0.25333   0.88175   0.00000  Uiso   1.00
H1066  H     0.85344   0.16517   0.89996   0.00000  Uiso   1.00
H1067  H     0.77100   0.17285   0.57257   0.00000  Uiso   1.00
H1068  H     0.89649   0.15589   0.92856   0.00000  Uiso   1.00
H1069  H     0.94857   0.05455   0.52386   0.00000  Uiso   1.00
H1070  H     0.99538   0.18294   0.65614   0.00000  Uiso   1.00
H1071  H     0.99763   0.23602   0.68108   0.00000  Uiso   1.00
O1072  O     0.83333   0.16667   0.75000   0.00000  Uiso   1.00
O1073  O     0.82360   0.12393   0.66625   0.00000  Uiso   1.00
O1074  O     0.79354   0.20646   0.83749   0.00000  Uiso   1.00
O1075  O     0.87755   0.17493   0.65877   0.00000  Uiso   1.00
O1076  O     0.83865   0.16135   0.83749   0.00000  Uiso   1.00
O1077  O     0.90489   0.03803   0.99447   0.00000  Uiso   1.00
O1078  O     0.81168   0.20715   0.63569   0.00000  Uiso   1.00
O1079  O     0.90061   0.03751   0.59306   0.00000  Uiso   1.00
O1080  O     0.69762   0.23389   0.92209   0.00000  Uiso   1.00
O1081  O     0.84515   0.08101   0.77820   0.00000  Uiso   1.00
O1082  O     0.81247   0.26136   0.76767   0.00000  Uiso   1.00
O1083  O     0.74119   0.13251   0.73607   0.00000  Uiso   1.00
O1084  O     0.93452   0.19179   0.71805   0.00000  Uiso   1.00
O1085  O     0.73656   0.18960   0.77820   0.00000  Uiso   1.00
O1086  O     0.92106   0.15277   0.76767   0.00000  Uiso   1.00
O1087  O     0.80467   0.06903   0.73607   0.00000  Uiso   1.00
O1088  O     0.87104   0.25527   0.71805   0.00000  Uiso   1.00
Zn1089 Zn    0.85910   0.14090   0.78277   0.00000  Uiso   1.00
Zn1090 Zn    0.80125   0.12378   0.72257   0.00000  Uiso   1.00
Zn1091 Zn    0.87833   0.19664   0.71188   0.00000  Uiso   1.00
Zn1092 Zn    0.79465   0.20535   0.78277   0.00000  Uiso   1.00
C1093  C     0.05286   0.49333   0.75894   0.00000  Uiso   1.00
C1094  C     0.21457   0.48464   0.95916   0.00000  Uiso   1.00
C1095  C     0.23669   0.46449   0.97799   0.00000  Uiso   1.00
C1096  C     0.28140   0.50653   0.74079   0.00000  Uiso   1.00
C1097  C     0.21833   0.45932   0.51887   0.00000  Uiso   1.00
C1098  C     0.18604   0.48476   0.54074   0.00000  Uiso   1.00
C1099  C     0.23171   0.43164   0.53925   0.00000  Uiso   1.00
C1100  C     0.22032   0.43680   0.58103   0.00000  Uiso   1.00
C1101  C     0.18131   0.49554   0.58135   0.00000  Uiso   1.00
C1102  C     0.32793   0.50735   0.73629   0.00000  Uiso   1.00
C1103  C     0.00740   0.49091   0.76383   0.00000  Uiso   1.00
C1104  C     0.09670   0.54753   0.92331   0.00000  Uiso   1.00
C1105  C     0.18065   0.65575   0.73479   0.00000  Uiso   1.00
C1106  C     0.15275   0.34542   0.76175   0.00000  Uiso   1.00
C1107  C     0.15501   0.38969   0.75978   0.00000  Uiso   1.00
C1108  C     0.17690   0.61115   0.74048   0.00000  Uiso   1.00
C1109  C     0.18861   0.47858   0.64409   0.00000  Uiso   1.00
C1110  C     0.14518   0.52123   0.85627   0.00000  Uiso   1.00
C1111  C     0.13374   0.52858   0.89988   0.00000  Uiso   1.00
C1112  C     0.19762   0.47064   0.60140   0.00000  Uiso   1.00
C1113  C     0.08454   0.54660   0.96424   0.00000  Uiso   1.00
C1114  C     0.25335   0.39495   0.51783   0.00000  Uiso   1.00
C1115  C     0.15922   0.51287   0.91856   0.00000  Uiso   1.00
C1116  C     0.02956   0.52593   0.70101   0.00000  Uiso   1.00
C1117  C     0.01527   0.54164   0.66910   0.00000  Uiso   1.00
C1118  C     0.31075   0.47156   0.80087   0.00000  Uiso   1.00
C1119  C     0.33319   0.45751   0.82807   0.00000  Uiso   1.00
C1120  C     0.21417   0.34340   0.70026   0.00000  Uiso   1.00
C1121  C     0.24445   0.64925   0.66945   0.00000  Uiso   1.00
C1122  C     0.16492   0.53603   0.60077   0.00000  Uiso   1.00
C1123  C     0.23244   0.40798   0.60407   0.00000  Uiso   1.00
C1124  C     0.28232   0.45547   0.95474   0.00000  Uiso   1.00
C1125  C     0.31593   0.48013   0.97349   0.00000  Uiso   1.00
C1126  C     0.14847   0.51409   0.95986   0.00000  Uiso   1.00
C1127  C     0.06981   0.56858   0.90679   0.00000  Uiso   1.00
C1128  C     0.10936   0.52952   0.98240   0.00000  Uiso   1.00
C1129  C     0.17439   0.49890   0.97941   0.00000  Uiso   1.00
C1130  C     0.16011   0.49907   0.52098   0.00000  Uiso   1.00
C1131  C     0.11885   0.51056   0.54169   0.00000  Uiso   1.00
C1132  C     0.09462   0.52689   0.52293   0.00000  Uiso   1.00
H1133  H     0.06367   0.53665   0.54015   0.00000  Uiso   1.00
H1134  H     0.04423   0.55156   0.64499   0.00000  Uiso   1.00
H1135  H     0.04958   0.55246   0.71251   0.00000  Uiso   1.00
H1136  H     0.05091   0.50157   0.68567   0.00000  Uiso   1.00
H1137  H     0.02200   0.43414   0.81183   0.00000  Uiso   1.00
H1138  H     0.01801   0.48475   0.84068   0.00000  Uiso   1.00
H1139  H     0.30855   0.44260   0.85279   0.00000  Uiso   1.00
H1140  H     0.28934   0.49480   0.81901   0.00000  Uiso   1.00
H1141  H     0.29117   0.44316   0.79168   0.00000  Uiso   1.00
H1142  H     0.26569   0.63646   0.68286   0.00000  Uiso   1.00
H1143  H     0.22584   0.62369   0.65533   0.00000  Uiso   1.00
H1144  H     0.12911   0.66559   0.78703   0.00000  Uiso   1.00
H1145  H     0.26554   0.33525   0.64603   0.00000  Uiso   1.00
H1146  H     0.19676   0.35796   0.68418   0.00000  Uiso   1.00
H1147  H     0.23458   0.36895   0.71249   0.00000  Uiso   1.00
H1148  H     0.16957   0.56198   0.58315   0.00000  Uiso   1.00
H1149  H     0.23861   0.41950   0.63203   0.00000  Uiso   1.00
H1150  H     0.31239   0.51403   0.97747   0.00000  Uiso   1.00
H1151  H     0.31265   0.46945   0.50254   0.00000  Uiso   1.00
H1152  H     0.01541   0.47550   0.95397   0.00000  Uiso   1.00
H1153  H     0.28577   0.42175   0.95054   0.00000  Uiso   1.00
H1154  H     0.29071   0.46479   0.92431   0.00000  Uiso   1.00
H1155  H     0.05552   0.55965   0.98227   0.00000  Uiso   1.00
H1156  H     0.08422   0.58666   0.88175   0.00000  Uiso   1.00
H1157  H     0.18677   0.49850   0.89996   0.00000  Uiso   1.00
H1158  H     0.10433   0.50618   0.57257   0.00000  Uiso   1.00
H1159  H     0.22982   0.48922   0.92856   0.00000  Uiso   1.00
H1160  H     0.28190   0.38788   0.52386   0.00000  Uiso   1.00
H1161  H     0.32871   0.51627   0.65614   0.00000  Uiso   1.00
H1162  H     0.33096   0.56936   0.68108   0.00000  Uiso   1.00
O1163  O     0.16667   0.50000   0.75000   0.00000  Uiso   1.00
O1164  O     0.15693   0.45726   0.66625   0.00000  Uiso   1.00
O1165  O     0.12687   0.53979   0.83749   0.00000  Uiso   1.00
O1166  O     0.21088   0.50826   0.65877   0.00000  Uiso   1.00
O1167  O     0.17198   0.49468   0.83749   0.00000  Uiso   1.00
O1168  O     0.23822   0.37136   0.99447   0.00000  Uiso   1.00
O1169  O     0.14501   0.54048   0.63569   0.00000  Uiso   1.00
O1170  O     0.23395   0.37084   0.59306   0.00000  Uiso   1.00
O1171  O     0.03096   0.56723   0.92209   0.00000  Uiso   1.00
O1172  O     0.17849   0.41434   0.77820   0.00000  Uiso   1.00
O1173  O     0.14581   0.59469   0.76767   0.00000  Uiso   1.00
O1174  O     0.07452   0.46584   0.73607   0.00000  Uiso   1.00
O1175  O     0.26785   0.52512   0.71805   0.00000  Uiso   1.00
O1176  O     0.06990   0.52293   0.77820   0.00000  Uiso   1.00
O1177  O     0.25440   0.48610   0.76767   0.00000  Uiso   1.00
O1178  O     0.13800   0.40236   0.73607   0.00000  Uiso   1.00
O1179  O     0.20437   0.58860   0.71805   0.00000  Uiso   1.00
Zn1180 Zn    0.19244   0.47423   0.78277   0.00000  Uiso   1.00
Zn1181 Zn    0.13459   0.45711   0.72257   0.00000  Uiso   1.00
Zn1182 Zn    0.21166   0.52997   0.71188   0.00000  Uiso   1.00
Zn1183 Zn    0.12798   0.53868   0.78277   0.00000  Uiso   1.00
C1184  C     0.38619   0.49333   0.75894   0.00000  Uiso   1.00
C1185  C     0.54791   0.48464   0.95916   0.00000  Uiso   1.00
C1186  C     0.57002   0.46449   0.97799   0.00000  Uiso   1.00
C1187  C     0.61473   0.50653   0.74079   0.00000  Uiso   1.00
C1188  C     0.55166   0.45932   0.51887   0.00000  Uiso   1.00
C1189  C     0.51937   0.48476   0.54074   0.00000  Uiso   1.00
C1190  C     0.56505   0.43164   0.53925   0.00000  Uiso   1.00
C1191  C     0.55365   0.43680   0.58103   0.00000  Uiso   1.00
C1192  C     0.51464   0.49554   0.58135   0.00000  Uiso   1.00
C1193  C     0.66126   0.50735   0.73629   0.00000  Uiso   1.00
C1194  C     0.34073   0.49091   0.76383   0.00000  Uiso   1.00
C1195  C     0.43003   0.54753   0.92331   0.00000  Uiso   1.00
C1196  C     0.51398   0.65575   0.73479   0.00000  Uiso   1.00
C1197  C     0.48608   0.34542   0.76175   0.00000  Uiso   1.00
C1198  C     0.48835   0.38969   0.75978   0.00000  Uiso   1.00
C1199  C     0.51023   0.61115   0.74048   0.00000  Uiso   1.00
C1200  C     0.52194   0.47858   0.64409   0.00000  Uiso   1.00
C1201  C     0.47851   0.52123   0.85627   0.00000  Uiso   1.00
C1202  C     0.46707   0.52858   0.89988   0.00000  Uiso   1.00
C1203  C     0.53095   0.47064   0.60140   0.00000  Uiso   1.00
C1204  C     0.41787   0.54660   0.96424   0.00000  Uiso   1.00
C1205  C     0.58669   0.39495   0.51783   0.00000  Uiso   1.00
C1206  C     0.49255   0.51287   0.91856   0.00000  Uiso   1.00
C1207  C     0.36290   0.52593   0.70101   0.00000  Uiso   1.00
C1208  C     0.34860   0.54164   0.66910   0.00000  Uiso   1.00
C1209  C     0.64408   0.47156   0.80087   0.00000  Uiso   1.00
C1210  C     0.66652   0.45751   0.82807   0.00000  Uiso   1.00
C1211  C     0.54750   0.34340   0.70026   0.00000  Uiso   1.00
C1212  C     0.57778   0.64925   0.66945   0.00000  Uiso   1.00
C1213  C     0.49825   0.53603   0.60077   0.00000  Uiso   1.00
C1214  C     0.56577   0.40798   0.60407   0.00000  Uiso   1.00
C1215  C     0.61565   0.45547   0.95474   0.00000  Uiso   1.00
C1216  C     0.64926   0.48013   0.97349   0.00000  Uiso   1.00
C1217  C     0.48180   0.51409   0.95986   0.00000  Uiso   1.00
C1218  C     0.40315   0.56858   0.90679   0.00000  Uiso   1.00
C1219  C     0.44270   0.52952   0.98240   0.00000  Uiso   1.00
C1220  C     0.50772   0.49890   0.97941   0.00000  Uiso   1.00
C1221  C     0.49345   0.49907   0.52098   0.00000  Uiso   1.00
C1222  C     0.45218   0.51056   0.54169   0.00000  Uiso   1.00
C1223  C     0.42796   0.52689   0.52293   0.00000  Uiso   1.00
H1224  H     0.39701   0.53665   0.54015   0.00000  Uiso   1.00
H1225  H     0.37756   0.55156   0.64499   0.00000  Uiso   1.00
H1226  H     0.38292   0.55246   0.71251   0.00000  Uiso   1.00
H1227  H     0.38424   0.50157   0.68567   0.00000  Uiso   1.00
H1228  H     0.35534   0.43414   0.81183   0.00000  Uiso   1.00
H1229  H     0.35135   0.48475   0.84068   0.00000  Uiso   1.00
H1230  H     0.64189   0.44260   0.85279   0.00000  Uiso   1.00
H1231  H     0.62267   0.49480   0.81901   0.00000  Uiso   1.00
H1232  H     0.62450   0.44316   0.79168   0.00000  Uiso   1.00
H1233  H     0.59902   0.63646   0.68286   0.00000  Uiso   1.00
H1234  H     0.55917   0.62369   0.65533   0.00000  Uiso   1.00
H1235  H     0.46244   0.66559   0.78703   0.00000  Uiso   1.00
H1236  H     0.59887   0.33525   0.64603   0.00000  Uiso   1.00
H1237  H     0.53010   0.35796   0.68418   0.00000  Uiso   1.00
H1238  H     0.56792   0.36895   0.71249   0.00000  Uiso   1.00
H1239  H     0.50290   0.56198   0.58315   0.00000  Uiso   1.00
H1240  H     0.57194   0.41950   0.63203   0.00000  Uiso   1.00
H1241  H     0.64573   0.51403   0.97747   0.00000  Uiso   1.00
H1242  H     0.64599   0.46945   0.50254   0.00000  Uiso   1.00
H1243  H     0.34875   0.47550   0.95397   0.00000  Uiso   1.00
H1244  H     0.61911   0.42175   0.95054   0.00000  Uiso   1.00
H1245  H     0.62405   0.46479   0.92431   0.00000  Uiso   1.00
H1246  H     0.38885   0.55965   0.98227   0.00000  Uiso   1.00
H1247  H     0.41755   0.58666   0.88175   0.00000  Uiso   1.00
H1248  H     0.52010   0.49850   0.89996   0.00000  Uiso   1.00
H1249  H     0.43766   0.50618   0.57257   0.00000  Uiso   1.00
H1250  H     0.56315   0.48922   0.92856   0.00000  Uiso   1.00
H1251  H     0.61524   0.38788   0.52386   0.00000  Uiso   1.00
H1252  H     0.66204   0.51627   0.65614   0.00000  Uiso   1.00
H1253  H     0.66430   0.56936   0.68108   0.00000  Uiso   1.00
O1254  O     0.50000   0.50000   0.75000   0.00000  Uiso   1.00
O1255  O     0.49027   0.45726   0.66625   0.00000  Uiso   1.00
O1256  O     0.46020   0.53979   0.83749   0.00000  Uiso   1.00
O1257  O     0.54421   0.50826   0.65877   0.00000  Uiso   1.00
O1258  O     0.50532   0.49468   0.83749   0.00000  Uiso   1.00
O1259  O     0.57155   0.37136   0.99447   0.00000  Uiso   1.00
O1260  O     0.47834   0.54048   0.63569   0.00000  Uiso   1.00
O1261  O     0.56728   0.37084   0.59306   0.00000  Uiso   1.00
O1262  O     0.36429   0.56723   0.92209   0.00000  Uiso   1.00
O1263  O     0.51182   0.41434   0.77820   0.00000  Uiso   1.00
O1264  O     0.47914   0.59469   0.76767   0.00000  Uiso   1.00
O1265  O     0.40785   0.46584   0.73607   0.00000  Uiso   1.00
O1266  O     0.60119   0.52512   0.71805   0.00000  Uiso   1.00
O1267  O     0.40323   0.52293   0.77820   0.00000  Uiso   1.00
O1268  O     0.58773   0.48610   0.76767   0.00000  Uiso   1.00
O1269  O     0.47133   0.40236   0.73607   0.00000  Uiso   1.00
O1270  O     0.53771   0.58860   0.71805   0.00000  Uiso   1.00
Zn1271 Zn    0.52577   0.47423   0.78277   0.00000  Uiso   1.00
Zn1272 Zn    0.46792   0.45711   0.72257   0.00000  Uiso   1.00
Zn1273 Zn    0.54500   0.52997   0.71188   0.00000  Uiso   1.00
Zn1274 Zn    0.46131   0.53868   0.78277   0.00000  Uiso   1.00
C1275  C     0.71952   0.49333   0.75894   0.00000  Uiso   1.00
C1276  C     0.88124   0.48464   0.95916   0.00000  Uiso   1.00
C1277  C     0.90335   0.46449   0.97799   0.00000  Uiso   1.00
C1278  C     0.94807   0.50653   0.74079   0.00000  Uiso   1.00
C1279  C     0.88499   0.45932   0.51887   0.00000  Uiso   1.00
C1280  C     0.85270   0.48476   0.54074   0.00000  Uiso   1.00
C1281  C     0.89838   0.43164   0.53925   0.00000  Uiso   1.00
C1282  C     0.88699   0.43680   0.58103   0.00000  Uiso   1.00
C1283  C     0.84797   0.49554   0.58135   0.00000  Uiso   1.00
C1284  C     0.99460   0.50735   0.73629   0.00000  Uiso   1.00
C1285  C     0.67406   0.49091   0.76383   0.00000  Uiso   1.00
C1286  C     0.76337   0.54753   0.92331   0.00000  Uiso   1.00
C1287  C     0.84732   0.65575   0.73479   0.00000  Uiso   1.00
C1288  C     0.81942   0.34542   0.76175   0.00000  Uiso   1.00
C1289  C     0.82168   0.38969   0.75978   0.00000  Uiso   1.00
C1290  C     0.84357   0.61115   0.74048   0.00000  Uiso   1.00
C1291  C     0.85527   0.47858   0.64409   0.00000  Uiso   1.00
C1292  C     0.81184   0.52123   0.85627   0.00000  Uiso   1.00
C1293  C     0.80040   0.52858   0.89988   0.00000  Uiso   1.00
C1294  C     0.86429   0.47064   0.60140   0.00000  Uiso   1.00
C1295  C     0.75120   0.54660   0.96424   0.00000  Uiso   1.00
C1296  C     0.92002   0.39495   0.51783   0.00000  Uiso   1.00
C1297  C     0.82589   0.51287   0.91856   0.00000  Uiso   1.00
C1298  C     0.69623   0.52593   0.70101   0.00000  Uiso   1.00
C1299  C     0.68193   0.54164   0.66910   0.00000  Uiso   1.00
C1300  C     0.97741   0.47156   0.80087   0.00000  Uiso   1.00
C1301  C     0.99985   0.45751   0.82807   0.00000  Uiso   1.00
C1302  C     0.88084   0.34340   0.70026   0.00000  Uiso   1.00
C1303  C     0.91111   0.64925   0.66945   0.00000  Uiso   1.00
C1304  C     0.83158   0.53603   0.60077   0.00000  Uiso   1.00
C1305  C     0.89910   0.40798   0.60407   0.00000  Uiso   1.00
C1306  C     0.94898   0.45547   0.95474   0.00000  Uiso   1.00
C1307  C     0.98260   0.48013   0.97349   0.00000  Uiso   1.00
C1308  C     0.81514   0.51409   0.95986   0.00000  Uiso   1.00
C1309  C     0.73648   0.56858   0.90679   0.00000  Uiso   1.00
C1310  C     0.77603   0.52952   0.98240   0.00000  Uiso   1.00
C1311  C     0.84105   0.49890   0.97941   0.00000  Uiso   1.00
C1312  C     0.82678   0.49907   0.52098   0.00000  Uiso   1.00
C1313  C     0.78552   0.51056   0.54169   0.00000  Uiso   1.00
C1314  C     0.76129   0.52689   0.52293   0.00000  Uiso   1.00
H1315  H     0.73034   0.53665   0.54015   0.00000  Uiso   1.00
H1316  H     0.71090   0.55156   0.64499   0.00000  Uiso   1.00
H1317  H     0.71625   0.55246   0.71251   0.00000  Uiso   1.00
H1318  H     0.71758   0.50157   0.68567   0.00000  Uiso   1.00
H1319  H     0.68867   0.43414   0.81183   0.00000  Uiso   1.00
H1320  H     0.68468   0.48475   0.84068   0.00000  Uiso   1.00
H1321  H     0.97522   0.44260   0.85279   0.00000  Uiso   1.00
H1322  H     0.95600   0.49480   0.81901   0.00000  Uiso   1.00
H1323  H     0.95784   0.44316   0.79168   0.00000  Uiso   1.00
H1324  H     0.93236   0.63646   0.68286   0.00000  Uiso   1.00
H1325  H     0.89250   0.62369   0.65533   0.00000  Uiso   1.00
H1326  H     0.79577   0.66559   0.78703   0.00000  Uiso   1.00
H1327  H     0.93220   0.33525   0.64603   0.00000  Uiso   1.00
H1328  H     0.86343   0.35796   0.68418   0.00000  Uiso   1.00
H1329  H     0.90125   0.36895   0.71249   0.00000  Uiso   1.00
H1330  H     0.83624   0.56198   0.58315   0.00000  Uiso   1.00
H1331  H     0.90527   0.41950   0.63203   0.00000  Uiso   1.00
H1332  H     0.97906   0.51403   0.97747   0.00000  Uiso   1.00
H1333  H     0.97932   0.46945   0.50254   0.00000  Uiso   1.00
H1334  H     0.68208   0.47550   0.95397   0.00000  Uiso   1.00
H1335  H     0.95244   0.42175   0.95054   0.00000  Uiso   1.00
H1336  H     0.95738   0.46479   0.92431   0.00000  Uiso   1.00
H1337  H     0.72219   0.55965   0.98227   0.00000  Uiso   1.00
H1338  H     0.75089   0.58666   0.88175   0.00000  Uiso   1.00
H1339  H     0.85344   0.49850   0.89996   0.00000  Uiso   1.00
H1340  H     0.77100   0.50618   0.57257   0.00000  Uiso   1.00
H1341  H     0.89649   0.48922   0.92856   0.00000  Uiso   1.00
H1342  H     0.94857   0.38788   0.52386   0.00000  Uiso   1.00
H1343  H     0.99538   0.51627   0.65614   0.00000  Uiso   1.00
H1344  H     0.99763   0.56936   0.68108   0.00000  Uiso   1.00
O1345  O     0.83333   0.50000   0.75000   0.00000  Uiso   1.00
O1346  O     0.82360   0.45726   0.66625   0.00000  Uiso   1.00
O1347  O     0.79354   0.53979   0.83749   0.00000  Uiso   1.00
O1348  O     0.87755   0.50826   0.65877   0.00000  Uiso   1.00
O1349  O     0.83865   0.49468   0.83749   0.00000  Uiso   1.00
O1350  O     0.90489   0.37136   0.99447   0.00000  Uiso   1.00
O1351  O     0.81168   0.54048   0.63569   0.00000  Uiso   1.00
O1352  O     0.90061   0.37084   0.59306   0.00000  Uiso   1.00
O1353  O     0.69762   0.56723   0.92209   0.00000  Uiso   1.00
O1354  O     0.84515   0.41434   0.77820   0.00000  Uiso   1.00
O1355  O     0.81247   0.59469   0.76767   0.00000  Uiso   1.00
O1356  O     0.74119   0.46584   0.73607   0.00000  Uiso   1.00
O1357  O     0.93452   0.52512   0.71805   0.00000  Uiso   1.00
O1358  O     0.73656   0.52293   0.77820   0.00000  Uiso   1.00
O1359  O     0.92106   0.48610   0.76767   0.00000  Uiso   1.00
O1360  O     0.80467   0.40236   0.73607   0.00000  Uiso   1.00
O1361  O     0.87104   0.58860   0.71805   0.00000  Uiso   1.00
Zn1362 Zn    0.85910   0.47423   0.78277   0.00000  Uiso   1.00
Zn1363 Zn    0.80125   0.45711   0.72257   0.00000  Uiso   1.00
Zn1364 Zn    0.87833   0.52997   0.71188   0.00000  Uiso   1.00
Zn1365 Zn    0.79465   0.53868   0.78277   0.00000  Uiso   1.00
C1366  C     0.05286   0.82666   0.75894   0.00000  Uiso   1.00
C1367  C     0.21457   0.81797   0.95916   0.00000  Uiso   1.00
C1368  C     0.23669   0.79783   0.97799   0.00000  Uiso   1.00
C1369  C     0.28140   0.83987   0.74079   0.00000  Uiso   1.00
C1370  C     0.21833   0.79265   0.51887   0.00000  Uiso   1.00
C1371  C     0.18604   0.81809   0.54074   0.00000  Uiso   1.00
C1372  C     0.23171   0.76498   0.53925   0.00000  Uiso   1.00
C1373  C     0.22032   0.77014   0.58103   0.00000  Uiso   1.00
C1374  C     0.18131   0.82887   0.58135   0.00000  Uiso   1.00
C1375  C     0.32793   0.84068   0.73629   0.00000  Uiso   1.00
C1376  C     0.00740   0.82425   0.76383   0.00000  Uiso   1.00
C1377  C     0.09670   0.88086   0.92331   0.00000  Uiso   1.00
C1378  C     0.18065   0.98909   0.73479   0.00000  Uiso   1.00
C1379  C     0.15275   0.67876   0.76175   0.00000  Uiso   1.00
C1380  C     0.15501   0.72302   0.75978   0.00000  Uiso   1.00
C1381  C     0.17690   0.94448   0.74048   0.00000  Uiso   1.00
C1382  C     0.18861   0.81191   0.64409   0.00000  Uiso   1.00
C1383  C     0.14518   0.85456   0.85627   0.00000  Uiso   1.00
C1384  C     0.13374   0.86191   0.89988   0.00000  Uiso   1.00
C1385  C     0.19762   0.80398   0.60140   0.00000  Uiso   1.00
C1386  C     0.08454   0.87993   0.96424   0.00000  Uiso   1.00
C1387  C     0.25335   0.72828   0.51783   0.00000  Uiso   1.00
C1388  C     0.15922   0.84621   0.91856   0.00000  Uiso   1.00
C1389  C     0.02956   0.85927   0.70101   0.00000  Uiso   1.00
C1390  C     0.01527   0.87497   0.66910   0.00000  Uiso   1.00
C1391  C     0.31075   0.80489   0.80087   0.00000  Uiso   1.00
C1392  C     0.33319   0.79084   0.82807   0.00000  Uiso   1.00
C1393  C     0.21417   0.67674   0.70026   0.00000  Uiso   1.00
C1394  C     0.24445   0.98258   0.66945   0.00000  Uiso   1.00
C1395  C     0.16492   0.86936   0.60077   0.00000  Uiso   1.00
C1396  C     0.23244   0.74132   0.60407   0.00000  Uiso   1.00
C1397  C     0.28232   0.78881   0.95474   0.00000  Uiso   1.00
C1398  C     0.31593   0.81346   0.97349   0.00000  Uiso   1.00
C1399  C     0.14847   0.84742   0.95986   0.00000  Uiso   1.00
C1400  C     0.06981   0.90192   0.90679   0.00000  Uiso   1.00
C1401  C     0.10936   0.86285   0.98240   0.00000  Uiso   1.00
C1402  C     0.17439   0.83224   0.97941   0.00000  Uiso   1.00
C1403  C     0.16011   0.83240   0.52098   0.00000  Uiso   1.00
C1404  C     0.11885   0.84389   0.54169   0.00000  Uiso   1.00
C1405  C     0.09462   0.86023   0.52293   0.00000  Uiso   1.00
H1406  H     0.06367   0.86998   0.54015   0.00000  Uiso   1.00
H1407  H     0.04423   0.88490   0.64499   0.00000  Uiso   1.00
H1408  H     0.04958   0.88579   0.71251   0.00000  Uiso   1.00
H1409  H     0.05091   0.83490   0.68567   0.00000  Uiso   1.00
H1410  H     0.02200   0.76747   0.81183   0.00000  Uiso   1.00
H1411  H     0.01801   0.81809   0.84068   0.00000  Uiso   1.00
H1412  H     0.30855   0.77593   0.85279   0.00000  Uiso   1.00
H1413  H     0.28934   0.82813   0.81901   0.00000  Uiso   1.00
H1414  H     0.29117   0.77649   0.79168   0.00000  Uiso   1.00
H1415  H     0.26569   0.96980   0.68286   0.00000  Uiso   1.00
H1416  H     0.22584   0.95702   0.65533   0.00000  Uiso   1.00
H1417  H     0.12911   0.99892   0.78703   0.00000  Uiso   1.00
H1418  H     0.26554   0.66858   0.64603   0.00000  Uiso   1.00
H1419  H     0.19676   0.69130   0.68418   0.00000  Uiso   1.00
H1420  H     0.23458   0.70229   0.71249   0.00000  Uiso   1.00
H1421  H     0.16957   0.89531   0.58315   0.00000  Uiso   1.00
H1422  H     0.23861   0.75284   0.63203   0.00000  Uiso   1.00
H1423  H     0.31239   0.84736   0.97747   0.00000  Uiso   1.00
H1424  H     0.31265   0.80278   0.50254   0.00000  Uiso   1.00
H1425  H     0.01541   0.80883   0.95397   0.00000  Uiso   1.00
H1426  H     0.28577   0.75509   0.95054   0.00000  Uiso   1.00
H1427  H     0.29071   0.79813   0.92431   0.00000  Uiso   1.00
H1428  H     0.05552   0.89299   0.98227   0.00000  Uiso   1.00
H1429  H     0.08422   0.92000   0.88175   0.00000  Uiso   1.00
H1430  H     0.18677   0.83183   0.89996   0.00000  Uiso   1.00
H1431  H     0.10433   0.83952   0.57257   0.00000  Uiso   1.00
H1432  H     0.22982   0.82255   0.92856   0.00000  Uiso   1.00
H1433  H     0.28190   0.72122   0.52386   0.00000  Uiso   1.00
H1434  H     0.32871   0.84960   0.65614   0.00000  Uiso   1.00
H1435  H     0.33096   0.90269   0.68108   0.00000  Uiso   1.00
O1436  O     0.16667   0.83333   0.75000   0.00000  Uiso   1.00
O1437  O     0.15693   0.79060   0.66625   0.00000  Uiso   1.00
O1438  O     0.12687   0.87313   0.83749   0.00000  Uiso   1.00
O1439  O     0.21088   0.84159   0.65877   0.00000  Uiso   1.00
O1440  O     0.17198   0.82802   0.83749   0.00000  Uiso   1.00
O1441  O     0.23822   0.70470   0.99447   0.00000  Uiso   1.00
O1442  O     0.14501   0.87381   0.63569   0.00000  Uiso   1.00
O1443  O     0.23395   0.70418   0.59306   0.00000  Uiso   1.00
O1444  O     0.03096   0.90056   0.92209   0.00000  Uiso   1.00
O1445  O     0.17849   0.74768   0.77820   0.00000  Uiso   1.00
O1446  O     0.14581   0.92803   0.76767   0.00000  Uiso   1.00
O1447  O     0.07452   0.79917   0.73607   0.00000  Uiso   1.00
O1448  O     0.26785   0.85845   0.71805   0.00000  Uiso   1.00
O1449  O     0.06990   0.85627   0.77820   0.00000  Uiso   1.00
O1450  O     0.25440   0.81944   0.76767   0.00000  Uiso   1.00
O1451  O     0.13800   0.73570   0.73607   0.00000  Uiso   1.00
O1452  O     0.20437   0.92193   0.71805   0.00000  Uiso   1.00
Zn1453 Zn    0.19244   0.80756   0.78277   0.00000  Uiso   1.00
Zn1454 Zn    0.13459   0.79044   0.72257   0.00000  Uiso   1.00
Zn1455 Zn    0.21166   0.86331   0.71188   0.00000  Uiso   1.00
Zn1456 Zn    0.12798   0.87202   0.78277   0.00000  Uiso   1.00
C1457  C     0.38619   0.82666   0.75894   0.00000  Uiso   1.00
C1458  C     0.54791   0.81797   0.95916   0.00000  Uiso   1.00
C1459  C     0.57002   0.79783   0.97799   0.00000  Uiso   1.00
C1460  C     0.61473   0.83987   0.74079   0.00000  Uiso   1.00
C1461  C     0.55166   0.79265   0.51887   0.00000  Uiso   1.00
C1462  C     0.51937   0.81809   0.54074   0.00000  Uiso   1.00
C1463  C     0.56505   0.76498   0.53925   0.00000  Uiso   1.00
C1464  C     0.55365   0.77014   0.58103   0.00000  Uiso   1.00
C1465  C     0.51464   0.82887   0.58135   0.00000  Uiso   1.00
C1466  C     0.66126   0.84068   0.73629   0.00000  Uiso   1.00
C1467  C     0.34073   0.82425   0.76383   0.00000  Uiso   1.00
C1468  C     0.43003   0.88086   0.92331   0.00000  Uiso   1.00
C1469  C     0.51398   0.98909   0.73479   0.00000  Uiso   1.00
C1470  C     0.48608   0.67876   0.76175   0.00000  Uiso   1.00
C1471  C     0.48835   0.72302   0.75978   0.00000  Uiso   1.00
C1472  C     0.51023   0.94448   0.74048   0.00000  Uiso   1.00
C1473  C     0.52194   0.81191   0.64409   0.00000  Uiso   1.00
C1474  C     0.47851   0.85456   0.85627   0.00000  Uiso   1.00
C1475  C     0.46707   0.86191   0.89988   0.00000  Uiso   1.00
C1476  C     0.53095   0.80398   0.60140   0.00000  Uiso   1.00
C1477  C     0.41787   0.87993   0.96424   0.00000  Uiso   1.00
C1478  C     0.58669   0.72828   0.51783   0.00000  Uiso   1.00
C1479  C     0.49255   0.84621   0.91856   0.00000  Uiso   1.00
C1480  C     0.36290   0.85927   0.70101   0.00000  Uiso   1.00
C1481  C     0.34860   0.87497   0.66910   0.00000  Uiso   1.00
C1482  C     0.64408   0.80489   0.80087   0.00000  Uiso   1.00
C1483  C     0.66652   0.79084   0.82807   0.00000  Uiso   1.00
C1484  C     0.54750   0.67674   0.70026   0.00000  Uiso   1.00
C1485  C     0.57778   0.98258   0.66945   0.00000  Uiso   1.00
C1486  C     0.49825   0.86936   0.60077   0.00000  Uiso   1.00
C1487  C     0.56577   0.74132   0.60407   0.00000  Uiso   1.00
C1488  C     0.61565   0.78881   0.95474   0.00000  Uiso   1.00
C1489  C     0.64926   0.81346   0.97349   0.00000  Uiso   1.00
C1490  C     0.48180   0.84742   0.95986   0.00000  Uiso   1.00
C1491  C     0.40315   0.90192   0.90679   0.00000  Uiso   1.00
C1492  C     0.44270   0.86285   0.98240   0.00000  Uiso   1.00
C1493  C     0.50772   0.83224   0.97941   0.00000  Uiso   1.00
C1494  C     0.49345   0.83240   0.52098   0.00000  Uiso   1.00
C1495  C     0.45218   0.84389   0.54169   0.00000  Uiso   1.00
C1496  C     0.42796   0.86023   0.52293   0.00000  Uiso   1.00
H1497  H     0.39701   0.86998   0.54015   0.00000  Uiso   1.00
H1498  H     0.37756   0.88490   0.64499   0.00000  Uiso   1.00
H1499  H     0.38292   0.88579   0.71251   0.00000  Uiso   1.00
H1500  H     0.38424   0.83490   0.68567   0.00000  Uiso   1.00
H1501  H     0.35534   0.76747   0.81183   0.00000  Uiso   1.00
H1502  H     0.35135   0.81809   0.84068   0.00000  Uiso   1.00
H1503  H     0.64189   0.77593   0.85279   0.00000  Uiso   1.00
H1504  H     0.62267   0.82813   0.81901   0.00000  Uiso   1.00
H1505  H     0.62450   0.77649   0.79168   0.00000  Uiso   1.00
H1506  H     0.59902   0.96980   0.68286   0.00000  Uiso   1.00
H1507  H     0.55917   0.95702   0.65533   0.00000  Uiso   1.00
H1508  H     0.46244   0.99892   0.78703   0.00000  Uiso   1.00
H1509  H     0.59887   0.66858   0.64603   0.00000  Uiso   1.00
H1510  H     0.53010   0.69130   0.68418   0.00000  Uiso   1.00
H1511  H     0.56792   0.70229   0.71249   0.00000  Uiso   1.00
H1512  H     0.50290   0.89531   0.58315   0.00000  Uiso   1.00
H1513  H     0.57194   0.75284   0.63203   0.00000  Uiso   1.00
H1514  H     0.64573   0.84736   0.97747   0.00000  Uiso   1.00
H1515  H     0.64599   0.80278   0.50254   0.00000  Uiso   1.00
H1516  H     0.34875   0.80883   0.95397   0.00000  Uiso   1.00
H1517  H     0.61911   0.75509   0.95054   0.00000  Uiso   1.00
H1518  H     0.62405   0.79813   0.92431   0.00000  Uiso   1.00
H1519  H     0.38885   0.89299   0.98227   0.00000  Uiso   1.00
H1520  H     0.41755   0.92000   0.88175   0.00000  Uiso   1.00
H1521  H     0.52010   0.83183   0.89996   0.00000  Uiso   1.00
H1522  H     0.43766   0.83952   0.57257   0.00000  Uiso   1.00
H1523  H     0.56315   0.82255   0.92856   0.00000  Uiso   1.00
H1524  H     0.61524   0.72122   0.52386   0.00000  Uiso   1.00
H1525  H     0.66204   0.84960   0.65614   0.00000  Uiso   1.00
H1526  H     0.66430   0.90269   0.68108   0.00000  Uiso   1.00
O1527  O     0.50000   0.83333   0.75000   0.00000  Uiso   1.00
O1528  O     0.49027   0.79060   0.66625   0.00000  Uiso   1.00
O1529  O     0.46020   0.87313   0.83749   0.00000  Uiso   1.00
O1530  O     0.54421   0.84159   0.65877   0.00000  Uiso   1.00
O1531  O     0.50532   0.82802   0.83749   0.00000  Uiso   1.00
O1532  O     0.57155   0.70470   0.99447   0.00000  Uiso   1.00
O1533  O     0.47834   0.87381   0.63569   0.00000  Uiso   1.00
O1534  O     0.56728   0.70418   0.59306   0.00000  Uiso   1.00
O1535  O     0.36429   0.90056   0.92209   0.00000  Uiso   1.00
O1536  O     0.51182   0.74768   0.77820   0.00000  Uiso   1.00
O1537  O     0.47914   0.92803   0.76767   0.00000  Uiso   1.00
O1538  O     0.40785   0.79917   0.73607   0.00000  Uiso   1.00
O1539  O     0.60119   0.85845   0.71805   0.00000  Uiso   1.00
O1540  O     0.40323   0.85627   0.77820   0.00000  Uiso   1.00
O1541  O     0.58773   0.81944   0.76767   0.00000  Uiso   1.00
O1542  O     0.47133   0.73570   0.73607   0.00000  Uiso   1.00
O1543  O     0.53771   0.92193   0.71805   0.00000  Uiso   1.00
Zn1544 Zn    0.52577   0.80756   0.78277   0.00000  Uiso   1.00
Zn1545 Zn    0.46792   0.79044   0.72257   0.00000  Uiso   1.00
Zn1546 Zn    0.54500   0.86331   0.71188   0.00000  Uiso   1.00
Zn1547 Zn    0.46131   0.87202   0.78277   0.00000  Uiso   1.00
C1548  C     0.71952   0.82666   0.75894   0.00000  Uiso   1.00
C1549  C     0.88124   0.81797   0.95916   0.00000  Uiso   1.00
C1550  C     0.90335   0.79783   0.97799   0.00000  Uiso   1.00
C1551  C     0.94807   0.83987   0.74079   0.00000  Uiso   1.00
C1552  C     0.88499   0.79265   0.51887   0.00000  Uiso   1.00
C1553  C     0.85270   0.81809   0.54074   0.00000  Uiso   1.00
C1554  C     0.89838   0.76498   0.53925   0.00000  Uiso   1.00
C1555  C     0.88699   0.77014   0.58103   0.00000  Uiso   1.00
C1556  C     0.84797   0.82887   0.58135   0.00000  Uiso   1.00
C1557  C     0.99460   0.84068   0.73629   0.00000  Uiso   1.00
C1558  C     0.67406   0.82425   0.76383   0.00000  Uiso   1.00
C1559  C     0.76337   0.88086   0.92331   0.00000  Uiso   1.00
C1560  C     0.84732   0.98909   0.73479   0.00000  Uiso   1.00
C1561  C     0.81942   0.67876   0.76175   0.00000  Uiso   1.00
C1562  C     0.82168   0.72302   0.75978   0.00000  Uiso   1.00
C1563  C     0.84357   0.94448   0.74048   0.00000  Uiso   1.00
C1564  C     0.85527   0.81191   0.64409   0.00000  Uiso   1.00
C1565  C     0.81184   0.85456   0.85627   0.00000  Uiso   1.00
C1566  C     0.80040   0.86191   0.89988   0.00000  Uiso   1.00
C1567  C     0.86429   0.80398   0.60140   0.00000  Uiso   1.00
C1568  C     0.75120   0.87993   0.96424   0.00000  Uiso   1.00
C1569  C     0.92002   0.72828   0.51783   0.00000  Uiso   1.00
C1570  C     0.82589   0.84621   0.91856   0.00000  Uiso   1.00
C1571  C     0.69623   0.85927   0.70101   0.00000  Uiso   1.00
C1572  C     0.68193   0.87497   0.66910   0.00000  Uiso   1.00
C1573  C     0.97741   0.80489   0.80087   0.00000  Uiso   1.00
C1574  C     0.99985   0.79084   0.82807   0.00000  Uiso   1.00
C1575  C     0.88084   0.67674   0.70026   0.00000  Uiso   1.00
C1576  C     0.91111   0.98258   0.66945   0.00000  Uiso   1.00
C1577  C     0.83158   0.86936   0.60077   0.00000  Uiso   1.00
C1578  C     0.89910   0.74132   0.60407   0.00000  Uiso   1.00
C1579  C     0.94898   0.78881   0.95474   0.00000  Uiso   1.00
C1580  C     0.98260   0.81346   0.97349   0.00000  Uiso   1.00
C1581  C     0.81514   0.84742   0.95986   0.00000  Uiso   1.00
C1582  C     0.73648   0.90192   0.90679   0.00000  Uiso   1.00
C1583  C     0.77603   0.86285   0.98240   0.00000  Uiso   1.00
C1584  C     0.84105   0.83224   0.97941   0.00000  Uiso   1.00
C1585  C     0.82678   0.83240   0.52098   0.00000  Uiso   1.00
C1586  C     0.78552   0.84389   0.54169   0.00000  Uiso   1.00
C1587  C     0.76129   0.86023   0.52293   0.00000  Uiso   1.00
H1588  H     0.73034   0.86998   0.54015   0.00000  Uiso   1.00
H1589  H     0.71090   0.88490   0.64499   0.00000  Uiso   1.00
H1590  H     0.71625   0.88579   0.71251   0.00000  Uiso   1.00
H1591  H     0.71758   0.83490   0.68567   0.00000  Uiso   1.00
H1592  H     0.68867   0.76747   0.81183   0.00000  Uiso   1.00
H1593  H     0.68468   0.81809   0.84068   0.00000  Uiso   1.00
H1594  H     0.97522   0.77593   0.85279   0.00000  Uiso   1.00
H1595  H     0.95600   0.82813   0.81901   0.00000  Uiso   1.00
H1596  H     0.95784   0.77649   0.79168   0.00000  Uiso   1.00
H1597  H     0.93236   0.96980   0.68286   0.00000  Uiso   1.00
H1598  H     0.89250   0.95702   0.65533   0.00000  Uiso   1.00
H1599  H     0.79577   0.99892   0.78703   0.00000  Uiso   1.00
H1600  H     0.93220   0.66858   0.64603   0.00000  Uiso   1.00
H1601  H     0.86343   0.69130   0.68418   0.00000  Uiso   1.00
H1602  H     0.90125   0.70229   0.71249   0.00000  Uiso   1.00
H1603  H     0.83624   0.89531   0.58315   0.00000  Uiso   1.00
H1604  H     0.90527   0.75284   0.63203   0.00000  Uiso   1.00
H1605  H     0.97906   0.84736   0.97747   0.00000  Uiso   1.00
H1606  H     0.97932   0.80278   0.50254   0.00000  Uiso   1.00
H1607  H     0.68208   0.80883   0.95397   0.00000  Uiso   1.00
H1608  H     0.95244   0.75509   0.95054   0.00000  Uiso   1.00
H1609  H     0.95738   0.79813   0.92431   0.00000  Uiso   1.00
H1610  H     0.72219   0.89299   0.98227   0.00000  Uiso   1.00
H1611  H     0.75089   0.92000   0.88175   0.00000  Uiso   1.00
H1612  H     0.85344   0.83183   0.89996   0.00000  Uiso   1.00
H1613  H     0.77100   0.83952   0.57257   0.00000  Uiso   1.00
H1614  H     0.89649   0.82255   0.92856   0.00000  Uiso   1.00
H1615  H     0.94857   0.72122   0.52386   0.00000  Uiso   1.00
H1616  H     0.99538   0.84960   0.65614   0.00000  Uiso   1.00
H1617  H     0.99763   0.90269   0.68108   0.00000  Uiso   1.00
O1618  O     0.83333   0.83333   0.75000   0.00000  Uiso   1.00
O1619  O     0.82360   0.79060   0.66625   0.00000  Uiso   1.00
O1620  O     0.79354   0.87313   0.83749   0.00000  Uiso   1.00
O1621  O     0.87755   0.84159   0.65877   0.00000  Uiso   1.00
O1622  O     0.83865   0.82802   0.83749   0.00000  Uiso   1.00
O1623  O     0.90489   0.70470   0.99447   0.00000  Uiso   1.00
O1624  O     0.81168   0.87381   0.63569   0.00000  Uiso   1.00
O1625  O     0.90061   0.70418   0.59306   0.00000  Uiso   1.00
O1626  O     0.69762   0.90056   0.92209   0.00000  Uiso   1.00
O1627  O     0.84515   0.74768   0.77820   0.00000  Uiso   1.00
O1628  O     0.81247   0.92803   0.76767   0.00000  Uiso   1.00
O1629  O     0.74119   0.79917   0.73607   0.00000  Uiso   1.00
O1630  O     0.93452   0.85845   0.71805   0.00000  Uiso   1.00
O1631  O     0.73656   0.85627   0.77820   0.00000  Uiso   1.00
O1632  O     0.92106   0.81944   0.76767   0.00000  Uiso   1.00
O1633  O     0.80467   0.73570   0.73607   0.00000  Uiso   1.00
O1634  O     0.87104   0.92193   0.71805   0.00000  Uiso   1.00
Zn1635 Zn    0.85910   0.80756   0.78277   0.00000  Uiso   1.00
Zn1636 Zn    0.80125   0.79044   0.72257   0.00000  Uiso   1.00
Zn1637 Zn    0.87833   0.86331   0.71188   0.00000  Uiso   1.00
Zn1638 Zn    0.79465   0.87202   0.78277   0.00000  Uiso   1.00
loop_
_geom_bond_atom_site_label_1
_geom_bond_atom_site_label_2
_geom_bond_distance
_geom_bond_site_symmetry_2
_ccdc_geom_bond_type
C1     C11     1.438   .     S
C1     O84     1.265   .     A
C1     O82     1.270   .     A
C2     H67     1.076   .     S
C2     C3      1.403   .     A
C2     C37     1.412   .     A
C3     C32     1.526   .     S
C3     C824    1.425   .     S
C4     O85     1.275   .     A
C4     C10     1.482   .     S
C4     O83     1.287   .     A
C5     C6      1.416   .     A
C5     C7      1.423   .     A
C5     C822    1.425   1_554 S
C6     C9      1.413   .     A
C6     C38     1.419   .     A
C7     C8      1.418   .     A
C7     C22     1.480   .     S
C8     C20     1.413   .     A
C8     C31     1.495   .     S
C9     C20     1.406   .     A
C9     C30     1.497   .     S
C10    C102    1.376   .     S
C10    C115    1.546   .     S
C11    C192    1.376   1_455 S
C11    C208    1.537   1_455 S
C12    C21     1.398   .     A
C12    C35     1.485   .     S
C12    C19     1.424   .     A
C13    C16     1.472   .     S
C13    C287    1.342   .     S
C13    C301    1.541   .     S
C14    C15     1.439   .     S
C14    C559    1.342   1_545 S
C14    H598    1.086   1_545 S
C15    O80     1.282   .     A
C15    O86     1.285   .     A
C16    O87     1.263   .     A
C16    O81     1.282   .     A
C17    C20     1.458   .     S
C17    O74     1.272   .     A
C17    O72     1.271   .     A
C18    O75     1.297   .     A
C18    C19     1.483   .     S
C18    O73     1.281   .     A
C19    C23     1.402   .     A
C21    C36     1.396   .     A
C21    H63     1.085   .     S
C22    H68     1.085   .     S
C22    O895    1.221   1_554 S
C23    C34     1.407   .     A
C23    H65     1.075   .     S
C24    C25     1.529   .     S
C24    H44     1.112   .     S
C24    H43     1.112   .     S
C24    C192    1.546   1_455 S
C25    H42     1.111   .     S
C25    H251    1.111   1_455 S
C25    H252    1.110   1_455 S
C26    C27     1.534   .     S
C26    H48     1.112   .     S
C26    H49     1.111   .     S
C26    C102    1.537   .     S
C27    H47     1.110   .     S
C27    H136    1.111   .     S
C27    H137    1.111   .     S
C28    H55     1.112   .     S
C28    H54     1.112   .     S
C28    C559    1.541   1_545 S
C28    C575    1.529   1_545 S
C29    H50     1.110   .     S
C29    H51     1.111   .     S
C29    C301    1.529   .     S
C29    H326    1.110   .     S
C30    O77     1.221   .     D
C30    H56     1.086   .     S
C31    H57     1.085   .     S
C31    O78     1.221   .     D
C32    H61     1.104   .     S
C32    C33     1.529   .     S
C32    H62     1.111   .     S
C33    H58     1.111   .     S
C33    H878    1.109   .     S
C33    H151    1.111   .     S
C34    C37     1.427   .     A
C34    C36     1.416   .     A
C35    H64     1.082   .     S
C35    O79     1.221   .     D
C36    C859    1.392   .     S
C37    C857    1.416   .     S
C38    C39     1.411   .     A
C38    C856    1.416   1_554 S
C39    C40     1.383   .     A
C39    H66     1.081   .     S
C40    H41     1.084   .     S
C40    C855    1.392   1_554 S
H45    C209    1.111   1_455 S
H46    C209    1.111   1_455 S
H52    C287    1.086   .     S
H53    C575    1.110   1_545 S
H59    C852    1.109   1_554 S
H60    C215    1.111   1_455 S
H69    C116    1.111   .     S
H70    C116    1.110   .     S
O71    Zn90    1.920   .     S
O71    Zn89    1.953   .     S
O71    Zn88    1.968   .     S
O71    Zn91    1.936   .     S
O72    Zn89    1.923   .     S
O73    Zn91    1.941   .     S
O74    Zn90    1.940   .     S
O75    Zn88    1.924   .     S
O76    C841    1.221   .     S
O80    Zn88    1.925   .     S
O81    Zn91    1.922   .     S
O82    Zn89    1.937   .     S
O83    Zn90    1.953   .     S
O84    Zn91    1.945   .     S
O85    Zn88    1.929   .     S
O86    Zn89    1.933   .     S
O87    Zn90    1.930   .     S
C92    C102    1.438   .     S
C92    O175    1.265   .     A
C92    O173    1.270   .     A
C93    H158    1.076   .     S
C93    C94     1.403   .     A
C93    C128    1.412   .     A
C94    C123    1.526   .     S
C94    C915    1.425   .     S
C95    O176    1.275   .     A
C95    C101    1.482   .     S
C95    O174    1.287   .     A
C96    C97     1.416   .     A
C96    C98     1.423   .     A
C96    C913    1.425   1_554 S
C97    C100    1.413   .     A
C97    C129    1.419   .     A
C98    C99     1.418   .     A
C98    C113    1.480   .     S
C99    C111    1.413   .     A
C99    C122    1.495   .     S
C100   C111    1.406   .     A
C100   C121    1.497   .     S
C101   C193    1.376   .     S
C101   C206    1.546   .     S
C103   C112    1.398   .     A
C103   C126    1.485   .     S
C103   C110    1.424   .     A
C104   C107    1.472   .     S
C104   C378    1.342   .     S
C104   C392    1.541   .     S
C105   C106    1.439   .     S
C105   C650    1.342   1_545 S
C105   H689    1.086   1_545 S
C106   O171    1.282   .     A
C106   O177    1.285   .     A
C107   O178    1.263   .     A
C107   O172    1.282   .     A
C108   C111    1.458   .     S
C108   O165    1.272   .     A
C108   O163    1.271   .     A
C109   O166    1.297   .     A
C109   C110    1.483   .     S
C109   O164    1.281   .     A
C110   C114    1.402   .     A
C112   C127    1.396   .     A
C112   H154    1.085   .     S
C113   H159    1.085   .     S
C113   O986    1.221   1_554 S
C114   C125    1.407   .     A
C114   H156    1.075   .     S
C115   C116    1.529   .     S
C115   H135    1.112   .     S
C115   H134    1.112   .     S
C116   H133    1.111   .     S
C117   C118    1.534   .     S
C117   H139    1.112   .     S
C117   H140    1.111   .     S
C117   C193    1.537   .     S
C118   H138    1.110   .     S
C118   H227    1.111   .     S
C118   H228    1.111   .     S
C119   H146    1.112   .     S
C119   H145    1.112   .     S
C119   C650    1.541   1_545 S
C119   C666    1.529   1_545 S
C120   H141    1.110   .     S
C120   H142    1.111   .     S
C120   C392    1.529   .     S
C120   H417    1.110   .     S
C121   O168    1.221   .     D
C121   H147    1.086   .     S
C122   H148    1.085   .     S
C122   O169    1.221   .     D
C123   H152    1.104   .     S
C123   C124    1.529   .     S
C123   H153    1.111   .     S
C124   H149    1.111   .     S
C124   H969    1.109   .     S
C124   H242    1.111   .     S
C125   C128    1.427   .     A
C125   C127    1.416   .     A
C126   H155    1.082   .     S
C126   O170    1.221   .     D
C127   C950    1.392   .     S
C128   C948    1.416   .     S
C129   C130    1.411   .     A
C129   C947    1.416   1_554 S
C130   C131    1.383   .     A
C130   H157    1.081   .     S
C131   H132    1.084   .     S
C131   C946    1.392   1_554 S
H143   C378    1.086   .     S
H144   C666    1.110   1_545 S
H150   C943    1.109   1_554 S
H160   C207    1.111   .     S
H161   C207    1.110   .     S
O162   Zn181   1.920   .     S
O162   Zn180   1.953   .     S
O162   Zn179   1.968   .     S
O162   Zn182   1.936   .     S
O163   Zn180   1.923   .     S
O164   Zn182   1.941   .     S
O165   Zn181   1.940   .     S
O166   Zn179   1.924   .     S
O167   C932    1.221   .     S
O171   Zn179   1.925   .     S
O172   Zn182   1.922   .     S
O173   Zn180   1.937   .     S
O174   Zn181   1.953   .     S
O175   Zn182   1.945   .     S
O176   Zn179   1.929   .     S
O177   Zn180   1.933   .     S
O178   Zn181   1.930   .     S
C183   C193    1.438   .     S
C183   O266    1.265   .     A
C183   O264    1.270   .     A
C184   H249    1.076   .     S
C184   C185    1.403   .     A
C184   C219    1.412   .     A
C185   C214    1.526   .     S
C185   C1006   1.425   .     S
C186   O267    1.275   .     A
C186   C192    1.482   .     S
C186   O265    1.287   .     A
C187   C188    1.416   .     A
C187   C189    1.423   .     A
C187   C1004   1.425   1_554 S
C188   C191    1.413   .     A
C188   C220    1.419   .     A
C189   C190    1.418   .     A
C189   C204    1.480   .     S
C190   C202    1.413   .     A
C190   C213    1.495   .     S
C191   C202    1.406   .     A
C191   C212    1.497   .     S
C192   C11     1.376   1_655 S
C192   C24     1.546   1_655 S
C194   C203    1.398   .     A
C194   C217    1.485   .     S
C194   C201    1.424   .     A
C195   C198    1.472   .     S
C195   C469    1.342   .     S
C195   C483    1.541   .     S
C196   C197    1.439   .     S
C196   C741    1.342   1_545 S
C196   H780    1.086   1_545 S
C197   O262    1.282   .     A
C197   O268    1.285   .     A
C198   O269    1.263   .     A
C198   O263    1.282   .     A
C199   C202    1.458   .     S
C199   O256    1.272   .     A
C199   O254    1.271   .     A
C200   O257    1.297   .     A
C200   C201    1.483   .     S
C200   O255    1.281   .     A
C201   C205    1.402   .     A
C203   C218    1.396   .     A
C203   H245    1.085   .     S
C204   H250    1.085   .     S
C204   O1077   1.221   1_554 S
C205   C216    1.407   .     A
C205   H247    1.075   .     S
C206   C207    1.529   .     S
C206   H226    1.112   .     S
C206   H225    1.112   .     S
C207   H224    1.111   .     S
C208   C209    1.534   .     S
C208   H230    1.112   .     S
C208   H231    1.111   .     S
C208   C11     1.537   1_655 S
C209   H229    1.110   .     S
C209   H45     1.111   1_655 S
C209   H46     1.111   1_655 S
C210   H237    1.112   .     S
C210   H236    1.112   .     S
C210   C741    1.541   1_545 S
C210   C757    1.529   1_545 S
C211   H232    1.110   .     S
C211   H233    1.111   .     S
C211   C483    1.529   .     S
C211   H508    1.110   .     S
C212   O259    1.221   .     D
C212   H238    1.086   .     S
C213   H239    1.085   .     S
C213   O260    1.221   .     D
C214   H243    1.104   .     S
C214   C215    1.529   .     S
C214   H244    1.111   .     S
C215   H240    1.111   .     S
C215   H1060   1.109   .     S
C215   H60     1.111   1_655 S
C216   C219    1.427   .     A
C216   C218    1.416   .     A
C217   H246    1.082   .     S
C217   O261    1.221   .     D
C218   C1041   1.392   .     S
C219   C1039   1.416   .     S
C220   C221    1.411   .     A
C220   C1038   1.416   1_554 S
C221   C222    1.383   .     A
C221   H248    1.081   .     S
C222   H223    1.084   .     S
C222   C1037   1.392   1_554 S
H234   C469    1.086   .     S
H235   C757    1.110   1_545 S
H241   C1034   1.109   1_554 S
H251   C25     1.111   1_655 S
H252   C25     1.110   1_655 S
O253   Zn272   1.920   .     S
O253   Zn271   1.953   .     S
O253   Zn270   1.968   .     S
O253   Zn273   1.936   .     S
O254   Zn271   1.923   .     S
O255   Zn273   1.941   .     S
O256   Zn272   1.940   .     S
O257   Zn270   1.924   .     S
O258   C1023   1.221   .     S
O262   Zn270   1.925   .     S
O263   Zn273   1.922   .     S
O264   Zn271   1.937   .     S
O265   Zn272   1.953   .     S
O266   Zn273   1.945   .     S
O267   Zn270   1.929   .     S
O268   Zn271   1.933   .     S
O269   Zn272   1.930   .     S
C274   C284    1.438   .     S
C274   O357    1.265   .     A
C274   O355    1.270   .     A
C275   H340    1.076   .     S
C275   C276    1.403   .     A
C275   C310    1.412   .     A
C276   C305    1.526   .     S
C276   C1097   1.425   .     S
C277   O358    1.275   .     A
C277   C283    1.482   .     S
C277   O356    1.287   .     A
C278   C279    1.416   .     A
C278   C280    1.423   .     A
C278   C1095   1.425   1_554 S
C279   C282    1.413   .     A
C279   C311    1.419   .     A
C280   C281    1.418   .     A
C280   C295    1.480   .     S
C281   C293    1.413   .     A
C281   C304    1.495   .     S
C282   C293    1.406   .     A
C282   C303    1.497   .     S
C283   C375    1.376   .     S
C283   C388    1.546   .     S
C284   C465    1.376   1_455 S
C284   C481    1.537   1_455 S
C285   C294    1.398   .     A
C285   C308    1.485   .     S
C285   C292    1.424   .     A
C286   C289    1.472   .     S
C286   C560    1.342   .     S
C286   C574    1.541   .     S
C287   C288    1.439   .     S
C288   O353    1.282   .     A
C288   O359    1.285   .     A
C289   O360    1.263   .     A
C289   O354    1.282   .     A
C290   C293    1.458   .     S
C290   O347    1.272   .     A
C290   O345    1.271   .     A
C291   O348    1.297   .     A
C291   C292    1.483   .     S
C291   O346    1.281   .     A
C292   C296    1.402   .     A
C294   C309    1.396   .     A
C294   H336    1.085   .     S
C295   H341    1.085   .     S
C295   O1168   1.221   1_554 S
C296   C307    1.407   .     A
C296   H338    1.075   .     S
C297   C298    1.529   .     S
C297   H317    1.112   .     S
C297   H316    1.112   .     S
C297   C465    1.546   1_455 S
C298   H315    1.111   .     S
C298   H524    1.111   1_455 S
C298   H525    1.110   1_455 S
C299   C300    1.534   .     S
C299   H321    1.112   .     S
C299   H322    1.111   .     S
C299   C375    1.537   .     S
C300   H320    1.110   .     S
C300   H409    1.111   .     S
C300   H410    1.111   .     S
C301   H328    1.112   .     S
C301   H327    1.112   .     S
C302   H323    1.110   .     S
C302   H324    1.111   .     S
C302   C574    1.529   .     S
C302   H599    1.110   .     S
C303   O350    1.221   .     D
C303   H329    1.086   .     S
C304   H330    1.085   .     S
C304   O351    1.221   .     D
C305   H334    1.104   .     S
C305   C306    1.529   .     S
C305   H335    1.111   .     S
C306   H331    1.111   .     S
C306   H1151   1.109   .     S
C306   H424    1.111   .     S
C307   C310    1.427   .     A
C307   C309    1.416   .     A
C308   H337    1.082   .     S
C308   O352    1.221   .     D
C309   C1132   1.392   .     S
C310   C1130   1.416   .     S
C311   C312    1.411   .     A
C311   C1129   1.416   1_554 S
C312   C313    1.383   .     A
C312   H339    1.081   .     S
C313   H314    1.084   .     S
C313   C1128   1.392   1_554 S
H318   C482    1.111   1_455 S
H319   C482    1.111   1_455 S
H325   C560    1.086   .     S
H332   C1125   1.109   1_554 S
H333   C488    1.111   1_455 S
H342   C389    1.111   .     S
H343   C389    1.110   .     S
O344   Zn363   1.920   .     S
O344   Zn362   1.953   .     S
O344   Zn361   1.968   .     S
O344   Zn364   1.936   .     S
O345   Zn362   1.923   .     S
O346   Zn364   1.941   .     S
O347   Zn363   1.940   .     S
O348   Zn361   1.924   .     S
O349   C1114   1.221   .     S
O353   Zn361   1.925   .     S
O354   Zn364   1.922   .     S
O355   Zn362   1.937   .     S
O356   Zn363   1.953   .     S
O357   Zn364   1.945   .     S
O358   Zn361   1.929   .     S
O359   Zn362   1.933   .     S
O360   Zn363   1.930   .     S
C365   C375    1.438   .     S
C365   O448    1.265   .     A
C365   O446    1.270   .     A
C366   H431    1.076   .     S
C366   C367    1.403   .     A
C366   C401    1.412   .     A
C367   C396    1.526   .     S
C367   C1188   1.425   .     S
C368   O449    1.275   .     A
C368   C374    1.482   .     S
C368   O447    1.287   .     A
C369   C370    1.416   .     A
C369   C371    1.423   .     A
C369   C1186   1.425   1_554 S
C370   C373    1.413   .     A
C370   C402    1.419   .     A
C371   C372    1.418   .     A
C371   C386    1.480   .     S
C372   C384    1.413   .     A
C372   C395    1.495   .     S
C373   C384    1.406   .     A
C373   C394    1.497   .     S
C374   C466    1.376   .     S
C374   C479    1.546   .     S
C376   C385    1.398   .     A
C376   C399    1.485   .     S
C376   C383    1.424   .     A
C377   C380    1.472   .     S
C377   C651    1.342   .     S
C377   C665    1.541   .     S
C378   C379    1.439   .     S
C379   O444    1.282   .     A
C379   O450    1.285   .     A
C380   O451    1.263   .     A
C380   O445    1.282   .     A
C381   C384    1.458   .     S
C381   O438    1.272   .     A
C381   O436    1.271   .     A
C382   O439    1.297   .     A
C382   C383    1.483   .     S
C382   O437    1.281   .     A
C383   C387    1.402   .     A
C385   C400    1.396   .     A
C385   H427    1.085   .     S
C386   H432    1.085   .     S
C386   O1259   1.221   1_554 S
C387   C398    1.407   .     A
C387   H429    1.075   .     S
C388   C389    1.529   .     S
C388   H408    1.112   .     S
C388   H407    1.112   .     S
C389   H406    1.111   .     S
C390   C391    1.534   .     S
C390   H412    1.112   .     S
C390   H413    1.111   .     S
C390   C466    1.537   .     S
C391   H411    1.110   .     S
C391   H500    1.111   .     S
C391   H501    1.111   .     S
C392   H419    1.112   .     S
C392   H418    1.112   .     S
C393   H414    1.110   .     S
C393   H415    1.111   .     S
C393   C665    1.529   .     S
C393   H690    1.110   .     S
C394   O441    1.221   .     D
C394   H420    1.086   .     S
C395   H421    1.085   .     S
C395   O442    1.221   .     D
C396   H425    1.104   .     S
C396   C397    1.529   .     S
C396   H426    1.111   .     S
C397   H422    1.111   .     S
C397   H1242   1.109   .     S
C397   H515    1.111   .     S
C398   C401    1.427   .     A
C398   C400    1.416   .     A
C399   H428    1.082   .     S
C399   O443    1.221   .     D
C400   C1223   1.392   .     S
C401   C1221   1.416   .     S
C402   C403    1.411   .     A
C402   C1220   1.416   1_554 S
C403   C404    1.383   .     A
C403   H430    1.081   .     S
C404   H405    1.084   .     S
C404   C1219   1.392   1_554 S
H416   C651    1.086   .     S
H423   C1216   1.109   1_554 S
H433   C480    1.111   .     S
H434   C480    1.110   .     S
O435   Zn454   1.920   .     S
O435   Zn453   1.953   .     S
O435   Zn452   1.968   .     S
O435   Zn455   1.936   .     S
O436   Zn453   1.923   .     S
O437   Zn455   1.941   .     S
O438   Zn454   1.940   .     S
O439   Zn452   1.924   .     S
O440   C1205   1.221   .     S
O444   Zn452   1.925   .     S
O445   Zn455   1.922   .     S
O446   Zn453   1.937   .     S
O447   Zn454   1.953   .     S
O448   Zn455   1.945   .     S
O449   Zn452   1.929   .     S
O450   Zn453   1.933   .     S
O451   Zn454   1.930   .     S
C456   C466    1.438   .     S
C456   O539    1.265   .     A
C456   O537    1.270   .     A
C457   H522    1.076   .     S
C457   C458    1.403   .     A
C457   C492    1.412   .     A
C458   C487    1.526   .     S
C458   C1279   1.425   .     S
C459   O540    1.275   .     A
C459   C465    1.482   .     S
C459   O538    1.287   .     A
C460   C461    1.416   .     A
C460   C462    1.423   .     A
C460   C1277   1.425   1_554 S
C461   C464    1.413   .     A
C461   C493    1.419   .     A
C462   C463    1.418   .     A
C462   C477    1.480   .     S
C463   C475    1.413   .     A
C463   C486    1.495   .     S
C464   C475    1.406   .     A
C464   C485    1.497   .     S
C465   C284    1.376   1_655 S
C465   C297    1.546   1_655 S
C467   C476    1.398   .     A
C467   C490    1.485   .     S
C467   C474    1.424   .     A
C468   C471    1.472   .     S
C468   C742    1.342   .     S
C468   C756    1.541   .     S
C469   C470    1.439   .     S
C470   O535    1.282   .     A
C470   O541    1.285   .     A
C471   O542    1.263   .     A
C471   O536    1.282   .     A
C472   C475    1.458   .     S
C472   O529    1.272   .     A
C472   O527    1.271   .     A
C473   O530    1.297   .     A
C473   C474    1.483   .     S
C473   O528    1.281   .     A
C474   C478    1.402   .     A
C476   C491    1.396   .     A
C476   H518    1.085   .     S
C477   H523    1.085   .     S
C477   O1350   1.221   1_554 S
C478   C489    1.407   .     A
C478   H520    1.075   .     S
C479   C480    1.529   .     S
C479   H499    1.112   .     S
C479   H498    1.112   .     S
C480   H497    1.111   .     S
C481   C482    1.534   .     S
C481   H503    1.112   .     S
C481   H504    1.111   .     S
C481   C284    1.537   1_655 S
C482   H502    1.110   .     S
C482   H318    1.111   1_655 S
C482   H319    1.111   1_655 S
C483   H510    1.112   .     S
C483   H509    1.112   .     S
C484   H505    1.110   .     S
C484   H506    1.111   .     S
C484   C756    1.529   .     S
C484   H781    1.110   .     S
C485   O532    1.221   .     D
C485   H511    1.086   .     S
C486   H512    1.085   .     S
C486   O533    1.221   .     D
C487   H516    1.104   .     S
C487   C488    1.529   .     S
C487   H517    1.111   .     S
C488   H513    1.111   .     S
C488   H1333   1.109   .     S
C488   H333    1.111   1_655 S
C489   C492    1.427   .     A
C489   C491    1.416   .     A
C490   H519    1.082   .     S
C490   O534    1.221   .     D
C491   C1314   1.392   .     S
C492   C1312   1.416   .     S
C493   C494    1.411   .     A
C493   C1311   1.416   1_554 S
C494   C495    1.383   .     A
C494   H521    1.081   .     S
C495   H496    1.084   .     S
C495   C1310   1.392   1_554 S
H507   C742    1.086   .     S
H514   C1307   1.109   1_554 S
H524   C298    1.111   1_655 S
H525   C298    1.110   1_655 S
O526   Zn545   1.920   .     S
O526   Zn544   1.953   .     S
O526   Zn543   1.968   .     S
O526   Zn546   1.936   .     S
O527   Zn544   1.923   .     S
O528   Zn546   1.941   .     S
O529   Zn545   1.940   .     S
O530   Zn543   1.924   .     S
O531   C1296   1.221   .     S
O535   Zn543   1.925   .     S
O536   Zn546   1.922   .     S
O537   Zn544   1.937   .     S
O538   Zn545   1.953   .     S
O539   Zn546   1.945   .     S
O540   Zn543   1.929   .     S
O541   Zn544   1.933   .     S
O542   Zn545   1.930   .     S
C547   C557    1.438   .     S
C547   O630    1.265   .     A
C547   O628    1.270   .     A
C548   H613    1.076   .     S
C548   C549    1.403   .     A
C548   C583    1.412   .     A
C549   C578    1.526   .     S
C549   C1370   1.425   .     S
C550   O631    1.275   .     A
C550   C556    1.482   .     S
C550   O629    1.287   .     A
C551   C552    1.416   .     A
C551   C553    1.423   .     A
C551   C1368   1.425   1_554 S
C552   C555    1.413   .     A
C552   C584    1.419   .     A
C553   C554    1.418   .     A
C553   C568    1.480   .     S
C554   C566    1.413   .     A
C554   C577    1.495   .     S
C555   C566    1.406   .     A
C555   C576    1.497   .     S
C556   C648    1.376   .     S
C556   C661    1.546   .     S
C557   C738    1.376   1_455 S
C557   C754    1.537   1_455 S
C558   C567    1.398   .     A
C558   C581    1.485   .     S
C558   C565    1.424   .     A
C559   C562    1.472   .     S
C559   C14     1.342   1_565 S
C559   C28     1.541   1_565 S
C560   C561    1.439   .     S
C561   O626    1.282   .     A
C561   O632    1.285   .     A
C562   O633    1.263   .     A
C562   O627    1.282   .     A
C563   C566    1.458   .     S
C563   O620    1.272   .     A
C563   O618    1.271   .     A
C564   O621    1.297   .     A
C564   C565    1.483   .     S
C564   O619    1.281   .     A
C565   C569    1.402   .     A
C567   C582    1.396   .     A
C567   H609    1.085   .     S
C568   H614    1.085   .     S
C568   O1441   1.221   1_554 S
C569   C580    1.407   .     A
C569   H611    1.075   .     S
C570   C571    1.529   .     S
C570   H590    1.112   .     S
C570   H589    1.112   .     S
C570   C738    1.546   1_455 S
C571   H588    1.111   .     S
C571   H797    1.111   1_455 S
C571   H798    1.110   1_455 S
C572   C573    1.534   .     S
C572   H594    1.112   .     S
C572   H595    1.111   .     S
C572   C648    1.537   .     S
C573   H593    1.110   .     S
C573   H682    1.111   .     S
C573   H683    1.111   .     S
C574   H601    1.112   .     S
C574   H600    1.112   .     S
C575   H596    1.110   .     S
C575   H597    1.111   .     S
C575   C28     1.529   1_565 S
C575   H53     1.110   1_565 S
C576   O623    1.221   .     D
C576   H602    1.086   .     S
C577   H603    1.085   .     S
C577   O624    1.221   .     D
C578   H607    1.104   .     S
C578   C579    1.529   .     S
C578   H608    1.111   .     S
C579   H604    1.111   .     S
C579   H1424   1.109   .     S
C579   H697    1.111   .     S
C580   C583    1.427   .     A
C580   C582    1.416   .     A
C581   H610    1.082   .     S
C581   O625    1.221   .     D
C582   C1405   1.392   .     S
C583   C1403   1.416   .     S
C584   C585    1.411   .     A
C584   C1402   1.416   1_554 S
C585   C586    1.383   .     A
C585   H612    1.081   .     S
C586   H587    1.084   .     S
C586   C1401   1.392   1_554 S
H591   C755    1.111   1_455 S
H592   C755    1.111   1_455 S
H598   C14     1.086   1_565 S
H605   C1398   1.109   1_554 S
H606   C761    1.111   1_455 S
H615   C662    1.111   .     S
H616   C662    1.110   .     S
O617   Zn636   1.920   .     S
O617   Zn635   1.953   .     S
O617   Zn634   1.968   .     S
O617   Zn637   1.936   .     S
O618   Zn635   1.923   .     S
O619   Zn637   1.941   .     S
O620   Zn636   1.940   .     S
O621   Zn634   1.924   .     S
O622   C1387   1.221   .     S
O626   Zn634   1.925   .     S
O627   Zn637   1.922   .     S
O628   Zn635   1.937   .     S
O629   Zn636   1.953   .     S
O630   Zn637   1.945   .     S
O631   Zn634   1.929   .     S
O632   Zn635   1.933   .     S
O633   Zn636   1.930   .     S
C638   C648    1.438   .     S
C638   O721    1.265   .     A
C638   O719    1.270   .     A
C639   H704    1.076   .     S
C639   C640    1.403   .     A
C639   C674    1.412   .     A
C640   C669    1.526   .     S
C640   C1461   1.425   .     S
C641   O722    1.275   .     A
C641   C647    1.482   .     S
C641   O720    1.287   .     A
C642   C643    1.416   .     A
C642   C644    1.423   .     A
C642   C1459   1.425   1_554 S
C643   C646    1.413   .     A
C643   C675    1.419   .     A
C644   C645    1.418   .     A
C644   C659    1.480   .     S
C645   C657    1.413   .     A
C645   C668    1.495   .     S
C646   C657    1.406   .     A
C646   C667    1.497   .     S
C647   C739    1.376   .     S
C647   C752    1.546   .     S
C649   C658    1.398   .     A
C649   C672    1.485   .     S
C649   C656    1.424   .     A
C650   C653    1.472   .     S
C650   C105    1.342   1_565 S
C650   C119    1.541   1_565 S
C651   C652    1.439   .     S
C652   O717    1.282   .     A
C652   O723    1.285   .     A
C653   O724    1.263   .     A
C653   O718    1.282   .     A
C654   C657    1.458   .     S
C654   O711    1.272   .     A
C654   O709    1.271   .     A
C655   O712    1.297   .     A
C655   C656    1.483   .     S
C655   O710    1.281   .     A
C656   C660    1.402   .     A
C658   C673    1.396   .     A
C658   H700    1.085   .     S
C659   H705    1.085   .     S
C659   O1532   1.221   1_554 S
C660   C671    1.407   .     A
C660   H702    1.075   .     S
C661   C662    1.529   .     S
C661   H681    1.112   .     S
C661   H680    1.112   .     S
C662   H679    1.111   .     S
C663   C664    1.534   .     S
C663   H685    1.112   .     S
C663   H686    1.111   .     S
C663   C739    1.537   .     S
C664   H684    1.110   .     S
C664   H773    1.111   .     S
C664   H774    1.111   .     S
C665   H692    1.112   .     S
C665   H691    1.112   .     S
C666   H687    1.110   .     S
C666   H688    1.111   .     S
C666   C119    1.529   1_565 S
C666   H144    1.110   1_565 S
C667   O714    1.221   .     D
C667   H693    1.086   .     S
C668   H694    1.085   .     S
C668   O715    1.221   .     D
C669   H698    1.104   .     S
C669   C670    1.529   .     S
C669   H699    1.111   .     S
C670   H695    1.111   .     S
C670   H1515   1.109   .     S
C670   H788    1.111   .     S
C671   C674    1.427   .     A
C671   C673    1.416   .     A
C672   H701    1.082   .     S
C672   O716    1.221   .     D
C673   C1496   1.392   .     S
C674   C1494   1.416   .     S
C675   C676    1.411   .     A
C675   C1493   1.416   1_554 S
C676   C677    1.383   .     A
C676   H703    1.081   .     S
C677   H678    1.084   .     S
C677   C1492   1.392   1_554 S
H689   C105    1.086   1_565 S
H696   C1489   1.109   1_554 S
H706   C753    1.111   .     S
H707   C753    1.110   .     S
O708   Zn727   1.920   .     S
O708   Zn726   1.953   .     S
O708   Zn725   1.968   .     S
O708   Zn728   1.936   .     S
O709   Zn726   1.923   .     S
O710   Zn728   1.941   .     S
O711   Zn727   1.940   .     S
O712   Zn725   1.924   .     S
O713   C1478   1.221   .     S
O717   Zn725   1.925   .     S
O718   Zn728   1.922   .     S
O719   Zn726   1.937   .     S
O720   Zn727   1.953   .     S
O721   Zn728   1.945   .     S
O722   Zn725   1.929   .     S
O723   Zn726   1.933   .     S
O724   Zn727   1.930   .     S
C729   C739    1.438   .     S
C729   O812    1.265   .     A
C729   O810    1.270   .     A
C730   H795    1.076   .     S
C730   C731    1.403   .     A
C730   C765    1.412   .     A
C731   C760    1.526   .     S
C731   C1552   1.425   .     S
C732   O813    1.275   .     A
C732   C738    1.482   .     S
C732   O811    1.287   .     A
C733   C734    1.416   .     A
C733   C735    1.423   .     A
C733   C1550   1.425   1_554 S
C734   C737    1.413   .     A
C734   C766    1.419   .     A
C735   C736    1.418   .     A
C735   C750    1.480   .     S
C736   C748    1.413   .     A
C736   C759    1.495   .     S
C737   C748    1.406   .     A
C737   C758    1.497   .     S
C738   C557    1.376   1_655 S
C738   C570    1.546   1_655 S
C740   C749    1.398   .     A
C740   C763    1.485   .     S
C740   C747    1.424   .     A
C741   C744    1.472   .     S
C741   C196    1.342   1_565 S
C741   C210    1.541   1_565 S
C742   C743    1.439   .     S
C743   O808    1.282   .     A
C743   O814    1.285   .     A
C744   O815    1.263   .     A
C744   O809    1.282   .     A
C745   C748    1.458   .     S
C745   O802    1.272   .     A
C745   O800    1.271   .     A
C746   O803    1.297   .     A
C746   C747    1.483   .     S
C746   O801    1.281   .     A
C747   C751    1.402   .     A
C749   C764    1.396   .     A
C749   H791    1.085   .     S
C750   H796    1.085   .     S
C750   O1623   1.221   1_554 S
C751   C762    1.407   .     A
C751   H793    1.075   .     S
C752   C753    1.529   .     S
C752   H772    1.112   .     S
C752   H771    1.112   .     S
C753   H770    1.111   .     S
C754   C755    1.534   .     S
C754   H776    1.112   .     S
C754   H777    1.111   .     S
C754   C557    1.537   1_655 S
C755   H775    1.110   .     S
C755   H591    1.111   1_655 S
C755   H592    1.111   1_655 S
C756   H783    1.112   .     S
C756   H782    1.112   .     S
C757   H778    1.110   .     S
C757   H779    1.111   .     S
C757   C210    1.529   1_565 S
C757   H235    1.110   1_565 S
C758   O805    1.221   .     D
C758   H784    1.086   .     S
C759   H785    1.085   .     S
C759   O806    1.221   .     D
C760   H789    1.104   .     S
C760   C761    1.529   .     S
C760   H790    1.111   .     S
C761   H786    1.111   .     S
C761   H1606   1.109   .     S
C761   H606    1.111   1_655 S
C762   C765    1.427   .     A
C762   C764    1.416   .     A
C763   H792    1.082   .     S
C763   O807    1.221   .     D
C764   C1587   1.392   .     S
C765   C1585   1.416   .     S
C766   C767    1.411   .     A
C766   C1584   1.416   1_554 S
C767   C768    1.383   .     A
C767   H794    1.081   .     S
C768   H769    1.084   .     S
C768   C1583   1.392   1_554 S
H780   C196    1.086   1_565 S
H787   C1580   1.109   1_554 S
H797   C571    1.111   1_655 S
H798   C571    1.110   1_655 S
O799   Zn818   1.920   .     S
O799   Zn817   1.953   .     S
O799   Zn816   1.968   .     S
O799   Zn819   1.936   .     S
O800   Zn817   1.923   .     S
O801   Zn819   1.941   .     S
O802   Zn818   1.940   .     S
O803   Zn816   1.924   .     S
O804   C1569   1.221   .     S
O808   Zn816   1.925   .     S
O809   Zn819   1.922   .     S
O810   Zn817   1.937   .     S
O811   Zn818   1.953   .     S
O812   Zn819   1.945   .     S
O813   Zn816   1.929   .     S
O814   Zn817   1.933   .     S
O815   Zn818   1.930   .     S
C820   C830    1.438   .     S
C820   O903    1.265   .     A
C820   O901    1.270   .     A
C821   H886    1.076   .     S
C821   C822    1.403   .     A
C821   C856    1.412   .     A
C822   C851    1.526   .     S
C822   C5      1.425   1_556 S
C823   O904    1.275   .     A
C823   C829    1.482   .     S
C823   O902    1.287   .     A
C824   C825    1.416   .     A
C824   C826    1.423   .     A
C825   C828    1.413   .     A
C825   C857    1.419   .     A
C826   C827    1.418   .     A
C826   C841    1.480   .     S
C827   C839    1.413   .     A
C827   C850    1.495   .     S
C828   C839    1.406   .     A
C828   C849    1.497   .     S
C829   C921    1.376   .     S
C829   C934    1.546   .     S
C830   C1011   1.376   1_455 S
C830   C1027   1.537   1_455 S
C831   C840    1.398   .     A
C831   C854    1.485   .     S
C831   C838    1.424   .     A
C832   C835    1.472   .     S
C832   C1106   1.342   .     S
C832   C1120   1.541   .     S
C833   C834    1.439   .     S
C833   C1378   1.342   1_545 S
C833   H1417   1.086   1_545 S
C834   O899    1.282   .     A
C834   O905    1.285   .     A
C835   O906    1.263   .     A
C835   O900    1.282   .     A
C836   C839    1.458   .     S
C836   O893    1.272   .     A
C836   O891    1.271   .     A
C837   O894    1.297   .     A
C837   C838    1.483   .     S
C837   O892    1.281   .     A
C838   C842    1.402   .     A
C840   C855    1.396   .     A
C840   H882    1.085   .     S
C841   H887    1.085   .     S
C842   C853    1.407   .     A
C842   H884    1.075   .     S
C843   C844    1.529   .     S
C843   H863    1.112   .     S
C843   H862    1.112   .     S
C843   C1011   1.546   1_455 S
C844   H861    1.111   .     S
C844   H1070   1.111   1_455 S
C844   H1071   1.110   1_455 S
C845   C846    1.534   .     S
C845   H867    1.112   .     S
C845   H868    1.111   .     S
C845   C921    1.537   .     S
C846   H866    1.110   .     S
C846   H955    1.111   .     S
C846   H956    1.111   .     S
C847   H874    1.112   .     S
C847   H873    1.112   .     S
C847   C1378   1.541   1_545 S
C847   C1394   1.529   1_545 S
C848   H869    1.110   .     S
C848   H870    1.111   .     S
C848   C1120   1.529   .     S
C848   H1145   1.110   .     S
C849   O896    1.221   .     D
C849   H875    1.086   .     S
C850   H876    1.085   .     S
C850   O897    1.221   .     D
C851   H880    1.104   .     S
C851   C852    1.529   .     S
C851   H881    1.111   .     S
C852   H877    1.111   .     S
C852   H59     1.109   1_556 S
C852   H970    1.111   .     S
C853   C856    1.427   .     A
C853   C855    1.416   .     A
C854   H883    1.082   .     S
C854   O898    1.221   .     D
C855   C40     1.392   1_556 S
C856   C38     1.416   1_556 S
C857   C858    1.411   .     A
C858   C859    1.383   .     A
C858   H885    1.081   .     S
C859   H860    1.084   .     S
H864   C1028   1.111   1_455 S
H865   C1028   1.111   1_455 S
H871   C1106   1.086   .     S
H872   C1394   1.110   1_545 S
H879   C1034   1.111   1_455 S
H888   C935    1.111   .     S
H889   C935    1.110   .     S
O890   Zn909   1.920   .     S
O890   Zn908   1.953   .     S
O890   Zn907   1.968   .     S
O890   Zn910   1.936   .     S
O891   Zn908   1.923   .     S
O892   Zn910   1.941   .     S
O893   Zn909   1.940   .     S
O894   Zn907   1.924   .     S
O895   C22     1.221   1_556 S
O899   Zn907   1.925   .     S
O900   Zn910   1.922   .     S
O901   Zn908   1.937   .     S
O902   Zn909   1.953   .     S
O903   Zn910   1.945   .     S
O904   Zn907   1.929   .     S
O905   Zn908   1.933   .     S
O906   Zn909   1.930   .     S
C911   C921    1.438   .     S
C911   O994    1.265   .     A
C911   O992    1.270   .     A
C912   H977    1.076   .     S
C912   C913    1.403   .     A
C912   C947    1.412   .     A
C913   C942    1.526   .     S
C913   C96     1.425   1_556 S
C914   O995    1.275   .     A
C914   C920    1.482   .     S
C914   O993    1.287   .     A
C915   C916    1.416   .     A
C915   C917    1.423   .     A
C916   C919    1.413   .     A
C916   C948    1.419   .     A
C917   C918    1.418   .     A
C917   C932    1.480   .     S
C918   C930    1.413   .     A
C918   C941    1.495   .     S
C919   C930    1.406   .     A
C919   C940    1.497   .     S
C920   C1012   1.376   .     S
C920   C1025   1.546   .     S
C922   C931    1.398   .     A
C922   C945    1.485   .     S
C922   C929    1.424   .     A
C923   C926    1.472   .     S
C923   C1197   1.342   .     S
C923   C1211   1.541   .     S
C924   C925    1.439   .     S
C924   C1469   1.342   1_545 S
C924   H1508   1.086   1_545 S
C925   O990    1.282   .     A
C925   O996    1.285   .     A
C926   O997    1.263   .     A
C926   O991    1.282   .     A
C927   C930    1.458   .     S
C927   O984    1.272   .     A
C927   O982    1.271   .     A
C928   O985    1.297   .     A
C928   C929    1.483   .     S
C928   O983    1.281   .     A
C929   C933    1.402   .     A
C931   C946    1.396   .     A
C931   H973    1.085   .     S
C932   H978    1.085   .     S
C933   C944    1.407   .     A
C933   H975    1.075   .     S
C934   C935    1.529   .     S
C934   H954    1.112   .     S
C934   H953    1.112   .     S
C935   H952    1.111   .     S
C936   C937    1.534   .     S
C936   H958    1.112   .     S
C936   H959    1.111   .     S
C936   C1012   1.537   .     S
C937   H957    1.110   .     S
C937   H1046   1.111   .     S
C937   H1047   1.111   .     S
C938   H965    1.112   .     S
C938   H964    1.112   .     S
C938   C1469   1.541   1_545 S
C938   C1485   1.529   1_545 S
C939   H960    1.110   .     S
C939   H961    1.111   .     S
C939   C1211   1.529   .     S
C939   H1236   1.110   .     S
C940   O987    1.221   .     D
C940   H966    1.086   .     S
C941   H967    1.085   .     S
C941   O988    1.221   .     D
C942   H971    1.104   .     S
C942   C943    1.529   .     S
C942   H972    1.111   .     S
C943   H968    1.111   .     S
C943   H150    1.109   1_556 S
C943   H1061   1.111   .     S
C944   C947    1.427   .     A
C944   C946    1.416   .     A
C945   H974    1.082   .     S
C945   O989    1.221   .     D
C946   C131    1.392   1_556 S
C947   C129    1.416   1_556 S
C948   C949    1.411   .     A
C949   C950    1.383   .     A
C949   H976    1.081   .     S
C950   H951    1.084   .     S
H962   C1197   1.086   .     S
H963   C1485   1.110   1_545 S
H979   C1026   1.111   .     S
H980   C1026   1.110   .     S
O981   Zn1000  1.920   .     S
O981   Zn999   1.953   .     S
O981   Zn998   1.968   .     S
O981   Zn1001  1.936   .     S
O982   Zn999   1.923   .     S
O983   Zn1001  1.941   .     S
O984   Zn1000  1.940   .     S
O985   Zn998   1.924   .     S
O986   C113    1.221   1_556 S
O990   Zn998   1.925   .     S
O991   Zn1001  1.922   .     S
O992   Zn999   1.937   .     S
O993   Zn1000  1.953   .     S
O994   Zn1001  1.945   .     S
O995   Zn998   1.929   .     S
O996   Zn999   1.933   .     S
O997   Zn1000  1.930   .     S
C1002  C1012   1.438   .     S
C1002  O1085   1.265   .     A
C1002  O1083   1.270   .     A
C1003  H1068   1.076   .     S
C1003  C1004   1.403   .     A
C1003  C1038   1.412   .     A
C1004  C1033   1.526   .     S
C1004  C187    1.425   1_556 S
C1005  O1086   1.275   .     A
C1005  C1011   1.482   .     S
C1005  O1084   1.287   .     A
C1006  C1007   1.416   .     A
C1006  C1008   1.423   .     A
C1007  C1010   1.413   .     A
C1007  C1039   1.419   .     A
C1008  C1009   1.418   .     A
C1008  C1023   1.480   .     S
C1009  C1021   1.413   .     A
C1009  C1032   1.495   .     S
C1010  C1021   1.406   .     A
C1010  C1031   1.497   .     S
C1011  C830    1.376   1_655 S
C1011  C843    1.546   1_655 S
C1013  C1022   1.398   .     A
C1013  C1036   1.485   .     S
C1013  C1020   1.424   .     A
C1014  C1017   1.472   .     S
C1014  C1288   1.342   .     S
C1014  C1302   1.541   .     S
C1015  C1016   1.439   .     S
C1015  C1560   1.342   1_545 S
C1015  H1599   1.086   1_545 S
C1016  O1081   1.282   .     A
C1016  O1087   1.285   .     A
C1017  O1088   1.263   .     A
C1017  O1082   1.282   .     A
C1018  C1021   1.458   .     S
C1018  O1075   1.272   .     A
C1018  O1073   1.271   .     A
C1019  O1076   1.297   .     A
C1019  C1020   1.483   .     S
C1019  O1074   1.281   .     A
C1020  C1024   1.402   .     A
C1022  C1037   1.396   .     A
C1022  H1064   1.085   .     S
C1023  H1069   1.085   .     S
C1024  C1035   1.407   .     A
C1024  H1066   1.075   .     S
C1025  C1026   1.529   .     S
C1025  H1045   1.112   .     S
C1025  H1044   1.112   .     S
C1026  H1043   1.111   .     S
C1027  C1028   1.534   .     S
C1027  H1049   1.112   .     S
C1027  H1050   1.111   .     S
C1027  C830    1.537   1_655 S
C1028  H1048   1.110   .     S
C1028  H864    1.111   1_655 S
C1028  H865    1.111   1_655 S
C1029  H1056   1.112   .     S
C1029  H1055   1.112   .     S
C1029  C1560   1.541   1_545 S
C1029  C1576   1.529   1_545 S
C1030  H1051   1.110   .     S
C1030  H1052   1.111   .     S
C1030  C1302   1.529   .     S
C1030  H1327   1.110   .     S
C1031  O1078   1.221   .     D
C1031  H1057   1.086   .     S
C1032  H1058   1.085   .     S
C1032  O1079   1.221   .     D
C1033  H1062   1.104   .     S
C1033  C1034   1.529   .     S
C1033  H1063   1.111   .     S
C1034  H1059   1.111   .     S
C1034  H241    1.109   1_556 S
C1034  H879    1.111   1_655 S
C1035  C1038   1.427   .     A
C1035  C1037   1.416   .     A
C1036  H1065   1.082   .     S
C1036  O1080   1.221   .     D
C1037  C222    1.392   1_556 S
C1038  C220    1.416   1_556 S
C1039  C1040   1.411   .     A
C1040  C1041   1.383   .     A
C1040  H1067   1.081   .     S
C1041  H1042   1.084   .     S
H1053  C1288   1.086   .     S
H1054  C1576   1.110   1_545 S
H1070  C844    1.111   1_655 S
H1071  C844    1.110   1_655 S
O1072  Zn1091  1.920   .     S
O1072  Zn1090  1.953   .     S
O1072  Zn1089  1.968   .     S
O1072  Zn1092  1.936   .     S
O1073  Zn1090  1.923   .     S
O1074  Zn1092  1.941   .     S
O1075  Zn1091  1.940   .     S
O1076  Zn1089  1.924   .     S
O1077  C204    1.221   1_556 S
O1081  Zn1089  1.925   .     S
O1082  Zn1092  1.922   .     S
O1083  Zn1090  1.937   .     S
O1084  Zn1091  1.953   .     S
O1085  Zn1092  1.945   .     S
O1086  Zn1089  1.929   .     S
O1087  Zn1090  1.933   .     S
O1088  Zn1091  1.930   .     S
C1093  C1103   1.438   .     S
C1093  O1176   1.265   .     A
C1093  O1174   1.270   .     A
C1094  H1159   1.076   .     S
C1094  C1095   1.403   .     A
C1094  C1129   1.412   .     A
C1095  C1124   1.526   .     S
C1095  C278    1.425   1_556 S
C1096  O1177   1.275   .     A
C1096  C1102   1.482   .     S
C1096  O1175   1.287   .     A
C1097  C1098   1.416   .     A
C1097  C1099   1.423   .     A
C1098  C1101   1.413   .     A
C1098  C1130   1.419   .     A
C1099  C1100   1.418   .     A
C1099  C1114   1.480   .     S
C1100  C1112   1.413   .     A
C1100  C1123   1.495   .     S
C1101  C1112   1.406   .     A
C1101  C1122   1.497   .     S
C1102  C1194   1.376   .     S
C1102  C1207   1.546   .     S
C1103  C1284   1.376   1_455 S
C1103  C1300   1.537   1_455 S
C1104  C1113   1.398   .     A
C1104  C1127   1.485   .     S
C1104  C1111   1.424   .     A
C1105  C1108   1.472   .     S
C1105  C1379   1.342   .     S
C1105  C1393   1.541   .     S
C1106  C1107   1.439   .     S
C1107  O1172   1.282   .     A
C1107  O1178   1.285   .     A
C1108  O1179   1.263   .     A
C1108  O1173   1.282   .     A
C1109  C1112   1.458   .     S
C1109  O1166   1.272   .     A
C1109  O1164   1.271   .     A
C1110  O1167   1.297   .     A
C1110  C1111   1.483   .     S
C1110  O1165   1.281   .     A
C1111  C1115   1.402   .     A
C1113  C1128   1.396   .     A
C1113  H1155   1.085   .     S
C1114  H1160   1.085   .     S
C1115  C1126   1.407   .     A
C1115  H1157   1.075   .     S
C1116  C1117   1.529   .     S
C1116  H1136   1.112   .     S
C1116  H1135   1.112   .     S
C1116  C1284   1.546   1_455 S
C1117  H1134   1.111   .     S
C1117  H1343   1.111   1_455 S
C1117  H1344   1.110   1_455 S
C1118  C1119   1.534   .     S
C1118  H1140   1.112   .     S
C1118  H1141   1.111   .     S
C1118  C1194   1.537   .     S
C1119  H1139   1.110   .     S
C1119  H1228   1.111   .     S
C1119  H1229   1.111   .     S
C1120  H1147   1.112   .     S
C1120  H1146   1.112   .     S
C1121  H1142   1.110   .     S
C1121  H1143   1.111   .     S
C1121  C1393   1.529   .     S
C1121  H1418   1.110   .     S
C1122  O1169   1.221   .     D
C1122  H1148   1.086   .     S
C1123  H1149   1.085   .     S
C1123  O1170   1.221   .     D
C1124  H1153   1.104   .     S
C1124  C1125   1.529   .     S
C1124  H1154   1.111   .     S
C1125  H1150   1.111   .     S
C1125  H332    1.109   1_556 S
C1125  H1243   1.111   .     S
C1126  C1129   1.427   .     A
C1126  C1128   1.416   .     A
C1127  H1156   1.082   .     S
C1127  O1171   1.221   .     D
C1128  C313    1.392   1_556 S
C1129  C311    1.416   1_556 S
C1130  C1131   1.411   .     A
C1131  C1132   1.383   .     A
C1131  H1158   1.081   .     S
C1132  H1133   1.084   .     S
H1137  C1301   1.111   1_455 S
H1138  C1301   1.111   1_455 S
H1144  C1379   1.086   .     S
H1152  C1307   1.111   1_455 S
H1161  C1208   1.111   .     S
H1162  C1208   1.110   .     S
O1163  Zn1182  1.920   .     S
O1163  Zn1181  1.953   .     S
O1163  Zn1180  1.968   .     S
O1163  Zn1183  1.936   .     S
O1164  Zn1181  1.923   .     S
O1165  Zn1183  1.941   .     S
O1166  Zn1182  1.940   .     S
O1167  Zn1180  1.924   .     S
O1168  C295    1.221   1_556 S
O1172  Zn1180  1.925   .     S
O1173  Zn1183  1.922   .     S
O1174  Zn1181  1.937   .     S
O1175  Zn1182  1.953   .     S
O1176  Zn1183  1.945   .     S
O1177  Zn1180  1.929   .     S
O1178  Zn1181  1.933   .     S
O1179  Zn1182  1.930   .     S
C1184  C1194   1.438   .     S
C1184  O1267   1.265   .     A
C1184  O1265   1.270   .     A
C1185  H1250   1.076   .     S
C1185  C1186   1.403   .     A
C1185  C1220   1.412   .     A
C1186  C1215   1.526   .     S
C1186  C369    1.425   1_556 S
C1187  O1268   1.275   .     A
C1187  C1193   1.482   .     S
C1187  O1266   1.287   .     A
C1188  C1189   1.416   .     A
C1188  C1190   1.423   .     A
C1189  C1192   1.413   .     A
C1189  C1221   1.419   .     A
C1190  C1191   1.418   .     A
C1190  C1205   1.480   .     S
C1191  C1203   1.413   .     A
C1191  C1214   1.495   .     S
C1192  C1203   1.406   .     A
C1192  C1213   1.497   .     S
C1193  C1285   1.376   .     S
C1193  C1298   1.546   .     S
C1195  C1204   1.398   .     A
C1195  C1218   1.485   .     S
C1195  C1202   1.424   .     A
C1196  C1199   1.472   .     S
C1196  C1470   1.342   .     S
C1196  C1484   1.541   .     S
C1197  C1198   1.439   .     S
C1198  O1263   1.282   .     A
C1198  O1269   1.285   .     A
C1199  O1270   1.263   .     A
C1199  O1264   1.282   .     A
C1200  C1203   1.458   .     S
C1200  O1257   1.272   .     A
C1200  O1255   1.271   .     A
C1201  O1258   1.297   .     A
C1201  C1202   1.483   .     S
C1201  O1256   1.281   .     A
C1202  C1206   1.402   .     A
C1204  C1219   1.396   .     A
C1204  H1246   1.085   .     S
C1205  H1251   1.085   .     S
C1206  C1217   1.407   .     A
C1206  H1248   1.075   .     S
C1207  C1208   1.529   .     S
C1207  H1227   1.112   .     S
C1207  H1226   1.112   .     S
C1208  H1225   1.111   .     S
C1209  C1210   1.534   .     S
C1209  H1231   1.112   .     S
C1209  H1232   1.111   .     S
C1209  C1285   1.537   .     S
C1210  H1230   1.110   .     S
C1210  H1319   1.111   .     S
C1210  H1320   1.111   .     S
C1211  H1238   1.112   .     S
C1211  H1237   1.112   .     S
C1212  H1233   1.110   .     S
C1212  H1234   1.111   .     S
C1212  C1484   1.529   .     S
C1212  H1509   1.110   .     S
C1213  O1260   1.221   .     D
C1213  H1239   1.086   .     S
C1214  H1240   1.085   .     S
C1214  O1261   1.221   .     D
C1215  H1244   1.104   .     S
C1215  C1216   1.529   .     S
C1215  H1245   1.111   .     S
C1216  H1241   1.111   .     S
C1216  H423    1.109   1_556 S
C1216  H1334   1.111   .     S
C1217  C1220   1.427   .     A
C1217  C1219   1.416   .     A
C1218  H1247   1.082   .     S
C1218  O1262   1.221   .     D
C1219  C404    1.392   1_556 S
C1220  C402    1.416   1_556 S
C1221  C1222   1.411   .     A
C1222  C1223   1.383   .     A
C1222  H1249   1.081   .     S
C1223  H1224   1.084   .     S
H1235  C1470   1.086   .     S
H1252  C1299   1.111   .     S
H1253  C1299   1.110   .     S
O1254  Zn1273  1.920   .     S
O1254  Zn1272  1.953   .     S
O1254  Zn1271  1.968   .     S
O1254  Zn1274  1.936   .     S
O1255  Zn1272  1.923   .     S
O1256  Zn1274  1.941   .     S
O1257  Zn1273  1.940   .     S
O1258  Zn1271  1.924   .     S
O1259  C386    1.221   1_556 S
O1263  Zn1271  1.925   .     S
O1264  Zn1274  1.922   .     S
O1265  Zn1272  1.937   .     S
O1266  Zn1273  1.953   .     S
O1267  Zn1274  1.945   .     S
O1268  Zn1271  1.929   .     S
O1269  Zn1272  1.933   .     S
O1270  Zn1273  1.930   .     S
C1275  C1285   1.438   .     S
C1275  O1358   1.265   .     A
C1275  O1356   1.270   .     A
C1276  H1341   1.076   .     S
C1276  C1277   1.403   .     A
C1276  C1311   1.412   .     A
C1277  C1306   1.526   .     S
C1277  C460    1.425   1_556 S
C1278  O1359   1.275   .     A
C1278  C1284   1.482   .     S
C1278  O1357   1.287   .     A
C1279  C1280   1.416   .     A
C1279  C1281   1.423   .     A
C1280  C1283   1.413   .     A
C1280  C1312   1.419   .     A
C1281  C1282   1.418   .     A
C1281  C1296   1.480   .     S
C1282  C1294   1.413   .     A
C1282  C1305   1.495   .     S
C1283  C1294   1.406   .     A
C1283  C1304   1.497   .     S
C1284  C1103   1.376   1_655 S
C1284  C1116   1.546   1_655 S
C1286  C1295   1.398   .     A
C1286  C1309   1.485   .     S
C1286  C1293   1.424   .     A
C1287  C1290   1.472   .     S
C1287  C1561   1.342   .     S
C1287  C1575   1.541   .     S
C1288  C1289   1.439   .     S
C1289  O1354   1.282   .     A
C1289  O1360   1.285   .     A
C1290  O1361   1.263   .     A
C1290  O1355   1.282   .     A
C1291  C1294   1.458   .     S
C1291  O1348   1.272   .     A
C1291  O1346   1.271   .     A
C1292  O1349   1.297   .     A
C1292  C1293   1.483   .     S
C1292  O1347   1.281   .     A
C1293  C1297   1.402   .     A
C1295  C1310   1.396   .     A
C1295  H1337   1.085   .     S
C1296  H1342   1.085   .     S
C1297  C1308   1.407   .     A
C1297  H1339   1.075   .     S
C1298  C1299   1.529   .     S
C1298  H1318   1.112   .     S
C1298  H1317   1.112   .     S
C1299  H1316   1.111   .     S
C1300  C1301   1.534   .     S
C1300  H1322   1.112   .     S
C1300  H1323   1.111   .     S
C1300  C1103   1.537   1_655 S
C1301  H1321   1.110   .     S
C1301  H1137   1.111   1_655 S
C1301  H1138   1.111   1_655 S
C1302  H1329   1.112   .     S
C1302  H1328   1.112   .     S
C1303  H1324   1.110   .     S
C1303  H1325   1.111   .     S
C1303  C1575   1.529   .     S
C1303  H1600   1.110   .     S
C1304  O1351   1.221   .     D
C1304  H1330   1.086   .     S
C1305  H1331   1.085   .     S
C1305  O1352   1.221   .     D
C1306  H1335   1.104   .     S
C1306  C1307   1.529   .     S
C1306  H1336   1.111   .     S
C1307  H1332   1.111   .     S
C1307  H514    1.109   1_556 S
C1307  H1152   1.111   1_655 S
C1308  C1311   1.427   .     A
C1308  C1310   1.416   .     A
C1309  H1338   1.082   .     S
C1309  O1353   1.221   .     D
C1310  C495    1.392   1_556 S
C1311  C493    1.416   1_556 S
C1312  C1313   1.411   .     A
C1313  C1314   1.383   .     A
C1313  H1340   1.081   .     S
C1314  H1315   1.084   .     S
H1326  C1561   1.086   .     S
H1343  C1117   1.111   1_655 S
H1344  C1117   1.110   1_655 S
O1345  Zn1364  1.920   .     S
O1345  Zn1363  1.953   .     S
O1345  Zn1362  1.968   .     S
O1345  Zn1365  1.936   .     S
O1346  Zn1363  1.923   .     S
O1347  Zn1365  1.941   .     S
O1348  Zn1364  1.940   .     S
O1349  Zn1362  1.924   .     S
O1350  C477    1.221   1_556 S
O1354  Zn1362  1.925   .     S
O1355  Zn1365  1.922   .     S
O1356  Zn1363  1.937   .     S
O1357  Zn1364  1.953   .     S
O1358  Zn1365  1.945   .     S
O1359  Zn1362  1.929   .     S
O1360  Zn1363  1.933   .     S
O1361  Zn1364  1.930   .     S
C1366  C1376   1.438   .     S
C1366  O1449   1.265   .     A
C1366  O1447   1.270   .     A
C1367  H1432   1.076   .     S
C1367  C1368   1.403   .     A
C1367  C1402   1.412   .     A
C1368  C1397   1.526   .     S
C1368  C551    1.425   1_556 S
C1369  O1450   1.275   .     A
C1369  C1375   1.482   .     S
C1369  O1448   1.287   .     A
C1370  C1371   1.416   .     A
C1370  C1372   1.423   .     A
C1371  C1374   1.413   .     A
C1371  C1403   1.419   .     A
C1372  C1373   1.418   .     A
C1372  C1387   1.480   .     S
C1373  C1385   1.413   .     A
C1373  C1396   1.495   .     S
C1374  C1385   1.406   .     A
C1374  C1395   1.497   .     S
C1375  C1467   1.376   .     S
C1375  C1480   1.546   .     S
C1376  C1557   1.376   1_455 S
C1376  C1573   1.537   1_455 S
C1377  C1386   1.398   .     A
C1377  C1400   1.485   .     S
C1377  C1384   1.424   .     A
C1378  C1381   1.472   .     S
C1378  C833    1.342   1_565 S
C1378  C847    1.541   1_565 S
C1379  C1380   1.439   .     S
C1380  O1445   1.282   .     A
C1380  O1451   1.285   .     A
C1381  O1452   1.263   .     A
C1381  O1446   1.282   .     A
C1382  C1385   1.458   .     S
C1382  O1439   1.272   .     A
C1382  O1437   1.271   .     A
C1383  O1440   1.297   .     A
C1383  C1384   1.483   .     S
C1383  O1438   1.281   .     A
C1384  C1388   1.402   .     A
C1386  C1401   1.396   .     A
C1386  H1428   1.085   .     S
C1387  H1433   1.085   .     S
C1388  C1399   1.407   .     A
C1388  H1430   1.075   .     S
C1389  C1390   1.529   .     S
C1389  H1409   1.112   .     S
C1389  H1408   1.112   .     S
C1389  C1557   1.546   1_455 S
C1390  H1407   1.111   .     S
C1390  H1616   1.111   1_455 S
C1390  H1617   1.110   1_455 S
C1391  C1392   1.534   .     S
C1391  H1413   1.112   .     S
C1391  H1414   1.111   .     S
C1391  C1467   1.537   .     S
C1392  H1412   1.110   .     S
C1392  H1501   1.111   .     S
C1392  H1502   1.111   .     S
C1393  H1420   1.112   .     S
C1393  H1419   1.112   .     S
C1394  H1415   1.110   .     S
C1394  H1416   1.111   .     S
C1394  C847    1.529   1_565 S
C1394  H872    1.110   1_565 S
C1395  O1442   1.221   .     D
C1395  H1421   1.086   .     S
C1396  H1422   1.085   .     S
C1396  O1443   1.221   .     D
C1397  H1426   1.104   .     S
C1397  C1398   1.529   .     S
C1397  H1427   1.111   .     S
C1398  H1423   1.111   .     S
C1398  H605    1.109   1_556 S
C1398  H1516   1.111   .     S
C1399  C1402   1.427   .     A
C1399  C1401   1.416   .     A
C1400  H1429   1.082   .     S
C1400  O1444   1.221   .     D
C1401  C586    1.392   1_556 S
C1402  C584    1.416   1_556 S
C1403  C1404   1.411   .     A
C1404  C1405   1.383   .     A
C1404  H1431   1.081   .     S
C1405  H1406   1.084   .     S
H1410  C1574   1.111   1_455 S
H1411  C1574   1.111   1_455 S
H1417  C833    1.086   1_565 S
H1425  C1580   1.111   1_455 S
H1434  C1481   1.111   .     S
H1435  C1481   1.110   .     S
O1436  Zn1455  1.920   .     S
O1436  Zn1454  1.953   .     S
O1436  Zn1453  1.968   .     S
O1436  Zn1456  1.936   .     S
O1437  Zn1454  1.923   .     S
O1438  Zn1456  1.941   .     S
O1439  Zn1455  1.940   .     S
O1440  Zn1453  1.924   .     S
O1441  C568    1.221   1_556 S
O1445  Zn1453  1.925   .     S
O1446  Zn1456  1.922   .     S
O1447  Zn1454  1.937   .     S
O1448  Zn1455  1.953   .     S
O1449  Zn1456  1.945   .     S
O1450  Zn1453  1.929   .     S
O1451  Zn1454  1.933   .     S
O1452  Zn1455  1.930   .     S
C1457  C1467   1.438   .     S
C1457  O1540   1.265   .     A
C1457  O1538   1.270   .     A
C1458  H1523   1.076   .     S
C1458  C1459   1.403   .     A
C1458  C1493   1.412   .     A
C1459  C1488   1.526   .     S
C1459  C642    1.425   1_556 S
C1460  O1541   1.275   .     A
C1460  C1466   1.482   .     S
C1460  O1539   1.287   .     A
C1461  C1462   1.416   .     A
C1461  C1463   1.423   .     A
C1462  C1465   1.413   .     A
C1462  C1494   1.419   .     A
C1463  C1464   1.418   .     A
C1463  C1478   1.480   .     S
C1464  C1476   1.413   .     A
C1464  C1487   1.495   .     S
C1465  C1476   1.406   .     A
C1465  C1486   1.497   .     S
C1466  C1558   1.376   .     S
C1466  C1571   1.546   .     S
C1468  C1477   1.398   .     A
C1468  C1491   1.485   .     S
C1468  C1475   1.424   .     A
C1469  C1472   1.472   .     S
C1469  C924    1.342   1_565 S
C1469  C938    1.541   1_565 S
C1470  C1471   1.439   .     S
C1471  O1536   1.282   .     A
C1471  O1542   1.285   .     A
C1472  O1543   1.263   .     A
C1472  O1537   1.282   .     A
C1473  C1476   1.458   .     S
C1473  O1530   1.272   .     A
C1473  O1528   1.271   .     A
C1474  O1531   1.297   .     A
C1474  C1475   1.483   .     S
C1474  O1529   1.281   .     A
C1475  C1479   1.402   .     A
C1477  C1492   1.396   .     A
C1477  H1519   1.085   .     S
C1478  H1524   1.085   .     S
C1479  C1490   1.407   .     A
C1479  H1521   1.075   .     S
C1480  C1481   1.529   .     S
C1480  H1500   1.112   .     S
C1480  H1499   1.112   .     S
C1481  H1498   1.111   .     S
C1482  C1483   1.534   .     S
C1482  H1504   1.112   .     S
C1482  H1505   1.111   .     S
C1482  C1558   1.537   .     S
C1483  H1503   1.110   .     S
C1483  H1592   1.111   .     S
C1483  H1593   1.111   .     S
C1484  H1511   1.112   .     S
C1484  H1510   1.112   .     S
C1485  H1506   1.110   .     S
C1485  H1507   1.111   .     S
C1485  C938    1.529   1_565 S
C1485  H963    1.110   1_565 S
C1486  O1533   1.221   .     D
C1486  H1512   1.086   .     S
C1487  H1513   1.085   .     S
C1487  O1534   1.221   .     D
C1488  H1517   1.104   .     S
C1488  C1489   1.529   .     S
C1488  H1518   1.111   .     S
C1489  H1514   1.111   .     S
C1489  H696    1.109   1_556 S
C1489  H1607   1.111   .     S
C1490  C1493   1.427   .     A
C1490  C1492   1.416   .     A
C1491  H1520   1.082   .     S
C1491  O1535   1.221   .     D
C1492  C677    1.392   1_556 S
C1493  C675    1.416   1_556 S
C1494  C1495   1.411   .     A
C1495  C1496   1.383   .     A
C1495  H1522   1.081   .     S
C1496  H1497   1.084   .     S
H1508  C924    1.086   1_565 S
H1525  C1572   1.111   .     S
H1526  C1572   1.110   .     S
O1527  Zn1546  1.920   .     S
O1527  Zn1545  1.953   .     S
O1527  Zn1544  1.968   .     S
O1527  Zn1547  1.936   .     S
O1528  Zn1545  1.923   .     S
O1529  Zn1547  1.941   .     S
O1530  Zn1546  1.940   .     S
O1531  Zn1544  1.924   .     S
O1532  C659    1.221   1_556 S
O1536  Zn1544  1.925   .     S
O1537  Zn1547  1.922   .     S
O1538  Zn1545  1.937   .     S
O1539  Zn1546  1.953   .     S
O1540  Zn1547  1.945   .     S
O1541  Zn1544  1.929   .     S
O1542  Zn1545  1.933   .     S
O1543  Zn1546  1.930   .     S
C1548  C1558   1.438   .     S
C1548  O1631   1.265   .     A
C1548  O1629   1.270   .     A
C1549  H1614   1.076   .     S
C1549  C1550   1.403   .     A
C1549  C1584   1.412   .     A
C1550  C1579   1.526   .     S
C1550  C733    1.425   1_556 S
C1551  O1632   1.275   .     A
C1551  C1557   1.482   .     S
C1551  O1630   1.287   .     A
C1552  C1553   1.416   .     A
C1552  C1554   1.423   .     A
C1553  C1556   1.413   .     A
C1553  C1585   1.419   .     A
C1554  C1555   1.418   .     A
C1554  C1569   1.480   .     S
C1555  C1567   1.413   .     A
C1555  C1578   1.495   .     S
C1556  C1567   1.406   .     A
C1556  C1577   1.497   .     S
C1557  C1376   1.376   1_655 S
C1557  C1389   1.546   1_655 S
C1559  C1568   1.398   .     A
C1559  C1582   1.485   .     S
C1559  C1566   1.424   .     A
C1560  C1563   1.472   .     S
C1560  C1015   1.342   1_565 S
C1560  C1029   1.541   1_565 S
C1561  C1562   1.439   .     S
C1562  O1627   1.282   .     A
C1562  O1633   1.285   .     A
C1563  O1634   1.263   .     A
C1563  O1628   1.282   .     A
C1564  C1567   1.458   .     S
C1564  O1621   1.272   .     A
C1564  O1619   1.271   .     A
C1565  O1622   1.297   .     A
C1565  C1566   1.483   .     S
C1565  O1620   1.281   .     A
C1566  C1570   1.402   .     A
C1568  C1583   1.396   .     A
C1568  H1610   1.085   .     S
C1569  H1615   1.085   .     S
C1570  C1581   1.407   .     A
C1570  H1612   1.075   .     S
C1571  C1572   1.529   .     S
C1571  H1591   1.112   .     S
C1571  H1590   1.112   .     S
C1572  H1589   1.111   .     S
C1573  C1574   1.534   .     S
C1573  H1595   1.112   .     S
C1573  H1596   1.111   .     S
C1573  C1376   1.537   1_655 S
C1574  H1594   1.110   .     S
C1574  H1410   1.111   1_655 S
C1574  H1411   1.111   1_655 S
C1575  H1602   1.112   .     S
C1575  H1601   1.112   .     S
C1576  H1597   1.110   .     S
C1576  H1598   1.111   .     S
C1576  C1029   1.529   1_565 S
C1576  H1054   1.110   1_565 S
C1577  O1624   1.221   .     D
C1577  H1603   1.086   .     S
C1578  H1604   1.085   .     S
C1578  O1625   1.221   .     D
C1579  H1608   1.104   .     S
C1579  C1580   1.529   .     S
C1579  H1609   1.111   .     S
C1580  H1605   1.111   .     S
C1580  H787    1.109   1_556 S
C1580  H1425   1.111   1_655 S
C1581  C1584   1.427   .     A
C1581  C1583   1.416   .     A
C1582  H1611   1.082   .     S
C1582  O1626   1.221   .     D
C1583  C768    1.392   1_556 S
C1584  C766    1.416   1_556 S
C1585  C1586   1.411   .     A
C1586  C1587   1.383   .     A
C1586  H1613   1.081   .     S
C1587  H1588   1.084   .     S
H1599  C1015   1.086   1_565 S
H1616  C1390   1.111   1_655 S
H1617  C1390   1.110   1_655 S
O1618  Zn1637  1.920   .     S
O1618  Zn1636  1.953   .     S
O1618  Zn1635  1.968   .     S
O1618  Zn1638  1.936   .     S
O1619  Zn1636  1.923   .     S
O1620  Zn1638  1.941   .     S
O1621  Zn1637  1.940   .     S
O1622  Zn1635  1.924   .     S
O1623  C750    1.221   1_556 S
O1627  Zn1635  1.925   .     S
O1628  Zn1638  1.922   .     S
O1629  Zn1636  1.937   .     S
O1630  Zn1637  1.953   .     S
O1631  Zn1638  1.945   .     S
O1632  Zn1635  1.929   .     S
O1633  Zn1636  1.933   .     S
O1634  Zn1637  1.930   .     S
