data_str_m1_o10_o18_pcu_sym.70
_audit_creation_date              2020-01-03
_audit_creation_method            'Materials Studio'
_symmetry_space_group_name_H-M    'P1'
_symmetry_Int_Tables_number       1
_symmetry_cell_setting            triclinic
loop_
_symmetry_equiv_pos_as_xyz
  x,y,z
_cell_length_a                    32.5501
_cell_length_b                    32.5355
_cell_length_c                    35.3806
_cell_angle_alpha                 97.8936
_cell_angle_beta                  73.1042
_cell_angle_gamma                 98.6067
loop_
_atom_site_label
_atom_site_type_symbol
_atom_site_fract_x
_atom_site_fract_y
_atom_site_fract_z
_atom_site_U_iso_or_equiv
_atom_site_adp_type
_atom_site_occupancy
C1     C     0.05240   0.15956   0.25917   0.00000  Uiso   1.00
C2     C     0.20324   0.12554   0.45554   0.00000  Uiso   1.00
C3     C     0.23110   0.11572   0.47578   0.00000  Uiso   1.00
C4     C     0.28121   0.17350   0.24104   0.00000  Uiso   1.00
C5     C     0.21962   0.12073   0.01752   0.00000  Uiso   1.00
C6     C     0.17805   0.13209   0.03908   0.00000  Uiso   1.00
C7     C     0.24910   0.11530   0.03826   0.00000  Uiso   1.00
C8     C     0.23850   0.12202   0.07966   0.00000  Uiso   1.00
C9     C     0.16934   0.14161   0.08050   0.00000  Uiso   1.00
C10    C     0.32737   0.17591   0.23671   0.00000  Uiso   1.00
C11    C     0.00725   0.15766   0.26205   0.00000  Uiso   1.00
C12    C     0.08488   0.19190   0.42140   0.00000  Uiso   1.00
C13    C     0.18112   0.32222   0.23794   0.00000  Uiso   1.00
C14    C     0.15183   0.01203   0.26219   0.00000  Uiso   1.00
C15    C     0.15606   0.05604   0.25888   0.00000  Uiso   1.00
C16    C     0.17696   0.27772   0.24128   0.00000  Uiso   1.00
C17    C     0.18800   0.14569   0.14376   0.00000  Uiso   1.00
C18    C     0.14445   0.18672   0.35655   0.00000  Uiso   1.00
C19    C     0.12823   0.18677   0.40024   0.00000  Uiso   1.00
C20    C     0.19873   0.13600   0.10067   0.00000  Uiso   1.00
C21    C     0.06933   0.18261   0.46078   0.00000  Uiso   1.00
C22    C     0.26800   0.07566   0.10320   0.00000  Uiso   1.00
C23    C     0.15508   0.17389   0.41993   0.00000  Uiso   1.00
C24    C     0.19050   0.07854   0.40532   0.00000  Uiso   1.00
C25    C     0.13863   0.16052   0.45830   0.00000  Uiso   1.00
C26    C     0.09545   0.16655   0.47911   0.00000  Uiso   1.00
C27    C     0.16396   0.14216   0.47692   0.00000  Uiso   1.00
C28    C     0.14828   0.13813   0.01837   0.00000  Uiso   1.00
C29    C     0.10336   0.13980   0.03693   0.00000  Uiso   1.00
C30    C     0.07794   0.15464   0.01742   0.00000  Uiso   1.00
H31    H     0.04384   0.15593   0.03203   0.00000  Uiso   1.00
H32    H     0.23526   0.06180   0.11945   0.00000  Uiso   1.00
H33    H     0.29047   0.07282   0.12077   0.00000  Uiso   1.00
H34    H     0.15516   0.08098   0.41448   0.00000  Uiso   1.00
H35    H     0.19746   0.05245   0.41898   0.00000  Uiso   1.00
H36    H     0.20035   0.07087   0.37265   0.00000  Uiso   1.00
H37    H     0.28094   0.10667   0.02289   0.00000  Uiso   1.00
H38    H     0.31789   0.14154   0.28598   0.00000  Uiso   1.00
H39    H     0.20820   0.00290   0.21560   0.00000  Uiso   1.00
H40    H     0.12439   0.33208   0.28460   0.00000  Uiso   1.00
H41    H     0.14118   0.15649   0.09729   0.00000  Uiso   1.00
H42    H     0.03600   0.18643   0.47669   0.00000  Uiso   1.00
H43    H     0.18894   0.17435   0.40439   0.00000  Uiso   1.00
H44    H     0.27938   0.05773   0.07372   0.00000  Uiso   1.00
I45    I     0.03829   0.20826   0.18992   0.00000  Uiso   1.00
I46    I     0.29125   0.09480   0.44082   0.00000  Uiso   1.00
I47    I     0.03872   0.21015   0.39686   0.00000  Uiso   1.00
I48    I     0.06683   0.10901   0.08798   0.00000  Uiso   1.00
O49    O     0.16667   0.16667   0.25000   0.00000  Uiso   1.00
O50    O     0.15693   0.12393   0.16625   0.00000  Uiso   1.00
O51    O     0.12687   0.20646   0.33749   0.00000  Uiso   1.00
O52    O     0.21088   0.17493   0.15877   0.00000  Uiso   1.00
O53    O     0.17198   0.16135   0.33749   0.00000  Uiso   1.00
O54    O     0.26854   0.11830   0.09937   0.00000  Uiso   1.00
O55    O     0.21426   0.11660   0.41472   0.00000  Uiso   1.00
O56    O     0.17849   0.08101   0.27821   0.00000  Uiso   1.00
O57    O     0.14581   0.26136   0.26767   0.00000  Uiso   1.00
O58    O     0.07452   0.13251   0.23607   0.00000  Uiso   1.00
O59    O     0.26785   0.19179   0.21806   0.00000  Uiso   1.00
O60    O     0.06990   0.18960   0.27820   0.00000  Uiso   1.00
O61    O     0.25440   0.15277   0.26768   0.00000  Uiso   1.00
O62    O     0.13800   0.06903   0.23607   0.00000  Uiso   1.00
O63    O     0.20437   0.25527   0.21806   0.00000  Uiso   1.00
Zn64   Zn    0.19244   0.14090   0.28278   0.00000  Uiso   1.00
Zn65   Zn    0.13459   0.12378   0.22258   0.00000  Uiso   1.00
Zn66   Zn    0.21166   0.19664   0.21188   0.00000  Uiso   1.00
Zn67   Zn    0.12798   0.20535   0.28277   0.00000  Uiso   1.00
C68    C     0.38574   0.15956   0.25917   0.00000  Uiso   1.00
C69    C     0.53658   0.12554   0.45554   0.00000  Uiso   1.00
C70    C     0.56443   0.11572   0.47578   0.00000  Uiso   1.00
C71    C     0.61454   0.17350   0.24104   0.00000  Uiso   1.00
C72    C     0.55295   0.12073   0.01752   0.00000  Uiso   1.00
C73    C     0.51138   0.13209   0.03908   0.00000  Uiso   1.00
C74    C     0.58243   0.11530   0.03826   0.00000  Uiso   1.00
C75    C     0.57183   0.12202   0.07966   0.00000  Uiso   1.00
C76    C     0.50267   0.14161   0.08050   0.00000  Uiso   1.00
C77    C     0.66070   0.17591   0.23671   0.00000  Uiso   1.00
C78    C     0.34058   0.15766   0.26205   0.00000  Uiso   1.00
C79    C     0.41822   0.19190   0.42140   0.00000  Uiso   1.00
C80    C     0.51446   0.32222   0.23794   0.00000  Uiso   1.00
C81    C     0.48517   0.01203   0.26219   0.00000  Uiso   1.00
C82    C     0.48939   0.05604   0.25888   0.00000  Uiso   1.00
C83    C     0.51029   0.27772   0.24128   0.00000  Uiso   1.00
C84    C     0.52134   0.14569   0.14376   0.00000  Uiso   1.00
C85    C     0.47778   0.18672   0.35655   0.00000  Uiso   1.00
C86    C     0.46157   0.18677   0.40024   0.00000  Uiso   1.00
C87    C     0.53206   0.13600   0.10067   0.00000  Uiso   1.00
C88    C     0.40266   0.18261   0.46078   0.00000  Uiso   1.00
C89    C     0.60133   0.07566   0.10320   0.00000  Uiso   1.00
C90    C     0.48842   0.17389   0.41993   0.00000  Uiso   1.00
C91    C     0.52383   0.07854   0.40532   0.00000  Uiso   1.00
C92    C     0.47196   0.16052   0.45830   0.00000  Uiso   1.00
C93    C     0.42878   0.16655   0.47911   0.00000  Uiso   1.00
C94    C     0.49730   0.14216   0.47692   0.00000  Uiso   1.00
C95    C     0.48161   0.13813   0.01837   0.00000  Uiso   1.00
C96    C     0.43670   0.13980   0.03693   0.00000  Uiso   1.00
C97    C     0.41128   0.15464   0.01742   0.00000  Uiso   1.00
H98    H     0.37717   0.15593   0.03203   0.00000  Uiso   1.00
H99    H     0.56859   0.06180   0.11945   0.00000  Uiso   1.00
H100   H     0.62381   0.07282   0.12077   0.00000  Uiso   1.00
H101   H     0.48850   0.08098   0.41448   0.00000  Uiso   1.00
H102   H     0.53079   0.05245   0.41898   0.00000  Uiso   1.00
H103   H     0.53369   0.07087   0.37265   0.00000  Uiso   1.00
H104   H     0.61428   0.10667   0.02289   0.00000  Uiso   1.00
H105   H     0.65122   0.14154   0.28598   0.00000  Uiso   1.00
H106   H     0.54154   0.00290   0.21560   0.00000  Uiso   1.00
H107   H     0.45772   0.33208   0.28460   0.00000  Uiso   1.00
H108   H     0.47452   0.15649   0.09729   0.00000  Uiso   1.00
H109   H     0.36933   0.18643   0.47669   0.00000  Uiso   1.00
H110   H     0.52227   0.17435   0.40439   0.00000  Uiso   1.00
H111   H     0.61272   0.05773   0.07372   0.00000  Uiso   1.00
I112   I     0.37162   0.20826   0.18992   0.00000  Uiso   1.00
I113   I     0.62458   0.09480   0.44082   0.00000  Uiso   1.00
I114   I     0.37205   0.21015   0.39686   0.00000  Uiso   1.00
I115   I     0.40016   0.10901   0.08798   0.00000  Uiso   1.00
O116   O     0.50000   0.16667   0.25000   0.00000  Uiso   1.00
O117   O     0.49027   0.12393   0.16625   0.00000  Uiso   1.00
O118   O     0.46020   0.20646   0.33749   0.00000  Uiso   1.00
O119   O     0.54421   0.17493   0.15877   0.00000  Uiso   1.00
O120   O     0.50532   0.16135   0.33749   0.00000  Uiso   1.00
O121   O     0.60187   0.11830   0.09937   0.00000  Uiso   1.00
O122   O     0.54760   0.11660   0.41472   0.00000  Uiso   1.00
O123   O     0.51182   0.08101   0.27821   0.00000  Uiso   1.00
O124   O     0.47914   0.26136   0.26767   0.00000  Uiso   1.00
O125   O     0.40785   0.13251   0.23607   0.00000  Uiso   1.00
O126   O     0.60119   0.19179   0.21806   0.00000  Uiso   1.00
O127   O     0.40323   0.18960   0.27820   0.00000  Uiso   1.00
O128   O     0.58773   0.15277   0.26768   0.00000  Uiso   1.00
O129   O     0.47133   0.06903   0.23607   0.00000  Uiso   1.00
O130   O     0.53771   0.25527   0.21806   0.00000  Uiso   1.00
Zn131  Zn    0.52577   0.14090   0.28278   0.00000  Uiso   1.00
Zn132  Zn    0.46792   0.12378   0.22258   0.00000  Uiso   1.00
Zn133  Zn    0.54500   0.19664   0.21188   0.00000  Uiso   1.00
Zn134  Zn    0.46131   0.20535   0.28277   0.00000  Uiso   1.00
C135   C     0.71907   0.15956   0.25917   0.00000  Uiso   1.00
C136   C     0.86991   0.12554   0.45554   0.00000  Uiso   1.00
C137   C     0.89777   0.11572   0.47578   0.00000  Uiso   1.00
C138   C     0.94788   0.17350   0.24104   0.00000  Uiso   1.00
C139   C     0.88629   0.12073   0.01752   0.00000  Uiso   1.00
C140   C     0.84471   0.13209   0.03908   0.00000  Uiso   1.00
C141   C     0.91576   0.11530   0.03826   0.00000  Uiso   1.00
C142   C     0.90517   0.12202   0.07966   0.00000  Uiso   1.00
C143   C     0.83600   0.14161   0.08050   0.00000  Uiso   1.00
C144   C     0.99404   0.17591   0.23671   0.00000  Uiso   1.00
C145   C     0.67391   0.15766   0.26205   0.00000  Uiso   1.00
C146   C     0.75155   0.19190   0.42140   0.00000  Uiso   1.00
C147   C     0.84779   0.32222   0.23794   0.00000  Uiso   1.00
C148   C     0.81850   0.01203   0.26219   0.00000  Uiso   1.00
C149   C     0.82273   0.05604   0.25888   0.00000  Uiso   1.00
C150   C     0.84362   0.27772   0.24128   0.00000  Uiso   1.00
C151   C     0.85467   0.14569   0.14376   0.00000  Uiso   1.00
C152   C     0.81112   0.18672   0.35655   0.00000  Uiso   1.00
C153   C     0.79490   0.18677   0.40024   0.00000  Uiso   1.00
C154   C     0.86539   0.13600   0.10067   0.00000  Uiso   1.00
C155   C     0.73600   0.18261   0.46078   0.00000  Uiso   1.00
C156   C     0.93467   0.07566   0.10320   0.00000  Uiso   1.00
C157   C     0.82175   0.17389   0.41993   0.00000  Uiso   1.00
C158   C     0.85716   0.07854   0.40532   0.00000  Uiso   1.00
C159   C     0.80529   0.16052   0.45830   0.00000  Uiso   1.00
C160   C     0.76211   0.16655   0.47911   0.00000  Uiso   1.00
C161   C     0.83063   0.14216   0.47692   0.00000  Uiso   1.00
C162   C     0.81494   0.13813   0.01837   0.00000  Uiso   1.00
C163   C     0.77003   0.13980   0.03693   0.00000  Uiso   1.00
C164   C     0.74461   0.15464   0.01742   0.00000  Uiso   1.00
H165   H     0.71050   0.15593   0.03203   0.00000  Uiso   1.00
H166   H     0.90192   0.06180   0.11945   0.00000  Uiso   1.00
H167   H     0.95714   0.07282   0.12077   0.00000  Uiso   1.00
H168   H     0.82183   0.08098   0.41448   0.00000  Uiso   1.00
H169   H     0.86413   0.05245   0.41898   0.00000  Uiso   1.00
H170   H     0.86702   0.07087   0.37265   0.00000  Uiso   1.00
H171   H     0.94761   0.10667   0.02289   0.00000  Uiso   1.00
H172   H     0.98456   0.14154   0.28598   0.00000  Uiso   1.00
H173   H     0.87487   0.00290   0.21560   0.00000  Uiso   1.00
H174   H     0.79105   0.33208   0.28460   0.00000  Uiso   1.00
H175   H     0.80785   0.15649   0.09729   0.00000  Uiso   1.00
H176   H     0.70267   0.18643   0.47669   0.00000  Uiso   1.00
H177   H     0.85561   0.17435   0.40439   0.00000  Uiso   1.00
H178   H     0.94605   0.05773   0.07372   0.00000  Uiso   1.00
I179   I     0.70496   0.20826   0.18992   0.00000  Uiso   1.00
I180   I     0.95792   0.09480   0.44082   0.00000  Uiso   1.00
I181   I     0.70539   0.21015   0.39686   0.00000  Uiso   1.00
I182   I     0.73349   0.10901   0.08798   0.00000  Uiso   1.00
O183   O     0.83333   0.16667   0.25000   0.00000  Uiso   1.00
O184   O     0.82360   0.12393   0.16625   0.00000  Uiso   1.00
O185   O     0.79354   0.20646   0.33749   0.00000  Uiso   1.00
O186   O     0.87755   0.17493   0.15877   0.00000  Uiso   1.00
O187   O     0.83865   0.16135   0.33749   0.00000  Uiso   1.00
O188   O     0.93520   0.11830   0.09937   0.00000  Uiso   1.00
O189   O     0.88093   0.11660   0.41472   0.00000  Uiso   1.00
O190   O     0.84515   0.08101   0.27821   0.00000  Uiso   1.00
O191   O     0.81247   0.26136   0.26767   0.00000  Uiso   1.00
O192   O     0.74119   0.13251   0.23607   0.00000  Uiso   1.00
O193   O     0.93452   0.19179   0.21806   0.00000  Uiso   1.00
O194   O     0.73656   0.18960   0.27820   0.00000  Uiso   1.00
O195   O     0.92106   0.15277   0.26768   0.00000  Uiso   1.00
O196   O     0.80467   0.06903   0.23607   0.00000  Uiso   1.00
O197   O     0.87104   0.25527   0.21806   0.00000  Uiso   1.00
Zn198  Zn    0.85910   0.14090   0.28278   0.00000  Uiso   1.00
Zn199  Zn    0.80125   0.12378   0.22258   0.00000  Uiso   1.00
Zn200  Zn    0.87833   0.19664   0.21188   0.00000  Uiso   1.00
Zn201  Zn    0.79465   0.20535   0.28277   0.00000  Uiso   1.00
C202   C     0.05240   0.49289   0.25917   0.00000  Uiso   1.00
C203   C     0.20324   0.45887   0.45554   0.00000  Uiso   1.00
C204   C     0.23110   0.44906   0.47578   0.00000  Uiso   1.00
C205   C     0.28121   0.50684   0.24104   0.00000  Uiso   1.00
C206   C     0.21962   0.45406   0.01752   0.00000  Uiso   1.00
C207   C     0.17805   0.46543   0.03908   0.00000  Uiso   1.00
C208   C     0.24910   0.44863   0.03826   0.00000  Uiso   1.00
C209   C     0.23850   0.45535   0.07966   0.00000  Uiso   1.00
C210   C     0.16934   0.47494   0.08050   0.00000  Uiso   1.00
C211   C     0.32737   0.50924   0.23671   0.00000  Uiso   1.00
C212   C     0.00725   0.49100   0.26205   0.00000  Uiso   1.00
C213   C     0.08488   0.52524   0.42140   0.00000  Uiso   1.00
C214   C     0.18112   0.65555   0.23794   0.00000  Uiso   1.00
C215   C     0.15183   0.34537   0.26219   0.00000  Uiso   1.00
C216   C     0.15606   0.38938   0.25888   0.00000  Uiso   1.00
C217   C     0.17696   0.61105   0.24128   0.00000  Uiso   1.00
C218   C     0.18800   0.47902   0.14376   0.00000  Uiso   1.00
C219   C     0.14445   0.52005   0.35655   0.00000  Uiso   1.00
C220   C     0.12823   0.52010   0.40024   0.00000  Uiso   1.00
C221   C     0.19873   0.46933   0.10067   0.00000  Uiso   1.00
C222   C     0.06933   0.51595   0.46078   0.00000  Uiso   1.00
C223   C     0.26800   0.40899   0.10320   0.00000  Uiso   1.00
C224   C     0.15508   0.50723   0.41993   0.00000  Uiso   1.00
C225   C     0.19050   0.41188   0.40532   0.00000  Uiso   1.00
C226   C     0.13863   0.49385   0.45830   0.00000  Uiso   1.00
C227   C     0.09545   0.49988   0.47911   0.00000  Uiso   1.00
C228   C     0.16396   0.47550   0.47692   0.00000  Uiso   1.00
C229   C     0.14828   0.47146   0.01837   0.00000  Uiso   1.00
C230   C     0.10336   0.47314   0.03693   0.00000  Uiso   1.00
C231   C     0.07794   0.48797   0.01742   0.00000  Uiso   1.00
H232   H     0.04384   0.48926   0.03203   0.00000  Uiso   1.00
H233   H     0.23526   0.39513   0.11945   0.00000  Uiso   1.00
H234   H     0.29047   0.40616   0.12077   0.00000  Uiso   1.00
H235   H     0.15516   0.41431   0.41448   0.00000  Uiso   1.00
H236   H     0.19746   0.38578   0.41898   0.00000  Uiso   1.00
H237   H     0.20035   0.40420   0.37265   0.00000  Uiso   1.00
H238   H     0.28094   0.44001   0.02289   0.00000  Uiso   1.00
H239   H     0.31789   0.47487   0.28598   0.00000  Uiso   1.00
H240   H     0.20820   0.33624   0.21560   0.00000  Uiso   1.00
H241   H     0.12439   0.66541   0.28460   0.00000  Uiso   1.00
H242   H     0.14118   0.48982   0.09729   0.00000  Uiso   1.00
H243   H     0.03600   0.51976   0.47669   0.00000  Uiso   1.00
H244   H     0.18894   0.50768   0.40439   0.00000  Uiso   1.00
H245   H     0.27938   0.39106   0.07372   0.00000  Uiso   1.00
I246   I     0.03829   0.54159   0.18992   0.00000  Uiso   1.00
I247   I     0.29125   0.42814   0.44082   0.00000  Uiso   1.00
I248   I     0.03872   0.54348   0.39686   0.00000  Uiso   1.00
I249   I     0.06683   0.44234   0.08798   0.00000  Uiso   1.00
O250   O     0.16667   0.50000   0.25000   0.00000  Uiso   1.00
O251   O     0.15693   0.45726   0.16625   0.00000  Uiso   1.00
O252   O     0.12687   0.53979   0.33749   0.00000  Uiso   1.00
O253   O     0.21088   0.50826   0.15877   0.00000  Uiso   1.00
O254   O     0.17198   0.49468   0.33749   0.00000  Uiso   1.00
O255   O     0.26854   0.45164   0.09937   0.00000  Uiso   1.00
O256   O     0.21426   0.44993   0.41472   0.00000  Uiso   1.00
O257   O     0.17849   0.41434   0.27821   0.00000  Uiso   1.00
O258   O     0.14581   0.59469   0.26767   0.00000  Uiso   1.00
O259   O     0.07452   0.46584   0.23607   0.00000  Uiso   1.00
O260   O     0.26785   0.52512   0.21806   0.00000  Uiso   1.00
O261   O     0.06990   0.52293   0.27820   0.00000  Uiso   1.00
O262   O     0.25440   0.48610   0.26768   0.00000  Uiso   1.00
O263   O     0.13800   0.40236   0.23607   0.00000  Uiso   1.00
O264   O     0.20437   0.58860   0.21806   0.00000  Uiso   1.00
Zn265  Zn    0.19244   0.47423   0.28278   0.00000  Uiso   1.00
Zn266  Zn    0.13459   0.45711   0.22258   0.00000  Uiso   1.00
Zn267  Zn    0.21166   0.52997   0.21188   0.00000  Uiso   1.00
Zn268  Zn    0.12798   0.53868   0.28277   0.00000  Uiso   1.00
C269   C     0.38574   0.49289   0.25917   0.00000  Uiso   1.00
C270   C     0.53658   0.45887   0.45554   0.00000  Uiso   1.00
C271   C     0.56443   0.44906   0.47578   0.00000  Uiso   1.00
C272   C     0.61454   0.50684   0.24104   0.00000  Uiso   1.00
C273   C     0.55295   0.45406   0.01752   0.00000  Uiso   1.00
C274   C     0.51138   0.46543   0.03908   0.00000  Uiso   1.00
C275   C     0.58243   0.44863   0.03826   0.00000  Uiso   1.00
C276   C     0.57183   0.45535   0.07966   0.00000  Uiso   1.00
C277   C     0.50267   0.47494   0.08050   0.00000  Uiso   1.00
C278   C     0.66070   0.50924   0.23671   0.00000  Uiso   1.00
C279   C     0.34058   0.49100   0.26205   0.00000  Uiso   1.00
C280   C     0.41822   0.52524   0.42140   0.00000  Uiso   1.00
C281   C     0.51446   0.65555   0.23794   0.00000  Uiso   1.00
C282   C     0.48517   0.34537   0.26219   0.00000  Uiso   1.00
C283   C     0.48939   0.38938   0.25888   0.00000  Uiso   1.00
C284   C     0.51029   0.61105   0.24128   0.00000  Uiso   1.00
C285   C     0.52134   0.47902   0.14376   0.00000  Uiso   1.00
C286   C     0.47778   0.52005   0.35655   0.00000  Uiso   1.00
C287   C     0.46157   0.52010   0.40024   0.00000  Uiso   1.00
C288   C     0.53206   0.46933   0.10067   0.00000  Uiso   1.00
C289   C     0.40266   0.51595   0.46078   0.00000  Uiso   1.00
C290   C     0.60133   0.40899   0.10320   0.00000  Uiso   1.00
C291   C     0.48842   0.50723   0.41993   0.00000  Uiso   1.00
C292   C     0.52383   0.41188   0.40532   0.00000  Uiso   1.00
C293   C     0.47196   0.49385   0.45830   0.00000  Uiso   1.00
C294   C     0.42878   0.49988   0.47911   0.00000  Uiso   1.00
C295   C     0.49730   0.47550   0.47692   0.00000  Uiso   1.00
C296   C     0.48161   0.47146   0.01837   0.00000  Uiso   1.00
C297   C     0.43670   0.47314   0.03693   0.00000  Uiso   1.00
C298   C     0.41128   0.48797   0.01742   0.00000  Uiso   1.00
H299   H     0.37717   0.48926   0.03203   0.00000  Uiso   1.00
H300   H     0.56859   0.39513   0.11945   0.00000  Uiso   1.00
H301   H     0.62381   0.40616   0.12077   0.00000  Uiso   1.00
H302   H     0.48850   0.41431   0.41448   0.00000  Uiso   1.00
H303   H     0.53079   0.38578   0.41898   0.00000  Uiso   1.00
H304   H     0.53369   0.40420   0.37265   0.00000  Uiso   1.00
H305   H     0.61428   0.44001   0.02289   0.00000  Uiso   1.00
H306   H     0.65122   0.47487   0.28598   0.00000  Uiso   1.00
H307   H     0.54154   0.33624   0.21560   0.00000  Uiso   1.00
H308   H     0.45772   0.66541   0.28460   0.00000  Uiso   1.00
H309   H     0.47452   0.48982   0.09729   0.00000  Uiso   1.00
H310   H     0.36933   0.51976   0.47669   0.00000  Uiso   1.00
H311   H     0.52227   0.50768   0.40439   0.00000  Uiso   1.00
H312   H     0.61272   0.39106   0.07372   0.00000  Uiso   1.00
I313   I     0.37162   0.54159   0.18992   0.00000  Uiso   1.00
I314   I     0.62458   0.42814   0.44082   0.00000  Uiso   1.00
I315   I     0.37205   0.54348   0.39686   0.00000  Uiso   1.00
I316   I     0.40016   0.44234   0.08798   0.00000  Uiso   1.00
O317   O     0.50000   0.50000   0.25000   0.00000  Uiso   1.00
O318   O     0.49027   0.45726   0.16625   0.00000  Uiso   1.00
O319   O     0.46020   0.53979   0.33749   0.00000  Uiso   1.00
O320   O     0.54421   0.50826   0.15877   0.00000  Uiso   1.00
O321   O     0.50532   0.49468   0.33749   0.00000  Uiso   1.00
O322   O     0.60187   0.45164   0.09937   0.00000  Uiso   1.00
O323   O     0.54760   0.44993   0.41472   0.00000  Uiso   1.00
O324   O     0.51182   0.41434   0.27821   0.00000  Uiso   1.00
O325   O     0.47914   0.59469   0.26767   0.00000  Uiso   1.00
O326   O     0.40785   0.46584   0.23607   0.00000  Uiso   1.00
O327   O     0.60119   0.52512   0.21806   0.00000  Uiso   1.00
O328   O     0.40323   0.52293   0.27820   0.00000  Uiso   1.00
O329   O     0.58773   0.48610   0.26768   0.00000  Uiso   1.00
O330   O     0.47133   0.40236   0.23607   0.00000  Uiso   1.00
O331   O     0.53771   0.58860   0.21806   0.00000  Uiso   1.00
Zn332  Zn    0.52577   0.47423   0.28278   0.00000  Uiso   1.00
Zn333  Zn    0.46792   0.45711   0.22258   0.00000  Uiso   1.00
Zn334  Zn    0.54500   0.52997   0.21188   0.00000  Uiso   1.00
Zn335  Zn    0.46131   0.53868   0.28277   0.00000  Uiso   1.00
C336   C     0.71907   0.49289   0.25917   0.00000  Uiso   1.00
C337   C     0.86991   0.45887   0.45554   0.00000  Uiso   1.00
C338   C     0.89777   0.44906   0.47578   0.00000  Uiso   1.00
C339   C     0.94788   0.50684   0.24104   0.00000  Uiso   1.00
C340   C     0.88629   0.45406   0.01752   0.00000  Uiso   1.00
C341   C     0.84471   0.46543   0.03908   0.00000  Uiso   1.00
C342   C     0.91576   0.44863   0.03826   0.00000  Uiso   1.00
C343   C     0.90517   0.45535   0.07966   0.00000  Uiso   1.00
C344   C     0.83600   0.47494   0.08050   0.00000  Uiso   1.00
C345   C     0.99404   0.50924   0.23671   0.00000  Uiso   1.00
C346   C     0.67391   0.49100   0.26205   0.00000  Uiso   1.00
C347   C     0.75155   0.52524   0.42140   0.00000  Uiso   1.00
C348   C     0.84779   0.65555   0.23794   0.00000  Uiso   1.00
C349   C     0.81850   0.34537   0.26219   0.00000  Uiso   1.00
C350   C     0.82273   0.38938   0.25888   0.00000  Uiso   1.00
C351   C     0.84362   0.61105   0.24128   0.00000  Uiso   1.00
C352   C     0.85467   0.47902   0.14376   0.00000  Uiso   1.00
C353   C     0.81112   0.52005   0.35655   0.00000  Uiso   1.00
C354   C     0.79490   0.52010   0.40024   0.00000  Uiso   1.00
C355   C     0.86539   0.46933   0.10067   0.00000  Uiso   1.00
C356   C     0.73600   0.51595   0.46078   0.00000  Uiso   1.00
C357   C     0.93467   0.40899   0.10320   0.00000  Uiso   1.00
C358   C     0.82175   0.50723   0.41993   0.00000  Uiso   1.00
C359   C     0.85716   0.41188   0.40532   0.00000  Uiso   1.00
C360   C     0.80529   0.49385   0.45830   0.00000  Uiso   1.00
C361   C     0.76211   0.49988   0.47911   0.00000  Uiso   1.00
C362   C     0.83063   0.47550   0.47692   0.00000  Uiso   1.00
C363   C     0.81494   0.47146   0.01837   0.00000  Uiso   1.00
C364   C     0.77003   0.47314   0.03693   0.00000  Uiso   1.00
C365   C     0.74461   0.48797   0.01742   0.00000  Uiso   1.00
H366   H     0.71050   0.48926   0.03203   0.00000  Uiso   1.00
H367   H     0.90192   0.39513   0.11945   0.00000  Uiso   1.00
H368   H     0.95714   0.40616   0.12077   0.00000  Uiso   1.00
H369   H     0.82183   0.41431   0.41448   0.00000  Uiso   1.00
H370   H     0.86413   0.38578   0.41898   0.00000  Uiso   1.00
H371   H     0.86702   0.40420   0.37265   0.00000  Uiso   1.00
H372   H     0.94761   0.44001   0.02289   0.00000  Uiso   1.00
H373   H     0.98456   0.47487   0.28598   0.00000  Uiso   1.00
H374   H     0.87487   0.33624   0.21560   0.00000  Uiso   1.00
H375   H     0.79105   0.66541   0.28460   0.00000  Uiso   1.00
H376   H     0.80785   0.48982   0.09729   0.00000  Uiso   1.00
H377   H     0.70267   0.51976   0.47669   0.00000  Uiso   1.00
H378   H     0.85561   0.50768   0.40439   0.00000  Uiso   1.00
H379   H     0.94605   0.39106   0.07372   0.00000  Uiso   1.00
I380   I     0.70496   0.54159   0.18992   0.00000  Uiso   1.00
I381   I     0.95792   0.42814   0.44082   0.00000  Uiso   1.00
I382   I     0.70539   0.54348   0.39686   0.00000  Uiso   1.00
I383   I     0.73349   0.44234   0.08798   0.00000  Uiso   1.00
O384   O     0.83333   0.50000   0.25000   0.00000  Uiso   1.00
O385   O     0.82360   0.45726   0.16625   0.00000  Uiso   1.00
O386   O     0.79354   0.53979   0.33749   0.00000  Uiso   1.00
O387   O     0.87755   0.50826   0.15877   0.00000  Uiso   1.00
O388   O     0.83865   0.49468   0.33749   0.00000  Uiso   1.00
O389   O     0.93520   0.45164   0.09937   0.00000  Uiso   1.00
O390   O     0.88093   0.44993   0.41472   0.00000  Uiso   1.00
O391   O     0.84515   0.41434   0.27821   0.00000  Uiso   1.00
O392   O     0.81247   0.59469   0.26767   0.00000  Uiso   1.00
O393   O     0.74119   0.46584   0.23607   0.00000  Uiso   1.00
O394   O     0.93452   0.52512   0.21806   0.00000  Uiso   1.00
O395   O     0.73656   0.52293   0.27820   0.00000  Uiso   1.00
O396   O     0.92106   0.48610   0.26768   0.00000  Uiso   1.00
O397   O     0.80467   0.40236   0.23607   0.00000  Uiso   1.00
O398   O     0.87104   0.58860   0.21806   0.00000  Uiso   1.00
Zn399  Zn    0.85910   0.47423   0.28278   0.00000  Uiso   1.00
Zn400  Zn    0.80125   0.45711   0.22258   0.00000  Uiso   1.00
Zn401  Zn    0.87833   0.52997   0.21188   0.00000  Uiso   1.00
Zn402  Zn    0.79465   0.53868   0.28277   0.00000  Uiso   1.00
C403   C     0.05240   0.82623   0.25917   0.00000  Uiso   1.00
C404   C     0.20324   0.79221   0.45554   0.00000  Uiso   1.00
C405   C     0.23110   0.78239   0.47578   0.00000  Uiso   1.00
C406   C     0.28121   0.84017   0.24104   0.00000  Uiso   1.00
C407   C     0.21962   0.78739   0.01752   0.00000  Uiso   1.00
C408   C     0.17805   0.79876   0.03908   0.00000  Uiso   1.00
C409   C     0.24910   0.78196   0.03826   0.00000  Uiso   1.00
C410   C     0.23850   0.78868   0.07966   0.00000  Uiso   1.00
C411   C     0.16934   0.80827   0.08050   0.00000  Uiso   1.00
C412   C     0.32737   0.84258   0.23671   0.00000  Uiso   1.00
C413   C     0.00725   0.82433   0.26205   0.00000  Uiso   1.00
C414   C     0.08488   0.85857   0.42140   0.00000  Uiso   1.00
C415   C     0.18112   0.98888   0.23794   0.00000  Uiso   1.00
C416   C     0.15183   0.67870   0.26219   0.00000  Uiso   1.00
C417   C     0.15606   0.72271   0.25888   0.00000  Uiso   1.00
C418   C     0.17696   0.94439   0.24128   0.00000  Uiso   1.00
C419   C     0.18800   0.81235   0.14376   0.00000  Uiso   1.00
C420   C     0.14445   0.85338   0.35655   0.00000  Uiso   1.00
C421   C     0.12823   0.85344   0.40024   0.00000  Uiso   1.00
C422   C     0.19873   0.80266   0.10067   0.00000  Uiso   1.00
C423   C     0.06933   0.84928   0.46078   0.00000  Uiso   1.00
C424   C     0.26800   0.74233   0.10320   0.00000  Uiso   1.00
C425   C     0.15508   0.84056   0.41993   0.00000  Uiso   1.00
C426   C     0.19050   0.74521   0.40532   0.00000  Uiso   1.00
C427   C     0.13863   0.82719   0.45830   0.00000  Uiso   1.00
C428   C     0.09545   0.83322   0.47911   0.00000  Uiso   1.00
C429   C     0.16396   0.80883   0.47692   0.00000  Uiso   1.00
C430   C     0.14828   0.80480   0.01837   0.00000  Uiso   1.00
C431   C     0.10336   0.80647   0.03693   0.00000  Uiso   1.00
C432   C     0.07794   0.82130   0.01742   0.00000  Uiso   1.00
H433   H     0.04384   0.82260   0.03203   0.00000  Uiso   1.00
H434   H     0.23526   0.72846   0.11945   0.00000  Uiso   1.00
H435   H     0.29047   0.73949   0.12077   0.00000  Uiso   1.00
H436   H     0.15516   0.74765   0.41448   0.00000  Uiso   1.00
H437   H     0.19746   0.71911   0.41898   0.00000  Uiso   1.00
H438   H     0.20035   0.73754   0.37265   0.00000  Uiso   1.00
H439   H     0.28094   0.77334   0.02289   0.00000  Uiso   1.00
H440   H     0.31789   0.80821   0.28598   0.00000  Uiso   1.00
H441   H     0.20820   0.66957   0.21560   0.00000  Uiso   1.00
H442   H     0.12439   0.99875   0.28460   0.00000  Uiso   1.00
H443   H     0.14118   0.82316   0.09729   0.00000  Uiso   1.00
H444   H     0.03600   0.85310   0.47669   0.00000  Uiso   1.00
H445   H     0.18894   0.84102   0.40439   0.00000  Uiso   1.00
H446   H     0.27938   0.72440   0.07372   0.00000  Uiso   1.00
I447   I     0.03829   0.87492   0.18992   0.00000  Uiso   1.00
I448   I     0.29125   0.76147   0.44082   0.00000  Uiso   1.00
I449   I     0.03872   0.87681   0.39686   0.00000  Uiso   1.00
I450   I     0.06683   0.77568   0.08798   0.00000  Uiso   1.00
O451   O     0.16667   0.83333   0.25000   0.00000  Uiso   1.00
O452   O     0.15693   0.79060   0.16625   0.00000  Uiso   1.00
O453   O     0.12687   0.87313   0.33749   0.00000  Uiso   1.00
O454   O     0.21088   0.84159   0.15877   0.00000  Uiso   1.00
O455   O     0.17198   0.82802   0.33749   0.00000  Uiso   1.00
O456   O     0.26854   0.78497   0.09937   0.00000  Uiso   1.00
O457   O     0.21426   0.78326   0.41472   0.00000  Uiso   1.00
O458   O     0.17849   0.74768   0.27821   0.00000  Uiso   1.00
O459   O     0.14581   0.92803   0.26767   0.00000  Uiso   1.00
O460   O     0.07452   0.79917   0.23607   0.00000  Uiso   1.00
O461   O     0.26785   0.85845   0.21806   0.00000  Uiso   1.00
O462   O     0.06990   0.85627   0.27820   0.00000  Uiso   1.00
O463   O     0.25440   0.81944   0.26768   0.00000  Uiso   1.00
O464   O     0.13800   0.73570   0.23607   0.00000  Uiso   1.00
O465   O     0.20437   0.92193   0.21806   0.00000  Uiso   1.00
Zn466  Zn    0.19244   0.80756   0.28278   0.00000  Uiso   1.00
Zn467  Zn    0.13459   0.79044   0.22258   0.00000  Uiso   1.00
Zn468  Zn    0.21166   0.86331   0.21188   0.00000  Uiso   1.00
Zn469  Zn    0.12798   0.87202   0.28277   0.00000  Uiso   1.00
C470   C     0.38574   0.82623   0.25917   0.00000  Uiso   1.00
C471   C     0.53658   0.79221   0.45554   0.00000  Uiso   1.00
C472   C     0.56443   0.78239   0.47578   0.00000  Uiso   1.00
C473   C     0.61454   0.84017   0.24104   0.00000  Uiso   1.00
C474   C     0.55295   0.78739   0.01752   0.00000  Uiso   1.00
C475   C     0.51138   0.79876   0.03908   0.00000  Uiso   1.00
C476   C     0.58243   0.78196   0.03826   0.00000  Uiso   1.00
C477   C     0.57183   0.78868   0.07966   0.00000  Uiso   1.00
C478   C     0.50267   0.80827   0.08050   0.00000  Uiso   1.00
C479   C     0.66070   0.84258   0.23671   0.00000  Uiso   1.00
C480   C     0.34058   0.82433   0.26205   0.00000  Uiso   1.00
C481   C     0.41822   0.85857   0.42140   0.00000  Uiso   1.00
C482   C     0.51446   0.98888   0.23794   0.00000  Uiso   1.00
C483   C     0.48517   0.67870   0.26219   0.00000  Uiso   1.00
C484   C     0.48939   0.72271   0.25888   0.00000  Uiso   1.00
C485   C     0.51029   0.94439   0.24128   0.00000  Uiso   1.00
C486   C     0.52134   0.81235   0.14376   0.00000  Uiso   1.00
C487   C     0.47778   0.85338   0.35655   0.00000  Uiso   1.00
C488   C     0.46157   0.85344   0.40024   0.00000  Uiso   1.00
C489   C     0.53206   0.80266   0.10067   0.00000  Uiso   1.00
C490   C     0.40266   0.84928   0.46078   0.00000  Uiso   1.00
C491   C     0.60133   0.74233   0.10320   0.00000  Uiso   1.00
C492   C     0.48842   0.84056   0.41993   0.00000  Uiso   1.00
C493   C     0.52383   0.74521   0.40532   0.00000  Uiso   1.00
C494   C     0.47196   0.82719   0.45830   0.00000  Uiso   1.00
C495   C     0.42878   0.83322   0.47911   0.00000  Uiso   1.00
C496   C     0.49730   0.80883   0.47692   0.00000  Uiso   1.00
C497   C     0.48161   0.80480   0.01837   0.00000  Uiso   1.00
C498   C     0.43670   0.80647   0.03693   0.00000  Uiso   1.00
C499   C     0.41128   0.82130   0.01742   0.00000  Uiso   1.00
H500   H     0.37717   0.82260   0.03203   0.00000  Uiso   1.00
H501   H     0.56859   0.72846   0.11945   0.00000  Uiso   1.00
H502   H     0.62381   0.73949   0.12077   0.00000  Uiso   1.00
H503   H     0.48850   0.74765   0.41448   0.00000  Uiso   1.00
H504   H     0.53079   0.71911   0.41898   0.00000  Uiso   1.00
H505   H     0.53369   0.73754   0.37265   0.00000  Uiso   1.00
H506   H     0.61428   0.77334   0.02289   0.00000  Uiso   1.00
H507   H     0.65122   0.80821   0.28598   0.00000  Uiso   1.00
H508   H     0.54154   0.66957   0.21560   0.00000  Uiso   1.00
H509   H     0.45772   0.99875   0.28460   0.00000  Uiso   1.00
H510   H     0.47452   0.82316   0.09729   0.00000  Uiso   1.00
H511   H     0.36933   0.85310   0.47669   0.00000  Uiso   1.00
H512   H     0.52227   0.84102   0.40439   0.00000  Uiso   1.00
H513   H     0.61272   0.72440   0.07372   0.00000  Uiso   1.00
I514   I     0.37162   0.87492   0.18992   0.00000  Uiso   1.00
I515   I     0.62458   0.76147   0.44082   0.00000  Uiso   1.00
I516   I     0.37205   0.87681   0.39686   0.00000  Uiso   1.00
I517   I     0.40016   0.77568   0.08798   0.00000  Uiso   1.00
O518   O     0.50000   0.83333   0.25000   0.00000  Uiso   1.00
O519   O     0.49027   0.79060   0.16625   0.00000  Uiso   1.00
O520   O     0.46020   0.87313   0.33749   0.00000  Uiso   1.00
O521   O     0.54421   0.84159   0.15877   0.00000  Uiso   1.00
O522   O     0.50532   0.82802   0.33749   0.00000  Uiso   1.00
O523   O     0.60187   0.78497   0.09937   0.00000  Uiso   1.00
O524   O     0.54760   0.78326   0.41472   0.00000  Uiso   1.00
O525   O     0.51182   0.74768   0.27821   0.00000  Uiso   1.00
O526   O     0.47914   0.92803   0.26767   0.00000  Uiso   1.00
O527   O     0.40785   0.79917   0.23607   0.00000  Uiso   1.00
O528   O     0.60119   0.85845   0.21806   0.00000  Uiso   1.00
O529   O     0.40323   0.85627   0.27820   0.00000  Uiso   1.00
O530   O     0.58773   0.81944   0.26768   0.00000  Uiso   1.00
O531   O     0.47133   0.73570   0.23607   0.00000  Uiso   1.00
O532   O     0.53771   0.92193   0.21806   0.00000  Uiso   1.00
Zn533  Zn    0.52577   0.80756   0.28278   0.00000  Uiso   1.00
Zn534  Zn    0.46792   0.79044   0.22258   0.00000  Uiso   1.00
Zn535  Zn    0.54500   0.86331   0.21188   0.00000  Uiso   1.00
Zn536  Zn    0.46131   0.87202   0.28277   0.00000  Uiso   1.00
C537   C     0.71907   0.82623   0.25917   0.00000  Uiso   1.00
C538   C     0.86991   0.79221   0.45554   0.00000  Uiso   1.00
C539   C     0.89777   0.78239   0.47578   0.00000  Uiso   1.00
C540   C     0.94788   0.84017   0.24104   0.00000  Uiso   1.00
C541   C     0.88629   0.78739   0.01752   0.00000  Uiso   1.00
C542   C     0.84471   0.79876   0.03908   0.00000  Uiso   1.00
C543   C     0.91576   0.78196   0.03826   0.00000  Uiso   1.00
C544   C     0.90517   0.78868   0.07966   0.00000  Uiso   1.00
C545   C     0.83600   0.80827   0.08050   0.00000  Uiso   1.00
C546   C     0.99404   0.84258   0.23671   0.00000  Uiso   1.00
C547   C     0.67391   0.82433   0.26205   0.00000  Uiso   1.00
C548   C     0.75155   0.85857   0.42140   0.00000  Uiso   1.00
C549   C     0.84779   0.98888   0.23794   0.00000  Uiso   1.00
C550   C     0.81850   0.67870   0.26219   0.00000  Uiso   1.00
C551   C     0.82273   0.72271   0.25888   0.00000  Uiso   1.00
C552   C     0.84362   0.94439   0.24128   0.00000  Uiso   1.00
C553   C     0.85467   0.81235   0.14376   0.00000  Uiso   1.00
C554   C     0.81112   0.85338   0.35655   0.00000  Uiso   1.00
C555   C     0.79490   0.85344   0.40024   0.00000  Uiso   1.00
C556   C     0.86539   0.80266   0.10067   0.00000  Uiso   1.00
C557   C     0.73600   0.84928   0.46078   0.00000  Uiso   1.00
C558   C     0.93467   0.74233   0.10320   0.00000  Uiso   1.00
C559   C     0.82175   0.84056   0.41993   0.00000  Uiso   1.00
C560   C     0.85716   0.74521   0.40532   0.00000  Uiso   1.00
C561   C     0.80529   0.82719   0.45830   0.00000  Uiso   1.00
C562   C     0.76211   0.83322   0.47911   0.00000  Uiso   1.00
C563   C     0.83063   0.80883   0.47692   0.00000  Uiso   1.00
C564   C     0.81494   0.80480   0.01837   0.00000  Uiso   1.00
C565   C     0.77003   0.80647   0.03693   0.00000  Uiso   1.00
C566   C     0.74461   0.82130   0.01742   0.00000  Uiso   1.00
H567   H     0.71050   0.82260   0.03203   0.00000  Uiso   1.00
H568   H     0.90192   0.72846   0.11945   0.00000  Uiso   1.00
H569   H     0.95714   0.73949   0.12077   0.00000  Uiso   1.00
H570   H     0.82183   0.74765   0.41448   0.00000  Uiso   1.00
H571   H     0.86413   0.71911   0.41898   0.00000  Uiso   1.00
H572   H     0.86702   0.73754   0.37265   0.00000  Uiso   1.00
H573   H     0.94761   0.77334   0.02289   0.00000  Uiso   1.00
H574   H     0.98456   0.80821   0.28598   0.00000  Uiso   1.00
H575   H     0.87487   0.66957   0.21560   0.00000  Uiso   1.00
H576   H     0.79105   0.99875   0.28460   0.00000  Uiso   1.00
H577   H     0.80785   0.82316   0.09729   0.00000  Uiso   1.00
H578   H     0.70267   0.85310   0.47669   0.00000  Uiso   1.00
H579   H     0.85561   0.84102   0.40439   0.00000  Uiso   1.00
H580   H     0.94605   0.72440   0.07372   0.00000  Uiso   1.00
I581   I     0.70496   0.87492   0.18992   0.00000  Uiso   1.00
I582   I     0.95792   0.76147   0.44082   0.00000  Uiso   1.00
I583   I     0.70539   0.87681   0.39686   0.00000  Uiso   1.00
I584   I     0.73349   0.77568   0.08798   0.00000  Uiso   1.00
O585   O     0.83333   0.83333   0.25000   0.00000  Uiso   1.00
O586   O     0.82360   0.79060   0.16625   0.00000  Uiso   1.00
O587   O     0.79354   0.87313   0.33749   0.00000  Uiso   1.00
O588   O     0.87755   0.84159   0.15877   0.00000  Uiso   1.00
O589   O     0.83865   0.82802   0.33749   0.00000  Uiso   1.00
O590   O     0.93520   0.78497   0.09937   0.00000  Uiso   1.00
O591   O     0.88093   0.78326   0.41472   0.00000  Uiso   1.00
O592   O     0.84515   0.74768   0.27821   0.00000  Uiso   1.00
O593   O     0.81247   0.92803   0.26767   0.00000  Uiso   1.00
O594   O     0.74119   0.79917   0.23607   0.00000  Uiso   1.00
O595   O     0.93452   0.85845   0.21806   0.00000  Uiso   1.00
O596   O     0.73656   0.85627   0.27820   0.00000  Uiso   1.00
O597   O     0.92106   0.81944   0.26768   0.00000  Uiso   1.00
O598   O     0.80467   0.73570   0.23607   0.00000  Uiso   1.00
O599   O     0.87104   0.92193   0.21806   0.00000  Uiso   1.00
Zn600  Zn    0.85910   0.80756   0.28278   0.00000  Uiso   1.00
Zn601  Zn    0.80125   0.79044   0.22258   0.00000  Uiso   1.00
Zn602  Zn    0.87833   0.86331   0.21188   0.00000  Uiso   1.00
Zn603  Zn    0.79465   0.87202   0.28277   0.00000  Uiso   1.00
C604   C     0.05240   0.15956   0.75917   0.00000  Uiso   1.00
C605   C     0.20324   0.12554   0.95554   0.00000  Uiso   1.00
C606   C     0.23110   0.11572   0.97578   0.00000  Uiso   1.00
C607   C     0.28121   0.17350   0.74104   0.00000  Uiso   1.00
C608   C     0.21962   0.12073   0.51752   0.00000  Uiso   1.00
C609   C     0.17805   0.13209   0.53908   0.00000  Uiso   1.00
C610   C     0.24910   0.11530   0.53826   0.00000  Uiso   1.00
C611   C     0.23850   0.12202   0.57966   0.00000  Uiso   1.00
C612   C     0.16934   0.14161   0.58050   0.00000  Uiso   1.00
C613   C     0.32737   0.17591   0.73671   0.00000  Uiso   1.00
C614   C     0.00725   0.15766   0.76205   0.00000  Uiso   1.00
C615   C     0.08488   0.19190   0.92140   0.00000  Uiso   1.00
C616   C     0.18112   0.32222   0.73794   0.00000  Uiso   1.00
C617   C     0.15183   0.01203   0.76219   0.00000  Uiso   1.00
C618   C     0.15606   0.05604   0.75888   0.00000  Uiso   1.00
C619   C     0.17696   0.27772   0.74128   0.00000  Uiso   1.00
C620   C     0.18800   0.14569   0.64376   0.00000  Uiso   1.00
C621   C     0.14445   0.18672   0.85655   0.00000  Uiso   1.00
C622   C     0.12823   0.18677   0.90024   0.00000  Uiso   1.00
C623   C     0.19873   0.13600   0.60067   0.00000  Uiso   1.00
C624   C     0.06933   0.18261   0.96078   0.00000  Uiso   1.00
C625   C     0.26800   0.07566   0.60320   0.00000  Uiso   1.00
C626   C     0.15508   0.17389   0.91993   0.00000  Uiso   1.00
C627   C     0.19050   0.07854   0.90532   0.00000  Uiso   1.00
C628   C     0.13863   0.16052   0.95830   0.00000  Uiso   1.00
C629   C     0.09545   0.16655   0.97911   0.00000  Uiso   1.00
C630   C     0.16396   0.14216   0.97692   0.00000  Uiso   1.00
C631   C     0.14828   0.13813   0.51837   0.00000  Uiso   1.00
C632   C     0.10336   0.13980   0.53693   0.00000  Uiso   1.00
C633   C     0.07794   0.15464   0.51742   0.00000  Uiso   1.00
H634   H     0.04384   0.15593   0.53203   0.00000  Uiso   1.00
H635   H     0.23526   0.06180   0.61945   0.00000  Uiso   1.00
H636   H     0.29047   0.07282   0.62077   0.00000  Uiso   1.00
H637   H     0.15516   0.08098   0.91448   0.00000  Uiso   1.00
H638   H     0.19746   0.05245   0.91898   0.00000  Uiso   1.00
H639   H     0.20035   0.07087   0.87265   0.00000  Uiso   1.00
H640   H     0.28094   0.10667   0.52289   0.00000  Uiso   1.00
H641   H     0.31789   0.14154   0.78598   0.00000  Uiso   1.00
H642   H     0.20820   0.00290   0.71560   0.00000  Uiso   1.00
H643   H     0.12439   0.33208   0.78460   0.00000  Uiso   1.00
H644   H     0.14118   0.15649   0.59729   0.00000  Uiso   1.00
H645   H     0.03600   0.18643   0.97669   0.00000  Uiso   1.00
H646   H     0.18894   0.17435   0.90439   0.00000  Uiso   1.00
H647   H     0.27938   0.05773   0.57372   0.00000  Uiso   1.00
I648   I     0.03829   0.20826   0.68992   0.00000  Uiso   1.00
I649   I     0.29125   0.09480   0.94082   0.00000  Uiso   1.00
I650   I     0.03872   0.21015   0.89686   0.00000  Uiso   1.00
I651   I     0.06683   0.10901   0.58798   0.00000  Uiso   1.00
O652   O     0.16667   0.16667   0.75000   0.00000  Uiso   1.00
O653   O     0.15693   0.12393   0.66625   0.00000  Uiso   1.00
O654   O     0.12687   0.20646   0.83749   0.00000  Uiso   1.00
O655   O     0.21088   0.17493   0.65877   0.00000  Uiso   1.00
O656   O     0.17198   0.16135   0.83749   0.00000  Uiso   1.00
O657   O     0.26854   0.11830   0.59937   0.00000  Uiso   1.00
O658   O     0.21426   0.11660   0.91472   0.00000  Uiso   1.00
O659   O     0.17849   0.08101   0.77821   0.00000  Uiso   1.00
O660   O     0.14581   0.26136   0.76767   0.00000  Uiso   1.00
O661   O     0.07452   0.13251   0.73607   0.00000  Uiso   1.00
O662   O     0.26785   0.19179   0.71806   0.00000  Uiso   1.00
O663   O     0.06990   0.18960   0.77820   0.00000  Uiso   1.00
O664   O     0.25440   0.15277   0.76768   0.00000  Uiso   1.00
O665   O     0.13800   0.06903   0.73607   0.00000  Uiso   1.00
O666   O     0.20437   0.25527   0.71806   0.00000  Uiso   1.00
Zn667  Zn    0.19244   0.14090   0.78278   0.00000  Uiso   1.00
Zn668  Zn    0.13459   0.12378   0.72258   0.00000  Uiso   1.00
Zn669  Zn    0.21166   0.19664   0.71188   0.00000  Uiso   1.00
Zn670  Zn    0.12798   0.20535   0.78277   0.00000  Uiso   1.00
C671   C     0.38574   0.15956   0.75917   0.00000  Uiso   1.00
C672   C     0.53658   0.12554   0.95554   0.00000  Uiso   1.00
C673   C     0.56443   0.11572   0.97578   0.00000  Uiso   1.00
C674   C     0.61454   0.17350   0.74104   0.00000  Uiso   1.00
C675   C     0.55295   0.12073   0.51752   0.00000  Uiso   1.00
C676   C     0.51138   0.13209   0.53908   0.00000  Uiso   1.00
C677   C     0.58243   0.11530   0.53826   0.00000  Uiso   1.00
C678   C     0.57183   0.12202   0.57966   0.00000  Uiso   1.00
C679   C     0.50267   0.14161   0.58050   0.00000  Uiso   1.00
C680   C     0.66070   0.17591   0.73671   0.00000  Uiso   1.00
C681   C     0.34058   0.15766   0.76205   0.00000  Uiso   1.00
C682   C     0.41822   0.19190   0.92140   0.00000  Uiso   1.00
C683   C     0.51446   0.32222   0.73794   0.00000  Uiso   1.00
C684   C     0.48517   0.01203   0.76219   0.00000  Uiso   1.00
C685   C     0.48939   0.05604   0.75888   0.00000  Uiso   1.00
C686   C     0.51029   0.27772   0.74128   0.00000  Uiso   1.00
C687   C     0.52134   0.14569   0.64376   0.00000  Uiso   1.00
C688   C     0.47778   0.18672   0.85655   0.00000  Uiso   1.00
C689   C     0.46157   0.18677   0.90024   0.00000  Uiso   1.00
C690   C     0.53206   0.13600   0.60067   0.00000  Uiso   1.00
C691   C     0.40266   0.18261   0.96078   0.00000  Uiso   1.00
C692   C     0.60133   0.07566   0.60320   0.00000  Uiso   1.00
C693   C     0.48842   0.17389   0.91993   0.00000  Uiso   1.00
C694   C     0.52383   0.07854   0.90532   0.00000  Uiso   1.00
C695   C     0.47196   0.16052   0.95830   0.00000  Uiso   1.00
C696   C     0.42878   0.16655   0.97911   0.00000  Uiso   1.00
C697   C     0.49730   0.14216   0.97692   0.00000  Uiso   1.00
C698   C     0.48161   0.13813   0.51837   0.00000  Uiso   1.00
C699   C     0.43670   0.13980   0.53693   0.00000  Uiso   1.00
C700   C     0.41128   0.15464   0.51742   0.00000  Uiso   1.00
H701   H     0.37717   0.15593   0.53203   0.00000  Uiso   1.00
H702   H     0.56859   0.06180   0.61945   0.00000  Uiso   1.00
H703   H     0.62381   0.07282   0.62077   0.00000  Uiso   1.00
H704   H     0.48850   0.08098   0.91448   0.00000  Uiso   1.00
H705   H     0.53079   0.05245   0.91898   0.00000  Uiso   1.00
H706   H     0.53369   0.07087   0.87265   0.00000  Uiso   1.00
H707   H     0.61428   0.10667   0.52289   0.00000  Uiso   1.00
H708   H     0.65122   0.14154   0.78598   0.00000  Uiso   1.00
H709   H     0.54154   0.00290   0.71560   0.00000  Uiso   1.00
H710   H     0.45772   0.33208   0.78460   0.00000  Uiso   1.00
H711   H     0.47452   0.15649   0.59729   0.00000  Uiso   1.00
H712   H     0.36933   0.18643   0.97669   0.00000  Uiso   1.00
H713   H     0.52227   0.17435   0.90439   0.00000  Uiso   1.00
H714   H     0.61272   0.05773   0.57372   0.00000  Uiso   1.00
I715   I     0.37162   0.20826   0.68992   0.00000  Uiso   1.00
I716   I     0.62458   0.09480   0.94082   0.00000  Uiso   1.00
I717   I     0.37205   0.21015   0.89686   0.00000  Uiso   1.00
I718   I     0.40016   0.10901   0.58798   0.00000  Uiso   1.00
O719   O     0.50000   0.16667   0.75000   0.00000  Uiso   1.00
O720   O     0.49027   0.12393   0.66625   0.00000  Uiso   1.00
O721   O     0.46020   0.20646   0.83749   0.00000  Uiso   1.00
O722   O     0.54421   0.17493   0.65877   0.00000  Uiso   1.00
O723   O     0.50532   0.16135   0.83749   0.00000  Uiso   1.00
O724   O     0.60187   0.11830   0.59937   0.00000  Uiso   1.00
O725   O     0.54760   0.11660   0.91472   0.00000  Uiso   1.00
O726   O     0.51182   0.08101   0.77821   0.00000  Uiso   1.00
O727   O     0.47914   0.26136   0.76767   0.00000  Uiso   1.00
O728   O     0.40785   0.13251   0.73607   0.00000  Uiso   1.00
O729   O     0.60119   0.19179   0.71806   0.00000  Uiso   1.00
O730   O     0.40323   0.18960   0.77820   0.00000  Uiso   1.00
O731   O     0.58773   0.15277   0.76768   0.00000  Uiso   1.00
O732   O     0.47133   0.06903   0.73607   0.00000  Uiso   1.00
O733   O     0.53771   0.25527   0.71806   0.00000  Uiso   1.00
Zn734  Zn    0.52577   0.14090   0.78278   0.00000  Uiso   1.00
Zn735  Zn    0.46792   0.12378   0.72258   0.00000  Uiso   1.00
Zn736  Zn    0.54500   0.19664   0.71188   0.00000  Uiso   1.00
Zn737  Zn    0.46131   0.20535   0.78277   0.00000  Uiso   1.00
C738   C     0.71907   0.15956   0.75917   0.00000  Uiso   1.00
C739   C     0.86991   0.12554   0.95554   0.00000  Uiso   1.00
C740   C     0.89777   0.11572   0.97578   0.00000  Uiso   1.00
C741   C     0.94788   0.17350   0.74104   0.00000  Uiso   1.00
C742   C     0.88629   0.12073   0.51752   0.00000  Uiso   1.00
C743   C     0.84471   0.13209   0.53908   0.00000  Uiso   1.00
C744   C     0.91576   0.11530   0.53826   0.00000  Uiso   1.00
C745   C     0.90517   0.12202   0.57966   0.00000  Uiso   1.00
C746   C     0.83600   0.14161   0.58050   0.00000  Uiso   1.00
C747   C     0.99404   0.17591   0.73671   0.00000  Uiso   1.00
C748   C     0.67391   0.15766   0.76205   0.00000  Uiso   1.00
C749   C     0.75155   0.19190   0.92140   0.00000  Uiso   1.00
C750   C     0.84779   0.32222   0.73794   0.00000  Uiso   1.00
C751   C     0.81850   0.01203   0.76219   0.00000  Uiso   1.00
C752   C     0.82273   0.05604   0.75888   0.00000  Uiso   1.00
C753   C     0.84362   0.27772   0.74128   0.00000  Uiso   1.00
C754   C     0.85467   0.14569   0.64376   0.00000  Uiso   1.00
C755   C     0.81112   0.18672   0.85655   0.00000  Uiso   1.00
C756   C     0.79490   0.18677   0.90024   0.00000  Uiso   1.00
C757   C     0.86539   0.13600   0.60067   0.00000  Uiso   1.00
C758   C     0.73600   0.18261   0.96078   0.00000  Uiso   1.00
C759   C     0.93467   0.07566   0.60320   0.00000  Uiso   1.00
C760   C     0.82175   0.17389   0.91993   0.00000  Uiso   1.00
C761   C     0.85716   0.07854   0.90532   0.00000  Uiso   1.00
C762   C     0.80529   0.16052   0.95830   0.00000  Uiso   1.00
C763   C     0.76211   0.16655   0.97911   0.00000  Uiso   1.00
C764   C     0.83063   0.14216   0.97692   0.00000  Uiso   1.00
C765   C     0.81494   0.13813   0.51837   0.00000  Uiso   1.00
C766   C     0.77003   0.13980   0.53693   0.00000  Uiso   1.00
C767   C     0.74461   0.15464   0.51742   0.00000  Uiso   1.00
H768   H     0.71050   0.15593   0.53203   0.00000  Uiso   1.00
H769   H     0.90192   0.06180   0.61945   0.00000  Uiso   1.00
H770   H     0.95714   0.07282   0.62077   0.00000  Uiso   1.00
H771   H     0.82183   0.08098   0.91448   0.00000  Uiso   1.00
H772   H     0.86413   0.05245   0.91898   0.00000  Uiso   1.00
H773   H     0.86702   0.07087   0.87265   0.00000  Uiso   1.00
H774   H     0.94761   0.10667   0.52289   0.00000  Uiso   1.00
H775   H     0.98456   0.14154   0.78598   0.00000  Uiso   1.00
H776   H     0.87487   0.00290   0.71560   0.00000  Uiso   1.00
H777   H     0.79105   0.33208   0.78460   0.00000  Uiso   1.00
H778   H     0.80785   0.15649   0.59729   0.00000  Uiso   1.00
H779   H     0.70267   0.18643   0.97669   0.00000  Uiso   1.00
H780   H     0.85561   0.17435   0.90439   0.00000  Uiso   1.00
H781   H     0.94605   0.05773   0.57372   0.00000  Uiso   1.00
I782   I     0.70496   0.20826   0.68992   0.00000  Uiso   1.00
I783   I     0.95792   0.09480   0.94082   0.00000  Uiso   1.00
I784   I     0.70539   0.21015   0.89686   0.00000  Uiso   1.00
I785   I     0.73349   0.10901   0.58798   0.00000  Uiso   1.00
O786   O     0.83333   0.16667   0.75000   0.00000  Uiso   1.00
O787   O     0.82360   0.12393   0.66625   0.00000  Uiso   1.00
O788   O     0.79354   0.20646   0.83749   0.00000  Uiso   1.00
O789   O     0.87755   0.17493   0.65877   0.00000  Uiso   1.00
O790   O     0.83865   0.16135   0.83749   0.00000  Uiso   1.00
O791   O     0.93520   0.11830   0.59937   0.00000  Uiso   1.00
O792   O     0.88093   0.11660   0.91472   0.00000  Uiso   1.00
O793   O     0.84515   0.08101   0.77821   0.00000  Uiso   1.00
O794   O     0.81247   0.26136   0.76767   0.00000  Uiso   1.00
O795   O     0.74119   0.13251   0.73607   0.00000  Uiso   1.00
O796   O     0.93452   0.19179   0.71806   0.00000  Uiso   1.00
O797   O     0.73656   0.18960   0.77820   0.00000  Uiso   1.00
O798   O     0.92106   0.15277   0.76768   0.00000  Uiso   1.00
O799   O     0.80467   0.06903   0.73607   0.00000  Uiso   1.00
O800   O     0.87104   0.25527   0.71806   0.00000  Uiso   1.00
Zn801  Zn    0.85910   0.14090   0.78278   0.00000  Uiso   1.00
Zn802  Zn    0.80125   0.12378   0.72258   0.00000  Uiso   1.00
Zn803  Zn    0.87833   0.19664   0.71188   0.00000  Uiso   1.00
Zn804  Zn    0.79465   0.20535   0.78277   0.00000  Uiso   1.00
C805   C     0.05240   0.49289   0.75917   0.00000  Uiso   1.00
C806   C     0.20324   0.45887   0.95554   0.00000  Uiso   1.00
C807   C     0.23110   0.44906   0.97578   0.00000  Uiso   1.00
C808   C     0.28121   0.50684   0.74104   0.00000  Uiso   1.00
C809   C     0.21962   0.45406   0.51752   0.00000  Uiso   1.00
C810   C     0.17805   0.46543   0.53908   0.00000  Uiso   1.00
C811   C     0.24910   0.44863   0.53826   0.00000  Uiso   1.00
C812   C     0.23850   0.45535   0.57966   0.00000  Uiso   1.00
C813   C     0.16934   0.47494   0.58050   0.00000  Uiso   1.00
C814   C     0.32737   0.50924   0.73671   0.00000  Uiso   1.00
C815   C     0.00725   0.49100   0.76205   0.00000  Uiso   1.00
C816   C     0.08488   0.52524   0.92140   0.00000  Uiso   1.00
C817   C     0.18112   0.65555   0.73794   0.00000  Uiso   1.00
C818   C     0.15183   0.34537   0.76219   0.00000  Uiso   1.00
C819   C     0.15606   0.38938   0.75888   0.00000  Uiso   1.00
C820   C     0.17696   0.61105   0.74128   0.00000  Uiso   1.00
C821   C     0.18800   0.47902   0.64376   0.00000  Uiso   1.00
C822   C     0.14445   0.52005   0.85655   0.00000  Uiso   1.00
C823   C     0.12823   0.52010   0.90024   0.00000  Uiso   1.00
C824   C     0.19873   0.46933   0.60067   0.00000  Uiso   1.00
C825   C     0.06933   0.51595   0.96078   0.00000  Uiso   1.00
C826   C     0.26800   0.40899   0.60320   0.00000  Uiso   1.00
C827   C     0.15508   0.50723   0.91993   0.00000  Uiso   1.00
C828   C     0.19050   0.41188   0.90532   0.00000  Uiso   1.00
C829   C     0.13863   0.49385   0.95830   0.00000  Uiso   1.00
C830   C     0.09545   0.49988   0.97911   0.00000  Uiso   1.00
C831   C     0.16396   0.47550   0.97692   0.00000  Uiso   1.00
C832   C     0.14828   0.47146   0.51837   0.00000  Uiso   1.00
C833   C     0.10336   0.47314   0.53693   0.00000  Uiso   1.00
C834   C     0.07794   0.48797   0.51742   0.00000  Uiso   1.00
H835   H     0.04384   0.48926   0.53203   0.00000  Uiso   1.00
H836   H     0.23526   0.39513   0.61945   0.00000  Uiso   1.00
H837   H     0.29047   0.40616   0.62077   0.00000  Uiso   1.00
H838   H     0.15516   0.41431   0.91448   0.00000  Uiso   1.00
H839   H     0.19746   0.38578   0.91898   0.00000  Uiso   1.00
H840   H     0.20035   0.40420   0.87265   0.00000  Uiso   1.00
H841   H     0.28094   0.44001   0.52289   0.00000  Uiso   1.00
H842   H     0.31789   0.47487   0.78598   0.00000  Uiso   1.00
H843   H     0.20820   0.33624   0.71560   0.00000  Uiso   1.00
H844   H     0.12439   0.66541   0.78460   0.00000  Uiso   1.00
H845   H     0.14118   0.48982   0.59729   0.00000  Uiso   1.00
H846   H     0.03600   0.51976   0.97669   0.00000  Uiso   1.00
H847   H     0.18894   0.50768   0.90439   0.00000  Uiso   1.00
H848   H     0.27938   0.39106   0.57372   0.00000  Uiso   1.00
I849   I     0.03829   0.54159   0.68992   0.00000  Uiso   1.00
I850   I     0.29125   0.42814   0.94082   0.00000  Uiso   1.00
I851   I     0.03872   0.54348   0.89686   0.00000  Uiso   1.00
I852   I     0.06683   0.44234   0.58798   0.00000  Uiso   1.00
O853   O     0.16667   0.50000   0.75000   0.00000  Uiso   1.00
O854   O     0.15693   0.45726   0.66625   0.00000  Uiso   1.00
O855   O     0.12687   0.53979   0.83749   0.00000  Uiso   1.00
O856   O     0.21088   0.50826   0.65877   0.00000  Uiso   1.00
O857   O     0.17198   0.49468   0.83749   0.00000  Uiso   1.00
O858   O     0.26854   0.45164   0.59937   0.00000  Uiso   1.00
O859   O     0.21426   0.44993   0.91472   0.00000  Uiso   1.00
O860   O     0.17849   0.41434   0.77821   0.00000  Uiso   1.00
O861   O     0.14581   0.59469   0.76767   0.00000  Uiso   1.00
O862   O     0.07452   0.46584   0.73607   0.00000  Uiso   1.00
O863   O     0.26785   0.52512   0.71806   0.00000  Uiso   1.00
O864   O     0.06990   0.52293   0.77820   0.00000  Uiso   1.00
O865   O     0.25440   0.48610   0.76768   0.00000  Uiso   1.00
O866   O     0.13800   0.40236   0.73607   0.00000  Uiso   1.00
O867   O     0.20437   0.58860   0.71806   0.00000  Uiso   1.00
Zn868  Zn    0.19244   0.47423   0.78278   0.00000  Uiso   1.00
Zn869  Zn    0.13459   0.45711   0.72258   0.00000  Uiso   1.00
Zn870  Zn    0.21166   0.52997   0.71188   0.00000  Uiso   1.00
Zn871  Zn    0.12798   0.53868   0.78277   0.00000  Uiso   1.00
C872   C     0.38574   0.49289   0.75917   0.00000  Uiso   1.00
C873   C     0.53658   0.45887   0.95554   0.00000  Uiso   1.00
C874   C     0.56443   0.44906   0.97578   0.00000  Uiso   1.00
C875   C     0.61454   0.50684   0.74104   0.00000  Uiso   1.00
C876   C     0.55295   0.45406   0.51752   0.00000  Uiso   1.00
C877   C     0.51138   0.46543   0.53908   0.00000  Uiso   1.00
C878   C     0.58243   0.44863   0.53826   0.00000  Uiso   1.00
C879   C     0.57183   0.45535   0.57966   0.00000  Uiso   1.00
C880   C     0.50267   0.47494   0.58050   0.00000  Uiso   1.00
C881   C     0.66070   0.50924   0.73671   0.00000  Uiso   1.00
C882   C     0.34058   0.49100   0.76205   0.00000  Uiso   1.00
C883   C     0.41822   0.52524   0.92140   0.00000  Uiso   1.00
C884   C     0.51446   0.65555   0.73794   0.00000  Uiso   1.00
C885   C     0.48517   0.34537   0.76219   0.00000  Uiso   1.00
C886   C     0.48939   0.38938   0.75888   0.00000  Uiso   1.00
C887   C     0.51029   0.61105   0.74128   0.00000  Uiso   1.00
C888   C     0.52134   0.47902   0.64376   0.00000  Uiso   1.00
C889   C     0.47778   0.52005   0.85655   0.00000  Uiso   1.00
C890   C     0.46157   0.52010   0.90024   0.00000  Uiso   1.00
C891   C     0.53206   0.46933   0.60067   0.00000  Uiso   1.00
C892   C     0.40266   0.51595   0.96078   0.00000  Uiso   1.00
C893   C     0.60133   0.40899   0.60320   0.00000  Uiso   1.00
C894   C     0.48842   0.50723   0.91993   0.00000  Uiso   1.00
C895   C     0.52383   0.41188   0.90532   0.00000  Uiso   1.00
C896   C     0.47196   0.49385   0.95830   0.00000  Uiso   1.00
C897   C     0.42878   0.49988   0.97911   0.00000  Uiso   1.00
C898   C     0.49730   0.47550   0.97692   0.00000  Uiso   1.00
C899   C     0.48161   0.47146   0.51837   0.00000  Uiso   1.00
C900   C     0.43670   0.47314   0.53693   0.00000  Uiso   1.00
C901   C     0.41128   0.48797   0.51742   0.00000  Uiso   1.00
H902   H     0.37717   0.48926   0.53203   0.00000  Uiso   1.00
H903   H     0.56859   0.39513   0.61945   0.00000  Uiso   1.00
H904   H     0.62381   0.40616   0.62077   0.00000  Uiso   1.00
H905   H     0.48850   0.41431   0.91448   0.00000  Uiso   1.00
H906   H     0.53079   0.38578   0.91898   0.00000  Uiso   1.00
H907   H     0.53369   0.40420   0.87265   0.00000  Uiso   1.00
H908   H     0.61428   0.44001   0.52289   0.00000  Uiso   1.00
H909   H     0.65122   0.47487   0.78598   0.00000  Uiso   1.00
H910   H     0.54154   0.33624   0.71560   0.00000  Uiso   1.00
H911   H     0.45772   0.66541   0.78460   0.00000  Uiso   1.00
H912   H     0.47452   0.48982   0.59729   0.00000  Uiso   1.00
H913   H     0.36933   0.51976   0.97669   0.00000  Uiso   1.00
H914   H     0.52227   0.50768   0.90439   0.00000  Uiso   1.00
H915   H     0.61272   0.39106   0.57372   0.00000  Uiso   1.00
I916   I     0.37162   0.54159   0.68992   0.00000  Uiso   1.00
I917   I     0.62458   0.42814   0.94082   0.00000  Uiso   1.00
I918   I     0.37205   0.54348   0.89686   0.00000  Uiso   1.00
I919   I     0.40016   0.44234   0.58798   0.00000  Uiso   1.00
O920   O     0.50000   0.50000   0.75000   0.00000  Uiso   1.00
O921   O     0.49027   0.45726   0.66625   0.00000  Uiso   1.00
O922   O     0.46020   0.53979   0.83749   0.00000  Uiso   1.00
O923   O     0.54421   0.50826   0.65877   0.00000  Uiso   1.00
O924   O     0.50532   0.49468   0.83749   0.00000  Uiso   1.00
O925   O     0.60187   0.45164   0.59937   0.00000  Uiso   1.00
O926   O     0.54760   0.44993   0.91472   0.00000  Uiso   1.00
O927   O     0.51182   0.41434   0.77821   0.00000  Uiso   1.00
O928   O     0.47914   0.59469   0.76767   0.00000  Uiso   1.00
O929   O     0.40785   0.46584   0.73607   0.00000  Uiso   1.00
O930   O     0.60119   0.52512   0.71806   0.00000  Uiso   1.00
O931   O     0.40323   0.52293   0.77820   0.00000  Uiso   1.00
O932   O     0.58773   0.48610   0.76768   0.00000  Uiso   1.00
O933   O     0.47133   0.40236   0.73607   0.00000  Uiso   1.00
O934   O     0.53771   0.58860   0.71806   0.00000  Uiso   1.00
Zn935  Zn    0.52577   0.47423   0.78278   0.00000  Uiso   1.00
Zn936  Zn    0.46792   0.45711   0.72258   0.00000  Uiso   1.00
Zn937  Zn    0.54500   0.52997   0.71188   0.00000  Uiso   1.00
Zn938  Zn    0.46131   0.53868   0.78277   0.00000  Uiso   1.00
C939   C     0.71907   0.49289   0.75917   0.00000  Uiso   1.00
C940   C     0.86991   0.45887   0.95554   0.00000  Uiso   1.00
C941   C     0.89777   0.44906   0.97578   0.00000  Uiso   1.00
C942   C     0.94788   0.50684   0.74104   0.00000  Uiso   1.00
C943   C     0.88629   0.45406   0.51752   0.00000  Uiso   1.00
C944   C     0.84471   0.46543   0.53908   0.00000  Uiso   1.00
C945   C     0.91576   0.44863   0.53826   0.00000  Uiso   1.00
C946   C     0.90517   0.45535   0.57966   0.00000  Uiso   1.00
C947   C     0.83600   0.47494   0.58050   0.00000  Uiso   1.00
C948   C     0.99404   0.50924   0.73671   0.00000  Uiso   1.00
C949   C     0.67391   0.49100   0.76205   0.00000  Uiso   1.00
C950   C     0.75155   0.52524   0.92140   0.00000  Uiso   1.00
C951   C     0.84779   0.65555   0.73794   0.00000  Uiso   1.00
C952   C     0.81850   0.34537   0.76219   0.00000  Uiso   1.00
C953   C     0.82273   0.38938   0.75888   0.00000  Uiso   1.00
C954   C     0.84362   0.61105   0.74128   0.00000  Uiso   1.00
C955   C     0.85467   0.47902   0.64376   0.00000  Uiso   1.00
C956   C     0.81112   0.52005   0.85655   0.00000  Uiso   1.00
C957   C     0.79490   0.52010   0.90024   0.00000  Uiso   1.00
C958   C     0.86539   0.46933   0.60067   0.00000  Uiso   1.00
C959   C     0.73600   0.51595   0.96078   0.00000  Uiso   1.00
C960   C     0.93467   0.40899   0.60320   0.00000  Uiso   1.00
C961   C     0.82175   0.50723   0.91993   0.00000  Uiso   1.00
C962   C     0.85716   0.41188   0.90532   0.00000  Uiso   1.00
C963   C     0.80529   0.49385   0.95830   0.00000  Uiso   1.00
C964   C     0.76211   0.49988   0.97911   0.00000  Uiso   1.00
C965   C     0.83063   0.47550   0.97692   0.00000  Uiso   1.00
C966   C     0.81494   0.47146   0.51837   0.00000  Uiso   1.00
C967   C     0.77003   0.47314   0.53693   0.00000  Uiso   1.00
C968   C     0.74461   0.48797   0.51742   0.00000  Uiso   1.00
H969   H     0.71050   0.48926   0.53203   0.00000  Uiso   1.00
H970   H     0.90192   0.39513   0.61945   0.00000  Uiso   1.00
H971   H     0.95714   0.40616   0.62077   0.00000  Uiso   1.00
H972   H     0.82183   0.41431   0.91448   0.00000  Uiso   1.00
H973   H     0.86413   0.38578   0.91898   0.00000  Uiso   1.00
H974   H     0.86702   0.40420   0.87265   0.00000  Uiso   1.00
H975   H     0.94761   0.44001   0.52289   0.00000  Uiso   1.00
H976   H     0.98456   0.47487   0.78598   0.00000  Uiso   1.00
H977   H     0.87487   0.33624   0.71560   0.00000  Uiso   1.00
H978   H     0.79105   0.66541   0.78460   0.00000  Uiso   1.00
H979   H     0.80785   0.48982   0.59729   0.00000  Uiso   1.00
H980   H     0.70267   0.51976   0.97669   0.00000  Uiso   1.00
H981   H     0.85561   0.50768   0.90439   0.00000  Uiso   1.00
H982   H     0.94605   0.39106   0.57372   0.00000  Uiso   1.00
I983   I     0.70496   0.54159   0.68992   0.00000  Uiso   1.00
I984   I     0.95792   0.42814   0.94082   0.00000  Uiso   1.00
I985   I     0.70539   0.54348   0.89686   0.00000  Uiso   1.00
I986   I     0.73349   0.44234   0.58798   0.00000  Uiso   1.00
O987   O     0.83333   0.50000   0.75000   0.00000  Uiso   1.00
O988   O     0.82360   0.45726   0.66625   0.00000  Uiso   1.00
O989   O     0.79354   0.53979   0.83749   0.00000  Uiso   1.00
O990   O     0.87755   0.50826   0.65877   0.00000  Uiso   1.00
O991   O     0.83865   0.49468   0.83749   0.00000  Uiso   1.00
O992   O     0.93520   0.45164   0.59937   0.00000  Uiso   1.00
O993   O     0.88093   0.44993   0.91472   0.00000  Uiso   1.00
O994   O     0.84515   0.41434   0.77821   0.00000  Uiso   1.00
O995   O     0.81247   0.59469   0.76767   0.00000  Uiso   1.00
O996   O     0.74119   0.46584   0.73607   0.00000  Uiso   1.00
O997   O     0.93452   0.52512   0.71806   0.00000  Uiso   1.00
O998   O     0.73656   0.52293   0.77820   0.00000  Uiso   1.00
O999   O     0.92106   0.48610   0.76768   0.00000  Uiso   1.00
O1000  O     0.80467   0.40236   0.73607   0.00000  Uiso   1.00
O1001  O     0.87104   0.58860   0.71806   0.00000  Uiso   1.00
Zn1002 Zn    0.85910   0.47423   0.78278   0.00000  Uiso   1.00
Zn1003 Zn    0.80125   0.45711   0.72258   0.00000  Uiso   1.00
Zn1004 Zn    0.87833   0.52997   0.71188   0.00000  Uiso   1.00
Zn1005 Zn    0.79465   0.53868   0.78277   0.00000  Uiso   1.00
C1006  C     0.05240   0.82623   0.75917   0.00000  Uiso   1.00
C1007  C     0.20324   0.79221   0.95554   0.00000  Uiso   1.00
C1008  C     0.23110   0.78239   0.97578   0.00000  Uiso   1.00
C1009  C     0.28121   0.84017   0.74104   0.00000  Uiso   1.00
C1010  C     0.21962   0.78739   0.51752   0.00000  Uiso   1.00
C1011  C     0.17805   0.79876   0.53908   0.00000  Uiso   1.00
C1012  C     0.24910   0.78196   0.53826   0.00000  Uiso   1.00
C1013  C     0.23850   0.78868   0.57966   0.00000  Uiso   1.00
C1014  C     0.16934   0.80827   0.58050   0.00000  Uiso   1.00
C1015  C     0.32737   0.84258   0.73671   0.00000  Uiso   1.00
C1016  C     0.00725   0.82433   0.76205   0.00000  Uiso   1.00
C1017  C     0.08488   0.85857   0.92140   0.00000  Uiso   1.00
C1018  C     0.18112   0.98888   0.73794   0.00000  Uiso   1.00
C1019  C     0.15183   0.67870   0.76219   0.00000  Uiso   1.00
C1020  C     0.15606   0.72271   0.75888   0.00000  Uiso   1.00
C1021  C     0.17696   0.94439   0.74128   0.00000  Uiso   1.00
C1022  C     0.18800   0.81235   0.64376   0.00000  Uiso   1.00
C1023  C     0.14445   0.85338   0.85655   0.00000  Uiso   1.00
C1024  C     0.12823   0.85344   0.90024   0.00000  Uiso   1.00
C1025  C     0.19873   0.80266   0.60067   0.00000  Uiso   1.00
C1026  C     0.06933   0.84928   0.96078   0.00000  Uiso   1.00
C1027  C     0.26800   0.74233   0.60320   0.00000  Uiso   1.00
C1028  C     0.15508   0.84056   0.91993   0.00000  Uiso   1.00
C1029  C     0.19050   0.74521   0.90532   0.00000  Uiso   1.00
C1030  C     0.13863   0.82719   0.95830   0.00000  Uiso   1.00
C1031  C     0.09545   0.83322   0.97911   0.00000  Uiso   1.00
C1032  C     0.16396   0.80883   0.97692   0.00000  Uiso   1.00
C1033  C     0.14828   0.80480   0.51837   0.00000  Uiso   1.00
C1034  C     0.10336   0.80647   0.53693   0.00000  Uiso   1.00
C1035  C     0.07794   0.82130   0.51742   0.00000  Uiso   1.00
H1036  H     0.04384   0.82260   0.53203   0.00000  Uiso   1.00
H1037  H     0.23526   0.72846   0.61945   0.00000  Uiso   1.00
H1038  H     0.29047   0.73949   0.62077   0.00000  Uiso   1.00
H1039  H     0.15516   0.74765   0.91448   0.00000  Uiso   1.00
H1040  H     0.19746   0.71911   0.91898   0.00000  Uiso   1.00
H1041  H     0.20035   0.73754   0.87265   0.00000  Uiso   1.00
H1042  H     0.28094   0.77334   0.52289   0.00000  Uiso   1.00
H1043  H     0.31789   0.80821   0.78598   0.00000  Uiso   1.00
H1044  H     0.20820   0.66957   0.71560   0.00000  Uiso   1.00
H1045  H     0.12439   0.99875   0.78460   0.00000  Uiso   1.00
H1046  H     0.14118   0.82316   0.59729   0.00000  Uiso   1.00
H1047  H     0.03600   0.85310   0.97669   0.00000  Uiso   1.00
H1048  H     0.18894   0.84102   0.90439   0.00000  Uiso   1.00
H1049  H     0.27938   0.72440   0.57372   0.00000  Uiso   1.00
I1050  I     0.03829   0.87492   0.68992   0.00000  Uiso   1.00
I1051  I     0.29125   0.76147   0.94082   0.00000  Uiso   1.00
I1052  I     0.03872   0.87681   0.89686   0.00000  Uiso   1.00
I1053  I     0.06683   0.77568   0.58798   0.00000  Uiso   1.00
O1054  O     0.16667   0.83333   0.75000   0.00000  Uiso   1.00
O1055  O     0.15693   0.79060   0.66625   0.00000  Uiso   1.00
O1056  O     0.12687   0.87313   0.83749   0.00000  Uiso   1.00
O1057  O     0.21088   0.84159   0.65877   0.00000  Uiso   1.00
O1058  O     0.17198   0.82802   0.83749   0.00000  Uiso   1.00
O1059  O     0.26854   0.78497   0.59937   0.00000  Uiso   1.00
O1060  O     0.21426   0.78326   0.91472   0.00000  Uiso   1.00
O1061  O     0.17849   0.74768   0.77821   0.00000  Uiso   1.00
O1062  O     0.14581   0.92803   0.76767   0.00000  Uiso   1.00
O1063  O     0.07452   0.79917   0.73607   0.00000  Uiso   1.00
O1064  O     0.26785   0.85845   0.71806   0.00000  Uiso   1.00
O1065  O     0.06990   0.85627   0.77820   0.00000  Uiso   1.00
O1066  O     0.25440   0.81944   0.76768   0.00000  Uiso   1.00
O1067  O     0.13800   0.73570   0.73607   0.00000  Uiso   1.00
O1068  O     0.20437   0.92193   0.71806   0.00000  Uiso   1.00
Zn1069 Zn    0.19244   0.80756   0.78278   0.00000  Uiso   1.00
Zn1070 Zn    0.13459   0.79044   0.72258   0.00000  Uiso   1.00
Zn1071 Zn    0.21166   0.86331   0.71188   0.00000  Uiso   1.00
Zn1072 Zn    0.12798   0.87202   0.78277   0.00000  Uiso   1.00
C1073  C     0.38574   0.82623   0.75917   0.00000  Uiso   1.00
C1074  C     0.53658   0.79221   0.95554   0.00000  Uiso   1.00
C1075  C     0.56443   0.78239   0.97578   0.00000  Uiso   1.00
C1076  C     0.61454   0.84017   0.74104   0.00000  Uiso   1.00
C1077  C     0.55295   0.78739   0.51752   0.00000  Uiso   1.00
C1078  C     0.51138   0.79876   0.53908   0.00000  Uiso   1.00
C1079  C     0.58243   0.78196   0.53826   0.00000  Uiso   1.00
C1080  C     0.57183   0.78868   0.57966   0.00000  Uiso   1.00
C1081  C     0.50267   0.80827   0.58050   0.00000  Uiso   1.00
C1082  C     0.66070   0.84258   0.73671   0.00000  Uiso   1.00
C1083  C     0.34058   0.82433   0.76205   0.00000  Uiso   1.00
C1084  C     0.41822   0.85857   0.92140   0.00000  Uiso   1.00
C1085  C     0.51446   0.98888   0.73794   0.00000  Uiso   1.00
C1086  C     0.48517   0.67870   0.76219   0.00000  Uiso   1.00
C1087  C     0.48939   0.72271   0.75888   0.00000  Uiso   1.00
C1088  C     0.51029   0.94439   0.74128   0.00000  Uiso   1.00
C1089  C     0.52134   0.81235   0.64376   0.00000  Uiso   1.00
C1090  C     0.47778   0.85338   0.85655   0.00000  Uiso   1.00
C1091  C     0.46157   0.85344   0.90024   0.00000  Uiso   1.00
C1092  C     0.53206   0.80266   0.60067   0.00000  Uiso   1.00
C1093  C     0.40266   0.84928   0.96078   0.00000  Uiso   1.00
C1094  C     0.60133   0.74233   0.60320   0.00000  Uiso   1.00
C1095  C     0.48842   0.84056   0.91993   0.00000  Uiso   1.00
C1096  C     0.52383   0.74521   0.90532   0.00000  Uiso   1.00
C1097  C     0.47196   0.82719   0.95830   0.00000  Uiso   1.00
C1098  C     0.42878   0.83322   0.97911   0.00000  Uiso   1.00
C1099  C     0.49730   0.80883   0.97692   0.00000  Uiso   1.00
C1100  C     0.48161   0.80480   0.51837   0.00000  Uiso   1.00
C1101  C     0.43670   0.80647   0.53693   0.00000  Uiso   1.00
C1102  C     0.41128   0.82130   0.51742   0.00000  Uiso   1.00
H1103  H     0.37717   0.82260   0.53203   0.00000  Uiso   1.00
H1104  H     0.56859   0.72846   0.61945   0.00000  Uiso   1.00
H1105  H     0.62381   0.73949   0.62077   0.00000  Uiso   1.00
H1106  H     0.48850   0.74765   0.91448   0.00000  Uiso   1.00
H1107  H     0.53079   0.71911   0.91898   0.00000  Uiso   1.00
H1108  H     0.53369   0.73754   0.87265   0.00000  Uiso   1.00
H1109  H     0.61428   0.77334   0.52289   0.00000  Uiso   1.00
H1110  H     0.65122   0.80821   0.78598   0.00000  Uiso   1.00
H1111  H     0.54154   0.66957   0.71560   0.00000  Uiso   1.00
H1112  H     0.45772   0.99875   0.78460   0.00000  Uiso   1.00
H1113  H     0.47452   0.82316   0.59729   0.00000  Uiso   1.00
H1114  H     0.36933   0.85310   0.97669   0.00000  Uiso   1.00
H1115  H     0.52227   0.84102   0.90439   0.00000  Uiso   1.00
H1116  H     0.61272   0.72440   0.57372   0.00000  Uiso   1.00
I1117  I     0.37162   0.87492   0.68992   0.00000  Uiso   1.00
I1118  I     0.62458   0.76147   0.94082   0.00000  Uiso   1.00
I1119  I     0.37205   0.87681   0.89686   0.00000  Uiso   1.00
I1120  I     0.40016   0.77568   0.58798   0.00000  Uiso   1.00
O1121  O     0.50000   0.83333   0.75000   0.00000  Uiso   1.00
O1122  O     0.49027   0.79060   0.66625   0.00000  Uiso   1.00
O1123  O     0.46020   0.87313   0.83749   0.00000  Uiso   1.00
O1124  O     0.54421   0.84159   0.65877   0.00000  Uiso   1.00
O1125  O     0.50532   0.82802   0.83749   0.00000  Uiso   1.00
O1126  O     0.60187   0.78497   0.59937   0.00000  Uiso   1.00
O1127  O     0.54760   0.78326   0.91472   0.00000  Uiso   1.00
O1128  O     0.51182   0.74768   0.77821   0.00000  Uiso   1.00
O1129  O     0.47914   0.92803   0.76767   0.00000  Uiso   1.00
O1130  O     0.40785   0.79917   0.73607   0.00000  Uiso   1.00
O1131  O     0.60119   0.85845   0.71806   0.00000  Uiso   1.00
O1132  O     0.40323   0.85627   0.77820   0.00000  Uiso   1.00
O1133  O     0.58773   0.81944   0.76768   0.00000  Uiso   1.00
O1134  O     0.47133   0.73570   0.73607   0.00000  Uiso   1.00
O1135  O     0.53771   0.92193   0.71806   0.00000  Uiso   1.00
Zn1136 Zn    0.52577   0.80756   0.78278   0.00000  Uiso   1.00
Zn1137 Zn    0.46792   0.79044   0.72258   0.00000  Uiso   1.00
Zn1138 Zn    0.54500   0.86331   0.71188   0.00000  Uiso   1.00
Zn1139 Zn    0.46131   0.87202   0.78277   0.00000  Uiso   1.00
C1140  C     0.71907   0.82623   0.75917   0.00000  Uiso   1.00
C1141  C     0.86991   0.79221   0.95554   0.00000  Uiso   1.00
C1142  C     0.89777   0.78239   0.97578   0.00000  Uiso   1.00
C1143  C     0.94788   0.84017   0.74104   0.00000  Uiso   1.00
C1144  C     0.88629   0.78739   0.51752   0.00000  Uiso   1.00
C1145  C     0.84471   0.79876   0.53908   0.00000  Uiso   1.00
C1146  C     0.91576   0.78196   0.53826   0.00000  Uiso   1.00
C1147  C     0.90517   0.78868   0.57966   0.00000  Uiso   1.00
C1148  C     0.83600   0.80827   0.58050   0.00000  Uiso   1.00
C1149  C     0.99404   0.84258   0.73671   0.00000  Uiso   1.00
C1150  C     0.67391   0.82433   0.76205   0.00000  Uiso   1.00
C1151  C     0.75155   0.85857   0.92140   0.00000  Uiso   1.00
C1152  C     0.84779   0.98888   0.73794   0.00000  Uiso   1.00
C1153  C     0.81850   0.67870   0.76219   0.00000  Uiso   1.00
C1154  C     0.82273   0.72271   0.75888   0.00000  Uiso   1.00
C1155  C     0.84362   0.94439   0.74128   0.00000  Uiso   1.00
C1156  C     0.85467   0.81235   0.64376   0.00000  Uiso   1.00
C1157  C     0.81112   0.85338   0.85655   0.00000  Uiso   1.00
C1158  C     0.79490   0.85344   0.90024   0.00000  Uiso   1.00
C1159  C     0.86539   0.80266   0.60067   0.00000  Uiso   1.00
C1160  C     0.73600   0.84928   0.96078   0.00000  Uiso   1.00
C1161  C     0.93467   0.74233   0.60320   0.00000  Uiso   1.00
C1162  C     0.82175   0.84056   0.91993   0.00000  Uiso   1.00
C1163  C     0.85716   0.74521   0.90532   0.00000  Uiso   1.00
C1164  C     0.80529   0.82719   0.95830   0.00000  Uiso   1.00
C1165  C     0.76211   0.83322   0.97911   0.00000  Uiso   1.00
C1166  C     0.83063   0.80883   0.97692   0.00000  Uiso   1.00
C1167  C     0.81494   0.80480   0.51837   0.00000  Uiso   1.00
C1168  C     0.77003   0.80647   0.53693   0.00000  Uiso   1.00
C1169  C     0.74461   0.82130   0.51742   0.00000  Uiso   1.00
H1170  H     0.71050   0.82260   0.53203   0.00000  Uiso   1.00
H1171  H     0.90192   0.72846   0.61945   0.00000  Uiso   1.00
H1172  H     0.95714   0.73949   0.62077   0.00000  Uiso   1.00
H1173  H     0.82183   0.74765   0.91448   0.00000  Uiso   1.00
H1174  H     0.86413   0.71911   0.91898   0.00000  Uiso   1.00
H1175  H     0.86702   0.73754   0.87265   0.00000  Uiso   1.00
H1176  H     0.94761   0.77334   0.52289   0.00000  Uiso   1.00
H1177  H     0.98456   0.80821   0.78598   0.00000  Uiso   1.00
H1178  H     0.87487   0.66957   0.71560   0.00000  Uiso   1.00
H1179  H     0.79105   0.99875   0.78460   0.00000  Uiso   1.00
H1180  H     0.80785   0.82316   0.59729   0.00000  Uiso   1.00
H1181  H     0.70267   0.85310   0.97669   0.00000  Uiso   1.00
H1182  H     0.85561   0.84102   0.90439   0.00000  Uiso   1.00
H1183  H     0.94605   0.72440   0.57372   0.00000  Uiso   1.00
I1184  I     0.70496   0.87492   0.68992   0.00000  Uiso   1.00
I1185  I     0.95792   0.76147   0.94082   0.00000  Uiso   1.00
I1186  I     0.70539   0.87681   0.89686   0.00000  Uiso   1.00
I1187  I     0.73349   0.77568   0.58798   0.00000  Uiso   1.00
O1188  O     0.83333   0.83333   0.75000   0.00000  Uiso   1.00
O1189  O     0.82360   0.79060   0.66625   0.00000  Uiso   1.00
O1190  O     0.79354   0.87313   0.83749   0.00000  Uiso   1.00
O1191  O     0.87755   0.84159   0.65877   0.00000  Uiso   1.00
O1192  O     0.83865   0.82802   0.83749   0.00000  Uiso   1.00
O1193  O     0.93520   0.78497   0.59937   0.00000  Uiso   1.00
O1194  O     0.88093   0.78326   0.91472   0.00000  Uiso   1.00
O1195  O     0.84515   0.74768   0.77821   0.00000  Uiso   1.00
O1196  O     0.81247   0.92803   0.76767   0.00000  Uiso   1.00
O1197  O     0.74119   0.79917   0.73607   0.00000  Uiso   1.00
O1198  O     0.93452   0.85845   0.71806   0.00000  Uiso   1.00
O1199  O     0.73656   0.85627   0.77820   0.00000  Uiso   1.00
O1200  O     0.92106   0.81944   0.76768   0.00000  Uiso   1.00
O1201  O     0.80467   0.73570   0.73607   0.00000  Uiso   1.00
O1202  O     0.87104   0.92193   0.71806   0.00000  Uiso   1.00
Zn1203 Zn    0.85910   0.80756   0.78278   0.00000  Uiso   1.00
Zn1204 Zn    0.80125   0.79044   0.72258   0.00000  Uiso   1.00
Zn1205 Zn    0.87833   0.86331   0.71188   0.00000  Uiso   1.00
Zn1206 Zn    0.79465   0.87202   0.78277   0.00000  Uiso   1.00
loop_
_geom_bond_atom_site_label_1
_geom_bond_atom_site_label_2
_geom_bond_distance
_geom_bond_site_symmetry_2
_ccdc_geom_bond_type
C1     C11     1.436   .     S
C1     O58     1.269   .     A
C1     O60     1.268   .     A
C2     C27     1.425   .     A
C2     O55     1.383   .     S
C2     C3      1.401   .     A
C3     I46     2.142   .     S
C3     C608    1.406   .     S
C4     O59     1.273   .     A
C4     C10     1.456   .     S
C4     O61     1.275   .     A
C5     C6      1.422   .     A
C5     C7      1.409   .     A
C5     C606    1.406   1_554 S
C6     C9      1.409   .     A
C6     C28     1.423   .     A
C7     H37     1.080   .     S
C7     C8      1.398   .     A
C8     C20     1.400   .     A
C8     O54     1.383   .     S
C9     H41     1.079   .     S
C9     C20     1.394   .     A
C10    C78     1.337   .     S
C10    I112    2.136   .     S
C11    C144    1.337   1_455 S
C11    H172    1.086   1_455 S
C12    I47     2.128   .     S
C12    C21     1.396   .     A
C12    C19     1.415   .     A
C13    C16     1.452   .     S
C13    C215    1.332   .     S
C13    H240    1.088   .     S
C14    C15     1.435   .     S
C14    C415    1.332   1_545 S
C14    H442    1.086   1_545 S
C15    O56     1.273   .     A
C15    O62     1.273   .     A
C16    O63     1.269   .     A
C16    O57     1.268   .     A
C17    O50     1.277   .     A
C17    C20     1.462   .     S
C17    O52     1.273   .     A
C18    O51     1.284   .     A
C18    C19     1.481   .     S
C18    O53     1.287   .     A
C19    C23     1.403   .     A
C21    C26     1.401   .     A
C21    H42     1.084   .     S
C22    O54     1.409   .     S
C22    H44     1.113   .     S
C22    H32     1.114   .     S
C22    H33     1.109   .     S
C23    C25     1.410   .     A
C23    H43     1.078   .     S
C24    H36     1.109   .     S
C24    O55     1.411   .     S
C24    H34     1.112   .     S
C24    H35     1.113   .     S
C25    C27     1.429   .     A
C25    C26     1.413   .     A
C26    C633    1.393   .     S
C27    C631    1.423   .     S
C28    C29     1.424   .     A
C28    C630    1.423   1_554 S
C29    C30     1.392   .     A
C29    I48     2.138   .     S
C30    H31     1.084   .     S
C30    C629    1.393   1_554 S
H38    C78     1.086   .     S
H39    C415    1.088   1_545 S
H40    C215    1.086   .     S
I45    C144    2.136   1_455 S
O49    Zn67    1.934   .     S
O49    Zn64    1.948   .     S
O49    Zn66    1.924   .     S
O49    Zn65    1.939   .     S
O50    Zn65    1.913   .     S
O51    Zn67    1.921   .     S
O52    Zn66    1.921   .     S
O53    Zn64    1.914   .     S
O56    Zn64    1.929   .     S
O57    Zn67    1.927   .     S
O58    Zn65    1.928   .     S
O59    Zn66    1.935   .     S
O60    Zn67    1.931   .     S
O61    Zn64    1.923   .     S
O62    Zn65    1.933   .     S
O63    Zn66    1.932   .     S
C68    C78     1.436   .     S
C68    O125    1.269   .     A
C68    O127    1.268   .     A
C69    C94     1.425   .     A
C69    O122    1.383   .     S
C69    C70     1.401   .     A
C70    I113    2.142   .     S
C70    C675    1.406   .     S
C71    O126    1.273   .     A
C71    C77     1.456   .     S
C71    O128    1.275   .     A
C72    C73     1.422   .     A
C72    C74     1.409   .     A
C72    C673    1.406   1_554 S
C73    C76     1.409   .     A
C73    C95     1.423   .     A
C74    H104    1.080   .     S
C74    C75     1.398   .     A
C75    C87     1.400   .     A
C75    O121    1.383   .     S
C76    H108    1.079   .     S
C76    C87     1.394   .     A
C77    C145    1.337   .     S
C77    I179    2.136   .     S
C79    I114    2.128   .     S
C79    C88     1.396   .     A
C79    C86     1.415   .     A
C80    C83     1.452   .     S
C80    C282    1.332   .     S
C80    H307    1.088   .     S
C81    C82     1.435   .     S
C81    C482    1.332   1_545 S
C81    H509    1.086   1_545 S
C82    O123    1.273   .     A
C82    O129    1.273   .     A
C83    O130    1.269   .     A
C83    O124    1.268   .     A
C84    O117    1.277   .     A
C84    C87     1.462   .     S
C84    O119    1.273   .     A
C85    O118    1.284   .     A
C85    C86     1.481   .     S
C85    O120    1.287   .     A
C86    C90     1.403   .     A
C88    C93     1.401   .     A
C88    H109    1.084   .     S
C89    O121    1.409   .     S
C89    H111    1.113   .     S
C89    H99     1.114   .     S
C89    H100    1.109   .     S
C90    C92     1.410   .     A
C90    H110    1.078   .     S
C91    H103    1.109   .     S
C91    O122    1.411   .     S
C91    H101    1.112   .     S
C91    H102    1.113   .     S
C92    C94     1.429   .     A
C92    C93     1.413   .     A
C93    C700    1.393   .     S
C94    C698    1.423   .     S
C95    C96     1.424   .     A
C95    C697    1.423   1_554 S
C96    C97     1.392   .     A
C96    I115    2.138   .     S
C97    H98     1.084   .     S
C97    C696    1.393   1_554 S
H105   C145    1.086   .     S
H106   C482    1.088   1_545 S
H107   C282    1.086   .     S
O116   Zn134   1.934   .     S
O116   Zn131   1.948   .     S
O116   Zn133   1.924   .     S
O116   Zn132   1.939   .     S
O117   Zn132   1.913   .     S
O118   Zn134   1.921   .     S
O119   Zn133   1.921   .     S
O120   Zn131   1.914   .     S
O123   Zn131   1.929   .     S
O124   Zn134   1.927   .     S
O125   Zn132   1.928   .     S
O126   Zn133   1.935   .     S
O127   Zn134   1.931   .     S
O128   Zn131   1.923   .     S
O129   Zn132   1.933   .     S
O130   Zn133   1.932   .     S
C135   C145    1.436   .     S
C135   O192    1.269   .     A
C135   O194    1.268   .     A
C136   C161    1.425   .     A
C136   O189    1.383   .     S
C136   C137    1.401   .     A
C137   I180    2.142   .     S
C137   C742    1.406   .     S
C138   O193    1.273   .     A
C138   C144    1.456   .     S
C138   O195    1.275   .     A
C139   C140    1.422   .     A
C139   C141    1.409   .     A
C139   C740    1.406   1_554 S
C140   C143    1.409   .     A
C140   C162    1.423   .     A
C141   H171    1.080   .     S
C141   C142    1.398   .     A
C142   C154    1.400   .     A
C142   O188    1.383   .     S
C143   H175    1.079   .     S
C143   C154    1.394   .     A
C144   C11     1.337   1_655 S
C144   I45     2.136   1_655 S
C146   I181    2.128   .     S
C146   C155    1.396   .     A
C146   C153    1.415   .     A
C147   C150    1.452   .     S
C147   C349    1.332   .     S
C147   H374    1.088   .     S
C148   C149    1.435   .     S
C148   C549    1.332   1_545 S
C148   H576    1.086   1_545 S
C149   O190    1.273   .     A
C149   O196    1.273   .     A
C150   O197    1.269   .     A
C150   O191    1.268   .     A
C151   O184    1.277   .     A
C151   C154    1.462   .     S
C151   O186    1.273   .     A
C152   O185    1.284   .     A
C152   C153    1.481   .     S
C152   O187    1.287   .     A
C153   C157    1.403   .     A
C155   C160    1.401   .     A
C155   H176    1.084   .     S
C156   O188    1.409   .     S
C156   H178    1.113   .     S
C156   H166    1.114   .     S
C156   H167    1.109   .     S
C157   C159    1.410   .     A
C157   H177    1.078   .     S
C158   H170    1.109   .     S
C158   O189    1.411   .     S
C158   H168    1.112   .     S
C158   H169    1.113   .     S
C159   C161    1.429   .     A
C159   C160    1.413   .     A
C160   C767    1.393   .     S
C161   C765    1.423   .     S
C162   C163    1.424   .     A
C162   C764    1.423   1_554 S
C163   C164    1.392   .     A
C163   I182    2.138   .     S
C164   H165    1.084   .     S
C164   C763    1.393   1_554 S
H172   C11     1.086   1_655 S
H173   C549    1.088   1_545 S
H174   C349    1.086   .     S
O183   Zn201   1.934   .     S
O183   Zn198   1.948   .     S
O183   Zn200   1.924   .     S
O183   Zn199   1.939   .     S
O184   Zn199   1.913   .     S
O185   Zn201   1.921   .     S
O186   Zn200   1.921   .     S
O187   Zn198   1.914   .     S
O190   Zn198   1.929   .     S
O191   Zn201   1.927   .     S
O192   Zn199   1.928   .     S
O193   Zn200   1.935   .     S
O194   Zn201   1.931   .     S
O195   Zn198   1.923   .     S
O196   Zn199   1.933   .     S
O197   Zn200   1.932   .     S
C202   C212    1.436   .     S
C202   O259    1.269   .     A
C202   O261    1.268   .     A
C203   C228    1.425   .     A
C203   O256    1.383   .     S
C203   C204    1.401   .     A
C204   I247    2.142   .     S
C204   C809    1.406   .     S
C205   O260    1.273   .     A
C205   C211    1.456   .     S
C205   O262    1.275   .     A
C206   C207    1.422   .     A
C206   C208    1.409   .     A
C206   C807    1.406   1_554 S
C207   C210    1.409   .     A
C207   C229    1.423   .     A
C208   H238    1.080   .     S
C208   C209    1.398   .     A
C209   C221    1.400   .     A
C209   O255    1.383   .     S
C210   H242    1.079   .     S
C210   C221    1.394   .     A
C211   C279    1.337   .     S
C211   I313    2.136   .     S
C212   C345    1.337   1_455 S
C212   H373    1.086   1_455 S
C213   I248    2.128   .     S
C213   C222    1.396   .     A
C213   C220    1.415   .     A
C214   C217    1.452   .     S
C214   C416    1.332   .     S
C214   H441    1.088   .     S
C215   C216    1.435   .     S
C216   O257    1.273   .     A
C216   O263    1.273   .     A
C217   O264    1.269   .     A
C217   O258    1.268   .     A
C218   O251    1.277   .     A
C218   C221    1.462   .     S
C218   O253    1.273   .     A
C219   O252    1.284   .     A
C219   C220    1.481   .     S
C219   O254    1.287   .     A
C220   C224    1.403   .     A
C222   C227    1.401   .     A
C222   H243    1.084   .     S
C223   O255    1.409   .     S
C223   H245    1.113   .     S
C223   H233    1.114   .     S
C223   H234    1.109   .     S
C224   C226    1.410   .     A
C224   H244    1.078   .     S
C225   H237    1.109   .     S
C225   O256    1.411   .     S
C225   H235    1.112   .     S
C225   H236    1.113   .     S
C226   C228    1.429   .     A
C226   C227    1.413   .     A
C227   C834    1.393   .     S
C228   C832    1.423   .     S
C229   C230    1.424   .     A
C229   C831    1.423   1_554 S
C230   C231    1.392   .     A
C230   I249    2.138   .     S
C231   H232    1.084   .     S
C231   C830    1.393   1_554 S
H239   C279    1.086   .     S
H241   C416    1.086   .     S
I246   C345    2.136   1_455 S
O250   Zn268   1.934   .     S
O250   Zn265   1.948   .     S
O250   Zn267   1.924   .     S
O250   Zn266   1.939   .     S
O251   Zn266   1.913   .     S
O252   Zn268   1.921   .     S
O253   Zn267   1.921   .     S
O254   Zn265   1.914   .     S
O257   Zn265   1.929   .     S
O258   Zn268   1.927   .     S
O259   Zn266   1.928   .     S
O260   Zn267   1.935   .     S
O261   Zn268   1.931   .     S
O262   Zn265   1.923   .     S
O263   Zn266   1.933   .     S
O264   Zn267   1.932   .     S
C269   C279    1.436   .     S
C269   O326    1.269   .     A
C269   O328    1.268   .     A
C270   C295    1.425   .     A
C270   O323    1.383   .     S
C270   C271    1.401   .     A
C271   I314    2.142   .     S
C271   C876    1.406   .     S
C272   O327    1.273   .     A
C272   C278    1.456   .     S
C272   O329    1.275   .     A
C273   C274    1.422   .     A
C273   C275    1.409   .     A
C273   C874    1.406   1_554 S
C274   C277    1.409   .     A
C274   C296    1.423   .     A
C275   H305    1.080   .     S
C275   C276    1.398   .     A
C276   C288    1.400   .     A
C276   O322    1.383   .     S
C277   H309    1.079   .     S
C277   C288    1.394   .     A
C278   C346    1.337   .     S
C278   I380    2.136   .     S
C280   I315    2.128   .     S
C280   C289    1.396   .     A
C280   C287    1.415   .     A
C281   C284    1.452   .     S
C281   C483    1.332   .     S
C281   H508    1.088   .     S
C282   C283    1.435   .     S
C283   O324    1.273   .     A
C283   O330    1.273   .     A
C284   O331    1.269   .     A
C284   O325    1.268   .     A
C285   O318    1.277   .     A
C285   C288    1.462   .     S
C285   O320    1.273   .     A
C286   O319    1.284   .     A
C286   C287    1.481   .     S
C286   O321    1.287   .     A
C287   C291    1.403   .     A
C289   C294    1.401   .     A
C289   H310    1.084   .     S
C290   O322    1.409   .     S
C290   H312    1.113   .     S
C290   H300    1.114   .     S
C290   H301    1.109   .     S
C291   C293    1.410   .     A
C291   H311    1.078   .     S
C292   H304    1.109   .     S
C292   O323    1.411   .     S
C292   H302    1.112   .     S
C292   H303    1.113   .     S
C293   C295    1.429   .     A
C293   C294    1.413   .     A
C294   C901    1.393   .     S
C295   C899    1.423   .     S
C296   C297    1.424   .     A
C296   C898    1.423   1_554 S
C297   C298    1.392   .     A
C297   I316    2.138   .     S
C298   H299    1.084   .     S
C298   C897    1.393   1_554 S
H306   C346    1.086   .     S
H308   C483    1.086   .     S
O317   Zn335   1.934   .     S
O317   Zn332   1.948   .     S
O317   Zn334   1.924   .     S
O317   Zn333   1.939   .     S
O318   Zn333   1.913   .     S
O319   Zn335   1.921   .     S
O320   Zn334   1.921   .     S
O321   Zn332   1.914   .     S
O324   Zn332   1.929   .     S
O325   Zn335   1.927   .     S
O326   Zn333   1.928   .     S
O327   Zn334   1.935   .     S
O328   Zn335   1.931   .     S
O329   Zn332   1.923   .     S
O330   Zn333   1.933   .     S
O331   Zn334   1.932   .     S
C336   C346    1.436   .     S
C336   O393    1.269   .     A
C336   O395    1.268   .     A
C337   C362    1.425   .     A
C337   O390    1.383   .     S
C337   C338    1.401   .     A
C338   I381    2.142   .     S
C338   C943    1.406   .     S
C339   O394    1.273   .     A
C339   C345    1.456   .     S
C339   O396    1.275   .     A
C340   C341    1.422   .     A
C340   C342    1.409   .     A
C340   C941    1.406   1_554 S
C341   C344    1.409   .     A
C341   C363    1.423   .     A
C342   H372    1.080   .     S
C342   C343    1.398   .     A
C343   C355    1.400   .     A
C343   O389    1.383   .     S
C344   H376    1.079   .     S
C344   C355    1.394   .     A
C345   C212    1.337   1_655 S
C345   I246    2.136   1_655 S
C347   I382    2.128   .     S
C347   C356    1.396   .     A
C347   C354    1.415   .     A
C348   C351    1.452   .     S
C348   C550    1.332   .     S
C348   H575    1.088   .     S
C349   C350    1.435   .     S
C350   O391    1.273   .     A
C350   O397    1.273   .     A
C351   O398    1.269   .     A
C351   O392    1.268   .     A
C352   O385    1.277   .     A
C352   C355    1.462   .     S
C352   O387    1.273   .     A
C353   O386    1.284   .     A
C353   C354    1.481   .     S
C353   O388    1.287   .     A
C354   C358    1.403   .     A
C356   C361    1.401   .     A
C356   H377    1.084   .     S
C357   O389    1.409   .     S
C357   H379    1.113   .     S
C357   H367    1.114   .     S
C357   H368    1.109   .     S
C358   C360    1.410   .     A
C358   H378    1.078   .     S
C359   H371    1.109   .     S
C359   O390    1.411   .     S
C359   H369    1.112   .     S
C359   H370    1.113   .     S
C360   C362    1.429   .     A
C360   C361    1.413   .     A
C361   C968    1.393   .     S
C362   C966    1.423   .     S
C363   C364    1.424   .     A
C363   C965    1.423   1_554 S
C364   C365    1.392   .     A
C364   I383    2.138   .     S
C365   H366    1.084   .     S
C365   C964    1.393   1_554 S
H373   C212    1.086   1_655 S
H375   C550    1.086   .     S
O384   Zn402   1.934   .     S
O384   Zn399   1.948   .     S
O384   Zn401   1.924   .     S
O384   Zn400   1.939   .     S
O385   Zn400   1.913   .     S
O386   Zn402   1.921   .     S
O387   Zn401   1.921   .     S
O388   Zn399   1.914   .     S
O391   Zn399   1.929   .     S
O392   Zn402   1.927   .     S
O393   Zn400   1.928   .     S
O394   Zn401   1.935   .     S
O395   Zn402   1.931   .     S
O396   Zn399   1.923   .     S
O397   Zn400   1.933   .     S
O398   Zn401   1.932   .     S
C403   C413    1.436   .     S
C403   O460    1.269   .     A
C403   O462    1.268   .     A
C404   C429    1.425   .     A
C404   O457    1.383   .     S
C404   C405    1.401   .     A
C405   I448    2.142   .     S
C405   C1010   1.406   .     S
C406   O461    1.273   .     A
C406   C412    1.456   .     S
C406   O463    1.275   .     A
C407   C408    1.422   .     A
C407   C409    1.409   .     A
C407   C1008   1.406   1_554 S
C408   C411    1.409   .     A
C408   C430    1.423   .     A
C409   H439    1.080   .     S
C409   C410    1.398   .     A
C410   C422    1.400   .     A
C410   O456    1.383   .     S
C411   H443    1.079   .     S
C411   C422    1.394   .     A
C412   C480    1.337   .     S
C412   I514    2.136   .     S
C413   C546    1.337   1_455 S
C413   H574    1.086   1_455 S
C414   I449    2.128   .     S
C414   C423    1.396   .     A
C414   C421    1.415   .     A
C415   C418    1.452   .     S
C415   C14     1.332   1_565 S
C415   H39     1.088   1_565 S
C416   C417    1.435   .     S
C417   O458    1.273   .     A
C417   O464    1.273   .     A
C418   O465    1.269   .     A
C418   O459    1.268   .     A
C419   O452    1.277   .     A
C419   C422    1.462   .     S
C419   O454    1.273   .     A
C420   O453    1.284   .     A
C420   C421    1.481   .     S
C420   O455    1.287   .     A
C421   C425    1.403   .     A
C423   C428    1.401   .     A
C423   H444    1.084   .     S
C424   O456    1.409   .     S
C424   H446    1.113   .     S
C424   H434    1.114   .     S
C424   H435    1.109   .     S
C425   C427    1.410   .     A
C425   H445    1.078   .     S
C426   H438    1.109   .     S
C426   O457    1.411   .     S
C426   H436    1.112   .     S
C426   H437    1.113   .     S
C427   C429    1.429   .     A
C427   C428    1.413   .     A
C428   C1035   1.393   .     S
C429   C1033   1.423   .     S
C430   C431    1.424   .     A
C430   C1032   1.423   1_554 S
C431   C432    1.392   .     A
C431   I450    2.138   .     S
C432   H433    1.084   .     S
C432   C1031   1.393   1_554 S
H440   C480    1.086   .     S
H442   C14     1.086   1_565 S
I447   C546    2.136   1_455 S
O451   Zn469   1.934   .     S
O451   Zn466   1.948   .     S
O451   Zn468   1.924   .     S
O451   Zn467   1.939   .     S
O452   Zn467   1.913   .     S
O453   Zn469   1.921   .     S
O454   Zn468   1.921   .     S
O455   Zn466   1.914   .     S
O458   Zn466   1.929   .     S
O459   Zn469   1.927   .     S
O460   Zn467   1.928   .     S
O461   Zn468   1.935   .     S
O462   Zn469   1.931   .     S
O463   Zn466   1.923   .     S
O464   Zn467   1.933   .     S
O465   Zn468   1.932   .     S
C470   C480    1.436   .     S
C470   O527    1.269   .     A
C470   O529    1.268   .     A
C471   C496    1.425   .     A
C471   O524    1.383   .     S
C471   C472    1.401   .     A
C472   I515    2.142   .     S
C472   C1077   1.406   .     S
C473   O528    1.273   .     A
C473   C479    1.456   .     S
C473   O530    1.275   .     A
C474   C475    1.422   .     A
C474   C476    1.409   .     A
C474   C1075   1.406   1_554 S
C475   C478    1.409   .     A
C475   C497    1.423   .     A
C476   H506    1.080   .     S
C476   C477    1.398   .     A
C477   C489    1.400   .     A
C477   O523    1.383   .     S
C478   H510    1.079   .     S
C478   C489    1.394   .     A
C479   C547    1.337   .     S
C479   I581    2.136   .     S
C481   I516    2.128   .     S
C481   C490    1.396   .     A
C481   C488    1.415   .     A
C482   C485    1.452   .     S
C482   C81     1.332   1_565 S
C482   H106    1.088   1_565 S
C483   C484    1.435   .     S
C484   O525    1.273   .     A
C484   O531    1.273   .     A
C485   O532    1.269   .     A
C485   O526    1.268   .     A
C486   O519    1.277   .     A
C486   C489    1.462   .     S
C486   O521    1.273   .     A
C487   O520    1.284   .     A
C487   C488    1.481   .     S
C487   O522    1.287   .     A
C488   C492    1.403   .     A
C490   C495    1.401   .     A
C490   H511    1.084   .     S
C491   O523    1.409   .     S
C491   H513    1.113   .     S
C491   H501    1.114   .     S
C491   H502    1.109   .     S
C492   C494    1.410   .     A
C492   H512    1.078   .     S
C493   H505    1.109   .     S
C493   O524    1.411   .     S
C493   H503    1.112   .     S
C493   H504    1.113   .     S
C494   C496    1.429   .     A
C494   C495    1.413   .     A
C495   C1102   1.393   .     S
C496   C1100   1.423   .     S
C497   C498    1.424   .     A
C497   C1099   1.423   1_554 S
C498   C499    1.392   .     A
C498   I517    2.138   .     S
C499   H500    1.084   .     S
C499   C1098   1.393   1_554 S
H507   C547    1.086   .     S
H509   C81     1.086   1_565 S
O518   Zn536   1.934   .     S
O518   Zn533   1.948   .     S
O518   Zn535   1.924   .     S
O518   Zn534   1.939   .     S
O519   Zn534   1.913   .     S
O520   Zn536   1.921   .     S
O521   Zn535   1.921   .     S
O522   Zn533   1.914   .     S
O525   Zn533   1.929   .     S
O526   Zn536   1.927   .     S
O527   Zn534   1.928   .     S
O528   Zn535   1.935   .     S
O529   Zn536   1.931   .     S
O530   Zn533   1.923   .     S
O531   Zn534   1.933   .     S
O532   Zn535   1.932   .     S
C537   C547    1.436   .     S
C537   O594    1.269   .     A
C537   O596    1.268   .     A
C538   C563    1.425   .     A
C538   O591    1.383   .     S
C538   C539    1.401   .     A
C539   I582    2.142   .     S
C539   C1144   1.406   .     S
C540   O595    1.273   .     A
C540   C546    1.456   .     S
C540   O597    1.275   .     A
C541   C542    1.422   .     A
C541   C543    1.409   .     A
C541   C1142   1.406   1_554 S
C542   C545    1.409   .     A
C542   C564    1.423   .     A
C543   H573    1.080   .     S
C543   C544    1.398   .     A
C544   C556    1.400   .     A
C544   O590    1.383   .     S
C545   H577    1.079   .     S
C545   C556    1.394   .     A
C546   C413    1.337   1_655 S
C546   I447    2.136   1_655 S
C548   I583    2.128   .     S
C548   C557    1.396   .     A
C548   C555    1.415   .     A
C549   C552    1.452   .     S
C549   C148    1.332   1_565 S
C549   H173    1.088   1_565 S
C550   C551    1.435   .     S
C551   O592    1.273   .     A
C551   O598    1.273   .     A
C552   O599    1.269   .     A
C552   O593    1.268   .     A
C553   O586    1.277   .     A
C553   C556    1.462   .     S
C553   O588    1.273   .     A
C554   O587    1.284   .     A
C554   C555    1.481   .     S
C554   O589    1.287   .     A
C555   C559    1.403   .     A
C557   C562    1.401   .     A
C557   H578    1.084   .     S
C558   O590    1.409   .     S
C558   H580    1.113   .     S
C558   H568    1.114   .     S
C558   H569    1.109   .     S
C559   C561    1.410   .     A
C559   H579    1.078   .     S
C560   H572    1.109   .     S
C560   O591    1.411   .     S
C560   H570    1.112   .     S
C560   H571    1.113   .     S
C561   C563    1.429   .     A
C561   C562    1.413   .     A
C562   C1169   1.393   .     S
C563   C1167   1.423   .     S
C564   C565    1.424   .     A
C564   C1166   1.423   1_554 S
C565   C566    1.392   .     A
C565   I584    2.138   .     S
C566   H567    1.084   .     S
C566   C1165   1.393   1_554 S
H574   C413    1.086   1_655 S
H576   C148    1.086   1_565 S
O585   Zn603   1.934   .     S
O585   Zn600   1.948   .     S
O585   Zn602   1.924   .     S
O585   Zn601   1.939   .     S
O586   Zn601   1.913   .     S
O587   Zn603   1.921   .     S
O588   Zn602   1.921   .     S
O589   Zn600   1.914   .     S
O592   Zn600   1.929   .     S
O593   Zn603   1.927   .     S
O594   Zn601   1.928   .     S
O595   Zn602   1.935   .     S
O596   Zn603   1.931   .     S
O597   Zn600   1.923   .     S
O598   Zn601   1.933   .     S
O599   Zn602   1.932   .     S
C604   C614    1.436   .     S
C604   O661    1.269   .     A
C604   O663    1.268   .     A
C605   C630    1.425   .     A
C605   O658    1.383   .     S
C605   C606    1.401   .     A
C606   I649    2.142   .     S
C606   C5      1.406   1_556 S
C607   O662    1.273   .     A
C607   C613    1.456   .     S
C607   O664    1.275   .     A
C608   C609    1.422   .     A
C608   C610    1.409   .     A
C609   C612    1.409   .     A
C609   C631    1.423   .     A
C610   H640    1.080   .     S
C610   C611    1.398   .     A
C611   C623    1.400   .     A
C611   O657    1.383   .     S
C612   H644    1.079   .     S
C612   C623    1.394   .     A
C613   C681    1.337   .     S
C613   I715    2.136   .     S
C614   C747    1.337   1_455 S
C614   H775    1.086   1_455 S
C615   I650    2.128   .     S
C615   C624    1.396   .     A
C615   C622    1.415   .     A
C616   C619    1.452   .     S
C616   C818    1.332   .     S
C616   H843    1.088   .     S
C617   C618    1.435   .     S
C617   C1018   1.332   1_545 S
C617   H1045   1.086   1_545 S
C618   O659    1.273   .     A
C618   O665    1.273   .     A
C619   O666    1.269   .     A
C619   O660    1.268   .     A
C620   O653    1.277   .     A
C620   C623    1.462   .     S
C620   O655    1.273   .     A
C621   O654    1.284   .     A
C621   C622    1.481   .     S
C621   O656    1.287   .     A
C622   C626    1.403   .     A
C624   C629    1.401   .     A
C624   H645    1.084   .     S
C625   O657    1.409   .     S
C625   H647    1.113   .     S
C625   H635    1.114   .     S
C625   H636    1.109   .     S
C626   C628    1.410   .     A
C626   H646    1.078   .     S
C627   H639    1.109   .     S
C627   O658    1.411   .     S
C627   H637    1.112   .     S
C627   H638    1.113   .     S
C628   C630    1.429   .     A
C628   C629    1.413   .     A
C629   C30     1.393   1_556 S
C630   C28     1.423   1_556 S
C631   C632    1.424   .     A
C632   C633    1.392   .     A
C632   I651    2.138   .     S
C633   H634    1.084   .     S
H641   C681    1.086   .     S
H642   C1018   1.088   1_545 S
H643   C818    1.086   .     S
I648   C747    2.136   1_455 S
O652   Zn670   1.934   .     S
O652   Zn667   1.948   .     S
O652   Zn669   1.924   .     S
O652   Zn668   1.939   .     S
O653   Zn668   1.913   .     S
O654   Zn670   1.921   .     S
O655   Zn669   1.921   .     S
O656   Zn667   1.914   .     S
O659   Zn667   1.929   .     S
O660   Zn670   1.927   .     S
O661   Zn668   1.928   .     S
O662   Zn669   1.935   .     S
O663   Zn670   1.931   .     S
O664   Zn667   1.923   .     S
O665   Zn668   1.933   .     S
O666   Zn669   1.932   .     S
C671   C681    1.436   .     S
C671   O728    1.269   .     A
C671   O730    1.268   .     A
C672   C697    1.425   .     A
C672   O725    1.383   .     S
C672   C673    1.401   .     A
C673   I716    2.142   .     S
C673   C72     1.406   1_556 S
C674   O729    1.273   .     A
C674   C680    1.456   .     S
C674   O731    1.275   .     A
C675   C676    1.422   .     A
C675   C677    1.409   .     A
C676   C679    1.409   .     A
C676   C698    1.423   .     A
C677   H707    1.080   .     S
C677   C678    1.398   .     A
C678   C690    1.400   .     A
C678   O724    1.383   .     S
C679   H711    1.079   .     S
C679   C690    1.394   .     A
C680   C748    1.337   .     S
C680   I782    2.136   .     S
C682   I717    2.128   .     S
C682   C691    1.396   .     A
C682   C689    1.415   .     A
C683   C686    1.452   .     S
C683   C885    1.332   .     S
C683   H910    1.088   .     S
C684   C685    1.435   .     S
C684   C1085   1.332   1_545 S
C684   H1112   1.086   1_545 S
C685   O726    1.273   .     A
C685   O732    1.273   .     A
C686   O733    1.269   .     A
C686   O727    1.268   .     A
C687   O720    1.277   .     A
C687   C690    1.462   .     S
C687   O722    1.273   .     A
C688   O721    1.284   .     A
C688   C689    1.481   .     S
C688   O723    1.287   .     A
C689   C693    1.403   .     A
C691   C696    1.401   .     A
C691   H712    1.084   .     S
C692   O724    1.409   .     S
C692   H714    1.113   .     S
C692   H702    1.114   .     S
C692   H703    1.109   .     S
C693   C695    1.410   .     A
C693   H713    1.078   .     S
C694   H706    1.109   .     S
C694   O725    1.411   .     S
C694   H704    1.112   .     S
C694   H705    1.113   .     S
C695   C697    1.429   .     A
C695   C696    1.413   .     A
C696   C97     1.393   1_556 S
C697   C95     1.423   1_556 S
C698   C699    1.424   .     A
C699   C700    1.392   .     A
C699   I718    2.138   .     S
C700   H701    1.084   .     S
H708   C748    1.086   .     S
H709   C1085   1.088   1_545 S
H710   C885    1.086   .     S
O719   Zn737   1.934   .     S
O719   Zn734   1.948   .     S
O719   Zn736   1.924   .     S
O719   Zn735   1.939   .     S
O720   Zn735   1.913   .     S
O721   Zn737   1.921   .     S
O722   Zn736   1.921   .     S
O723   Zn734   1.914   .     S
O726   Zn734   1.929   .     S
O727   Zn737   1.927   .     S
O728   Zn735   1.928   .     S
O729   Zn736   1.935   .     S
O730   Zn737   1.931   .     S
O731   Zn734   1.923   .     S
O732   Zn735   1.933   .     S
O733   Zn736   1.932   .     S
C738   C748    1.436   .     S
C738   O795    1.269   .     A
C738   O797    1.268   .     A
C739   C764    1.425   .     A
C739   O792    1.383   .     S
C739   C740    1.401   .     A
C740   I783    2.142   .     S
C740   C139    1.406   1_556 S
C741   O796    1.273   .     A
C741   C747    1.456   .     S
C741   O798    1.275   .     A
C742   C743    1.422   .     A
C742   C744    1.409   .     A
C743   C746    1.409   .     A
C743   C765    1.423   .     A
C744   H774    1.080   .     S
C744   C745    1.398   .     A
C745   C757    1.400   .     A
C745   O791    1.383   .     S
C746   H778    1.079   .     S
C746   C757    1.394   .     A
C747   C614    1.337   1_655 S
C747   I648    2.136   1_655 S
C749   I784    2.128   .     S
C749   C758    1.396   .     A
C749   C756    1.415   .     A
C750   C753    1.452   .     S
C750   C952    1.332   .     S
C750   H977    1.088   .     S
C751   C752    1.435   .     S
C751   C1152   1.332   1_545 S
C751   H1179   1.086   1_545 S
C752   O793    1.273   .     A
C752   O799    1.273   .     A
C753   O800    1.269   .     A
C753   O794    1.268   .     A
C754   O787    1.277   .     A
C754   C757    1.462   .     S
C754   O789    1.273   .     A
C755   O788    1.284   .     A
C755   C756    1.481   .     S
C755   O790    1.287   .     A
C756   C760    1.403   .     A
C758   C763    1.401   .     A
C758   H779    1.084   .     S
C759   O791    1.409   .     S
C759   H781    1.113   .     S
C759   H769    1.114   .     S
C759   H770    1.109   .     S
C760   C762    1.410   .     A
C760   H780    1.078   .     S
C761   H773    1.109   .     S
C761   O792    1.411   .     S
C761   H771    1.112   .     S
C761   H772    1.113   .     S
C762   C764    1.429   .     A
C762   C763    1.413   .     A
C763   C164    1.393   1_556 S
C764   C162    1.423   1_556 S
C765   C766    1.424   .     A
C766   C767    1.392   .     A
C766   I785    2.138   .     S
C767   H768    1.084   .     S
H775   C614    1.086   1_655 S
H776   C1152   1.088   1_545 S
H777   C952    1.086   .     S
O786   Zn804   1.934   .     S
O786   Zn801   1.948   .     S
O786   Zn803   1.924   .     S
O786   Zn802   1.939   .     S
O787   Zn802   1.913   .     S
O788   Zn804   1.921   .     S
O789   Zn803   1.921   .     S
O790   Zn801   1.914   .     S
O793   Zn801   1.929   .     S
O794   Zn804   1.927   .     S
O795   Zn802   1.928   .     S
O796   Zn803   1.935   .     S
O797   Zn804   1.931   .     S
O798   Zn801   1.923   .     S
O799   Zn802   1.933   .     S
O800   Zn803   1.932   .     S
C805   C815    1.436   .     S
C805   O862    1.269   .     A
C805   O864    1.268   .     A
C806   C831    1.425   .     A
C806   O859    1.383   .     S
C806   C807    1.401   .     A
C807   I850    2.142   .     S
C807   C206    1.406   1_556 S
C808   O863    1.273   .     A
C808   C814    1.456   .     S
C808   O865    1.275   .     A
C809   C810    1.422   .     A
C809   C811    1.409   .     A
C810   C813    1.409   .     A
C810   C832    1.423   .     A
C811   H841    1.080   .     S
C811   C812    1.398   .     A
C812   C824    1.400   .     A
C812   O858    1.383   .     S
C813   H845    1.079   .     S
C813   C824    1.394   .     A
C814   C882    1.337   .     S
C814   I916    2.136   .     S
C815   C948    1.337   1_455 S
C815   H976    1.086   1_455 S
C816   I851    2.128   .     S
C816   C825    1.396   .     A
C816   C823    1.415   .     A
C817   C820    1.452   .     S
C817   C1019   1.332   .     S
C817   H1044   1.088   .     S
C818   C819    1.435   .     S
C819   O860    1.273   .     A
C819   O866    1.273   .     A
C820   O867    1.269   .     A
C820   O861    1.268   .     A
C821   O854    1.277   .     A
C821   C824    1.462   .     S
C821   O856    1.273   .     A
C822   O855    1.284   .     A
C822   C823    1.481   .     S
C822   O857    1.287   .     A
C823   C827    1.403   .     A
C825   C830    1.401   .     A
C825   H846    1.084   .     S
C826   O858    1.409   .     S
C826   H848    1.113   .     S
C826   H836    1.114   .     S
C826   H837    1.109   .     S
C827   C829    1.410   .     A
C827   H847    1.078   .     S
C828   H840    1.109   .     S
C828   O859    1.411   .     S
C828   H838    1.112   .     S
C828   H839    1.113   .     S
C829   C831    1.429   .     A
C829   C830    1.413   .     A
C830   C231    1.393   1_556 S
C831   C229    1.423   1_556 S
C832   C833    1.424   .     A
C833   C834    1.392   .     A
C833   I852    2.138   .     S
C834   H835    1.084   .     S
H842   C882    1.086   .     S
H844   C1019   1.086   .     S
I849   C948    2.136   1_455 S
O853   Zn871   1.934   .     S
O853   Zn868   1.948   .     S
O853   Zn870   1.924   .     S
O853   Zn869   1.939   .     S
O854   Zn869   1.913   .     S
O855   Zn871   1.921   .     S
O856   Zn870   1.921   .     S
O857   Zn868   1.914   .     S
O860   Zn868   1.929   .     S
O861   Zn871   1.927   .     S
O862   Zn869   1.928   .     S
O863   Zn870   1.935   .     S
O864   Zn871   1.931   .     S
O865   Zn868   1.923   .     S
O866   Zn869   1.933   .     S
O867   Zn870   1.932   .     S
C872   C882    1.436   .     S
C872   O929    1.269   .     A
C872   O931    1.268   .     A
C873   C898    1.425   .     A
C873   O926    1.383   .     S
C873   C874    1.401   .     A
C874   I917    2.142   .     S
C874   C273    1.406   1_556 S
C875   O930    1.273   .     A
C875   C881    1.456   .     S
C875   O932    1.275   .     A
C876   C877    1.422   .     A
C876   C878    1.409   .     A
C877   C880    1.409   .     A
C877   C899    1.423   .     A
C878   H908    1.080   .     S
C878   C879    1.398   .     A
C879   C891    1.400   .     A
C879   O925    1.383   .     S
C880   H912    1.079   .     S
C880   C891    1.394   .     A
C881   C949    1.337   .     S
C881   I983    2.136   .     S
C883   I918    2.128   .     S
C883   C892    1.396   .     A
C883   C890    1.415   .     A
C884   C887    1.452   .     S
C884   C1086   1.332   .     S
C884   H1111   1.088   .     S
C885   C886    1.435   .     S
C886   O927    1.273   .     A
C886   O933    1.273   .     A
C887   O934    1.269   .     A
C887   O928    1.268   .     A
C888   O921    1.277   .     A
C888   C891    1.462   .     S
C888   O923    1.273   .     A
C889   O922    1.284   .     A
C889   C890    1.481   .     S
C889   O924    1.287   .     A
C890   C894    1.403   .     A
C892   C897    1.401   .     A
C892   H913    1.084   .     S
C893   O925    1.409   .     S
C893   H915    1.113   .     S
C893   H903    1.114   .     S
C893   H904    1.109   .     S
C894   C896    1.410   .     A
C894   H914    1.078   .     S
C895   H907    1.109   .     S
C895   O926    1.411   .     S
C895   H905    1.112   .     S
C895   H906    1.113   .     S
C896   C898    1.429   .     A
C896   C897    1.413   .     A
C897   C298    1.393   1_556 S
C898   C296    1.423   1_556 S
C899   C900    1.424   .     A
C900   C901    1.392   .     A
C900   I919    2.138   .     S
C901   H902    1.084   .     S
H909   C949    1.086   .     S
H911   C1086   1.086   .     S
O920   Zn938   1.934   .     S
O920   Zn935   1.948   .     S
O920   Zn937   1.924   .     S
O920   Zn936   1.939   .     S
O921   Zn936   1.913   .     S
O922   Zn938   1.921   .     S
O923   Zn937   1.921   .     S
O924   Zn935   1.914   .     S
O927   Zn935   1.929   .     S
O928   Zn938   1.927   .     S
O929   Zn936   1.928   .     S
O930   Zn937   1.935   .     S
O931   Zn938   1.931   .     S
O932   Zn935   1.923   .     S
O933   Zn936   1.933   .     S
O934   Zn937   1.932   .     S
C939   C949    1.436   .     S
C939   O996    1.269   .     A
C939   O998    1.268   .     A
C940   C965    1.425   .     A
C940   O993    1.383   .     S
C940   C941    1.401   .     A
C941   I984    2.142   .     S
C941   C340    1.406   1_556 S
C942   O997    1.273   .     A
C942   C948    1.456   .     S
C942   O999    1.275   .     A
C943   C944    1.422   .     A
C943   C945    1.409   .     A
C944   C947    1.409   .     A
C944   C966    1.423   .     A
C945   H975    1.080   .     S
C945   C946    1.398   .     A
C946   C958    1.400   .     A
C946   O992    1.383   .     S
C947   H979    1.079   .     S
C947   C958    1.394   .     A
C948   C815    1.337   1_655 S
C948   I849    2.136   1_655 S
C950   I985    2.128   .     S
C950   C959    1.396   .     A
C950   C957    1.415   .     A
C951   C954    1.452   .     S
C951   C1153   1.332   .     S
C951   H1178   1.088   .     S
C952   C953    1.435   .     S
C953   O994    1.273   .     A
C953   O1000   1.273   .     A
C954   O1001   1.269   .     A
C954   O995    1.268   .     A
C955   O988    1.277   .     A
C955   C958    1.462   .     S
C955   O990    1.273   .     A
C956   O989    1.284   .     A
C956   C957    1.481   .     S
C956   O991    1.287   .     A
C957   C961    1.403   .     A
C959   C964    1.401   .     A
C959   H980    1.084   .     S
C960   O992    1.409   .     S
C960   H982    1.113   .     S
C960   H970    1.114   .     S
C960   H971    1.109   .     S
C961   C963    1.410   .     A
C961   H981    1.078   .     S
C962   H974    1.109   .     S
C962   O993    1.411   .     S
C962   H972    1.112   .     S
C962   H973    1.113   .     S
C963   C965    1.429   .     A
C963   C964    1.413   .     A
C964   C365    1.393   1_556 S
C965   C363    1.423   1_556 S
C966   C967    1.424   .     A
C967   C968    1.392   .     A
C967   I986    2.138   .     S
C968   H969    1.084   .     S
H976   C815    1.086   1_655 S
H978   C1153   1.086   .     S
O987   Zn1005  1.934   .     S
O987   Zn1002  1.948   .     S
O987   Zn1004  1.924   .     S
O987   Zn1003  1.939   .     S
O988   Zn1003  1.913   .     S
O989   Zn1005  1.921   .     S
O990   Zn1004  1.921   .     S
O991   Zn1002  1.914   .     S
O994   Zn1002  1.929   .     S
O995   Zn1005  1.927   .     S
O996   Zn1003  1.928   .     S
O997   Zn1004  1.935   .     S
O998   Zn1005  1.931   .     S
O999   Zn1002  1.923   .     S
O1000  Zn1003  1.933   .     S
O1001  Zn1004  1.932   .     S
C1006  C1016   1.436   .     S
C1006  O1063   1.269   .     A
C1006  O1065   1.268   .     A
C1007  C1032   1.425   .     A
C1007  O1060   1.383   .     S
C1007  C1008   1.401   .     A
C1008  I1051   2.142   .     S
C1008  C407    1.406   1_556 S
C1009  O1064   1.273   .     A
C1009  C1015   1.456   .     S
C1009  O1066   1.275   .     A
C1010  C1011   1.422   .     A
C1010  C1012   1.409   .     A
C1011  C1014   1.409   .     A
C1011  C1033   1.423   .     A
C1012  H1042   1.080   .     S
C1012  C1013   1.398   .     A
C1013  C1025   1.400   .     A
C1013  O1059   1.383   .     S
C1014  H1046   1.079   .     S
C1014  C1025   1.394   .     A
C1015  C1083   1.337   .     S
C1015  I1117   2.136   .     S
C1016  C1149   1.337   1_455 S
C1016  H1177   1.086   1_455 S
C1017  I1052   2.128   .     S
C1017  C1026   1.396   .     A
C1017  C1024   1.415   .     A
C1018  C1021   1.452   .     S
C1018  C617    1.332   1_565 S
C1018  H642    1.088   1_565 S
C1019  C1020   1.435   .     S
C1020  O1061   1.273   .     A
C1020  O1067   1.273   .     A
C1021  O1068   1.269   .     A
C1021  O1062   1.268   .     A
C1022  O1055   1.277   .     A
C1022  C1025   1.462   .     S
C1022  O1057   1.273   .     A
C1023  O1056   1.284   .     A
C1023  C1024   1.481   .     S
C1023  O1058   1.287   .     A
C1024  C1028   1.403   .     A
C1026  C1031   1.401   .     A
C1026  H1047   1.084   .     S
C1027  O1059   1.409   .     S
C1027  H1049   1.113   .     S
C1027  H1037   1.114   .     S
C1027  H1038   1.109   .     S
C1028  C1030   1.410   .     A
C1028  H1048   1.078   .     S
C1029  H1041   1.109   .     S
C1029  O1060   1.411   .     S
C1029  H1039   1.112   .     S
C1029  H1040   1.113   .     S
C1030  C1032   1.429   .     A
C1030  C1031   1.413   .     A
C1031  C432    1.393   1_556 S
C1032  C430    1.423   1_556 S
C1033  C1034   1.424   .     A
C1034  C1035   1.392   .     A
C1034  I1053   2.138   .     S
C1035  H1036   1.084   .     S
H1043  C1083   1.086   .     S
H1045  C617    1.086   1_565 S
I1050  C1149   2.136   1_455 S
O1054  Zn1072  1.934   .     S
O1054  Zn1069  1.948   .     S
O1054  Zn1071  1.924   .     S
O1054  Zn1070  1.939   .     S
O1055  Zn1070  1.913   .     S
O1056  Zn1072  1.921   .     S
O1057  Zn1071  1.921   .     S
O1058  Zn1069  1.914   .     S
O1061  Zn1069  1.929   .     S
O1062  Zn1072  1.927   .     S
O1063  Zn1070  1.928   .     S
O1064  Zn1071  1.935   .     S
O1065  Zn1072  1.931   .     S
O1066  Zn1069  1.923   .     S
O1067  Zn1070  1.933   .     S
O1068  Zn1071  1.932   .     S
C1073  C1083   1.436   .     S
C1073  O1130   1.269   .     A
C1073  O1132   1.268   .     A
C1074  C1099   1.425   .     A
C1074  O1127   1.383   .     S
C1074  C1075   1.401   .     A
C1075  I1118   2.142   .     S
C1075  C474    1.406   1_556 S
C1076  O1131   1.273   .     A
C1076  C1082   1.456   .     S
C1076  O1133   1.275   .     A
C1077  C1078   1.422   .     A
C1077  C1079   1.409   .     A
C1078  C1081   1.409   .     A
C1078  C1100   1.423   .     A
C1079  H1109   1.080   .     S
C1079  C1080   1.398   .     A
C1080  C1092   1.400   .     A
C1080  O1126   1.383   .     S
C1081  H1113   1.079   .     S
C1081  C1092   1.394   .     A
C1082  C1150   1.337   .     S
C1082  I1184   2.136   .     S
C1084  I1119   2.128   .     S
C1084  C1093   1.396   .     A
C1084  C1091   1.415   .     A
C1085  C1088   1.452   .     S
C1085  C684    1.332   1_565 S
C1085  H709    1.088   1_565 S
C1086  C1087   1.435   .     S
C1087  O1128   1.273   .     A
C1087  O1134   1.273   .     A
C1088  O1135   1.269   .     A
C1088  O1129   1.268   .     A
C1089  O1122   1.277   .     A
C1089  C1092   1.462   .     S
C1089  O1124   1.273   .     A
C1090  O1123   1.284   .     A
C1090  C1091   1.481   .     S
C1090  O1125   1.287   .     A
C1091  C1095   1.403   .     A
C1093  C1098   1.401   .     A
C1093  H1114   1.084   .     S
C1094  O1126   1.409   .     S
C1094  H1116   1.113   .     S
C1094  H1104   1.114   .     S
C1094  H1105   1.109   .     S
C1095  C1097   1.410   .     A
C1095  H1115   1.078   .     S
C1096  H1108   1.109   .     S
C1096  O1127   1.411   .     S
C1096  H1106   1.112   .     S
C1096  H1107   1.113   .     S
C1097  C1099   1.429   .     A
C1097  C1098   1.413   .     A
C1098  C499    1.393   1_556 S
C1099  C497    1.423   1_556 S
C1100  C1101   1.424   .     A
C1101  C1102   1.392   .     A
C1101  I1120   2.138   .     S
C1102  H1103   1.084   .     S
H1110  C1150   1.086   .     S
H1112  C684    1.086   1_565 S
O1121  Zn1139  1.934   .     S
O1121  Zn1136  1.948   .     S
O1121  Zn1138  1.924   .     S
O1121  Zn1137  1.939   .     S
O1122  Zn1137  1.913   .     S
O1123  Zn1139  1.921   .     S
O1124  Zn1138  1.921   .     S
O1125  Zn1136  1.914   .     S
O1128  Zn1136  1.929   .     S
O1129  Zn1139  1.927   .     S
O1130  Zn1137  1.928   .     S
O1131  Zn1138  1.935   .     S
O1132  Zn1139  1.931   .     S
O1133  Zn1136  1.923   .     S
O1134  Zn1137  1.933   .     S
O1135  Zn1138  1.932   .     S
C1140  C1150   1.436   .     S
C1140  O1197   1.269   .     A
C1140  O1199   1.268   .     A
C1141  C1166   1.425   .     A
C1141  O1194   1.383   .     S
C1141  C1142   1.401   .     A
C1142  I1185   2.142   .     S
C1142  C541    1.406   1_556 S
C1143  O1198   1.273   .     A
C1143  C1149   1.456   .     S
C1143  O1200   1.275   .     A
C1144  C1145   1.422   .     A
C1144  C1146   1.409   .     A
C1145  C1148   1.409   .     A
C1145  C1167   1.423   .     A
C1146  H1176   1.080   .     S
C1146  C1147   1.398   .     A
C1147  C1159   1.400   .     A
C1147  O1193   1.383   .     S
C1148  H1180   1.079   .     S
C1148  C1159   1.394   .     A
C1149  C1016   1.337   1_655 S
C1149  I1050   2.136   1_655 S
C1151  I1186   2.128   .     S
C1151  C1160   1.396   .     A
C1151  C1158   1.415   .     A
C1152  C1155   1.452   .     S
C1152  C751    1.332   1_565 S
C1152  H776    1.088   1_565 S
C1153  C1154   1.435   .     S
C1154  O1195   1.273   .     A
C1154  O1201   1.273   .     A
C1155  O1202   1.269   .     A
C1155  O1196   1.268   .     A
C1156  O1189   1.277   .     A
C1156  C1159   1.462   .     S
C1156  O1191   1.273   .     A
C1157  O1190   1.284   .     A
C1157  C1158   1.481   .     S
C1157  O1192   1.287   .     A
C1158  C1162   1.403   .     A
C1160  C1165   1.401   .     A
C1160  H1181   1.084   .     S
C1161  O1193   1.409   .     S
C1161  H1183   1.113   .     S
C1161  H1171   1.114   .     S
C1161  H1172   1.109   .     S
C1162  C1164   1.410   .     A
C1162  H1182   1.078   .     S
C1163  H1175   1.109   .     S
C1163  O1194   1.411   .     S
C1163  H1173   1.112   .     S
C1163  H1174   1.113   .     S
C1164  C1166   1.429   .     A
C1164  C1165   1.413   .     A
C1165  C566    1.393   1_556 S
C1166  C564    1.423   1_556 S
C1167  C1168   1.424   .     A
C1168  C1169   1.392   .     A
C1168  I1187   2.138   .     S
C1169  H1170   1.084   .     S
H1177  C1016   1.086   1_655 S
H1179  C751    1.086   1_565 S
O1188  Zn1206  1.934   .     S
O1188  Zn1203  1.948   .     S
O1188  Zn1205  1.924   .     S
O1188  Zn1204  1.939   .     S
O1189  Zn1204  1.913   .     S
O1190  Zn1206  1.921   .     S
O1191  Zn1205  1.921   .     S
O1192  Zn1203  1.914   .     S
O1195  Zn1203  1.929   .     S
O1196  Zn1206  1.927   .     S
O1197  Zn1204  1.928   .     S
O1198  Zn1205  1.935   .     S
O1199  Zn1206  1.931   .     S
O1200  Zn1203  1.923   .     S
O1201  Zn1204  1.933   .     S
O1202  Zn1205  1.932   .     S
