data_str_m1_o1_o17_pcu_sym.32
_audit_creation_date              2020-01-03
_audit_creation_method            'Materials Studio'
_symmetry_space_group_name_H-M    'P1'
_symmetry_Int_Tables_number       1
_symmetry_cell_setting            triclinic
loop_
_symmetry_equiv_pos_as_xyz
  x,y,z
_cell_length_a                    36.7028
_cell_length_b                    36.7028
_cell_length_c                    34.4403
_cell_angle_alpha                 90.0003
_cell_angle_beta                  90.0003
_cell_angle_gamma                 90.0582
loop_
_atom_site_label
_atom_site_type_symbol
_atom_site_fract_x
_atom_site_fract_y
_atom_site_fract_z
_atom_site_U_iso_or_equiv
_atom_site_adp_type
_atom_site_occupancy
C1     C     0.49038   0.28225   0.41774   0.00000  Uiso   1.00
C2     C     0.25961   0.46775   0.08226   0.00000  Uiso   1.00
C3     C     0.21812   0.01030   0.54120   0.00000  Uiso   1.00
C4     C     0.48970   0.28188   0.45880   0.00000  Uiso   1.00
C5     C     0.01030   0.21812   0.54120   0.00000  Uiso   1.00
C6     C     0.21812   0.01030   0.45880   0.00000  Uiso   1.00
C7     C     0.28188   0.48970   0.54120   0.00000  Uiso   1.00
C8     C     0.26030   0.46812   0.95879   0.00000  Uiso   1.00
C9     C     0.23970   0.03188   0.04120   0.00000  Uiso   1.00
C10    C     0.03188   0.23970   0.95880   0.00000  Uiso   1.00
C11    C     0.46812   0.26030   0.04120   0.00000  Uiso   1.00
C12    C     0.23970   0.03188   0.95880   0.00000  Uiso   1.00
C13    C     0.46775   0.25962   0.91774   0.00000  Uiso   1.00
C14    C     0.26030   0.46812   0.04120   0.00000  Uiso   1.00
C15    C     0.46812   0.26030   0.95879   0.00000  Uiso   1.00
C16    C     0.03188   0.23970   0.04120   0.00000  Uiso   1.00
C17    C     0.09811   0.34811   0.25000   0.00000  Uiso   1.00
C18    C     0.40189   0.15189   0.75000   0.00000  Uiso   1.00
C19    C     0.15189   0.09811   0.25000   0.00000  Uiso   1.00
C20    C     0.34811   0.40189   0.75000   0.00000  Uiso   1.00
C21    C     0.40189   0.15189   0.25000   0.00000  Uiso   1.00
C22    C     0.09811   0.34811   0.75000   0.00000  Uiso   1.00
C23    C     0.34811   0.40189   0.25000   0.00000  Uiso   1.00
C24    C     0.03225   0.24038   0.08226   0.00000  Uiso   1.00
C25    C     0.15189   0.09812   0.75000   0.00000  Uiso   1.00
C26    C     0.09811   0.15189   0.75000   0.00000  Uiso   1.00
C27    C     0.40189   0.34811   0.25000   0.00000  Uiso   1.00
C28    C     0.15189   0.40189   0.75000   0.00000  Uiso   1.00
C29    C     0.34811   0.09811   0.25000   0.00000  Uiso   1.00
C30    C     0.40189   0.34811   0.75000   0.00000  Uiso   1.00
C31    C     0.09811   0.15189   0.25000   0.00000  Uiso   1.00
C32    C     0.34811   0.09811   0.75000   0.00000  Uiso   1.00
C33    C     0.15189   0.40189   0.25000   0.00000  Uiso   1.00
C34    C     0.00000   0.25000   0.47933   0.00000  Uiso   1.00
C35    C     0.25961   0.46775   0.91774   0.00000  Uiso   1.00
C36    C     0.00000   0.25000   0.52067   0.00000  Uiso   1.00
C37    C     0.25000   0.00000   0.47933   0.00000  Uiso   1.00
C38    C     0.25000   0.00000   0.52067   0.00000  Uiso   1.00
C39    C     0.25000   0.00000   0.97933   0.00000  Uiso   1.00
C40    C     0.25000   0.00000   0.02067   0.00000  Uiso   1.00
C41    C    -0.00000   0.25000   0.97933   0.00000  Uiso   1.00
C42    C    -0.00000   0.25000   0.02067   0.00000  Uiso   1.00
C43    C     0.48181   0.31702   0.39491   0.00000  Uiso   1.00
C44    C     0.44077   0.32231   0.38996   0.00000  Uiso   1.00
C45    C     0.01819   0.18298   0.60509   0.00000  Uiso   1.00
C46    C     0.24038   0.03225   0.08226   0.00000  Uiso   1.00
C47    C     0.05923   0.17769   0.61004   0.00000  Uiso   1.00
C48    C     0.18298   0.01819   0.39491   0.00000  Uiso   1.00
C49    C     0.17769   0.05924   0.38996   0.00000  Uiso   1.00
C50    C     0.31702   0.48181   0.60509   0.00000  Uiso   1.00
C51    C     0.32231   0.44076   0.61004   0.00000  Uiso   1.00
C52    C     0.01819   0.18298   0.39490   0.00000  Uiso   1.00
C53    C     0.05923   0.17769   0.38996   0.00000  Uiso   1.00
C54    C     0.48181   0.31702   0.60509   0.00000  Uiso   1.00
C55    C     0.44076   0.32231   0.61004   0.00000  Uiso   1.00
C56    C     0.31702   0.48180   0.39491   0.00000  Uiso   1.00
C57    C     0.03225   0.24038   0.91774   0.00000  Uiso   1.00
C58    C     0.32231   0.44076   0.38996   0.00000  Uiso   1.00
C59    C     0.18298   0.01820   0.60509   0.00000  Uiso   1.00
C60    C     0.17769   0.05924   0.61004   0.00000  Uiso   1.00
C61    C     0.23182   0.06702   0.89491   0.00000  Uiso   1.00
C62    C     0.19078   0.07232   0.88996   0.00000  Uiso   1.00
C63    C     0.26819   0.43298   0.10509   0.00000  Uiso   1.00
C64    C     0.30923   0.42769   0.11003   0.00000  Uiso   1.00
C65    C     0.43298   0.26820   0.89490   0.00000  Uiso   1.00
C66    C     0.42769   0.30924   0.88997   0.00000  Uiso   1.00
C67    C     0.06702   0.23180   0.10509   0.00000  Uiso   1.00
C68    C     0.46775   0.25962   0.08226   0.00000  Uiso   1.00
C69    C     0.07231   0.19076   0.11003   0.00000  Uiso   1.00
C70    C     0.26819   0.43298   0.89490   0.00000  Uiso   1.00
C71    C     0.30923   0.42768   0.88996   0.00000  Uiso   1.00
C72    C     0.23181   0.06702   0.10509   0.00000  Uiso   1.00
C73    C     0.19077   0.07231   0.11003   0.00000  Uiso   1.00
C74    C     0.06702   0.23180   0.89491   0.00000  Uiso   1.00
C75    C     0.07231   0.19076   0.88997   0.00000  Uiso   1.00
C76    C     0.43298   0.26820   0.10509   0.00000  Uiso   1.00
C77    C     0.42769   0.30924   0.11003   0.00000  Uiso   1.00
C78    C     0.00000   0.25000   0.39783   0.00000  Uiso   1.00
C79    C    -0.00000   0.25000   0.60217   0.00000  Uiso   1.00
C80    C     0.25000   0.00000   0.39783   0.00000  Uiso   1.00
C81    C     0.00962   0.21775   0.58226   0.00000  Uiso   1.00
C82    C     0.25000   0.00000   0.60217   0.00000  Uiso   1.00
C83    C     0.25000   0.00000   0.89783   0.00000  Uiso   1.00
C84    C     0.25000   0.00000   0.10217   0.00000  Uiso   1.00
C85    C    -0.00000   0.25000   0.89783   0.00000  Uiso   1.00
C86    C    -0.00000   0.25000   0.10217   0.00000  Uiso   1.00
C87    C     0.02097   0.18722   0.47996   0.00000  Uiso   1.00
C88    C     0.47903   0.31279   0.52004   0.00000  Uiso   1.00
C89    C     0.31278   0.47903   0.47996   0.00000  Uiso   1.00
C90    C     0.18722   0.02097   0.52004   0.00000  Uiso   1.00
C91    C     0.47903   0.31279   0.47996   0.00000  Uiso   1.00
C92    C     0.21775   0.00962   0.41774   0.00000  Uiso   1.00
C93    C     0.02097   0.18721   0.52004   0.00000  Uiso   1.00
C94    C     0.18722   0.02097   0.47996   0.00000  Uiso   1.00
C95    C     0.31278   0.47903   0.52004   0.00000  Uiso   1.00
C96    C     0.27096   0.43721   0.97995   0.00000  Uiso   1.00
C97    C     0.22903   0.06279   0.02004   0.00000  Uiso   1.00
C98    C     0.06278   0.22903   0.97996   0.00000  Uiso   1.00
C99    C     0.43721   0.27097   0.02004   0.00000  Uiso   1.00
C100   C     0.22904   0.06279   0.97996   0.00000  Uiso   1.00
C101   C     0.27096   0.43721   0.02004   0.00000  Uiso   1.00
C102   C     0.43722   0.27097   0.97995   0.00000  Uiso   1.00
C103   C     0.28225   0.49038   0.58226   0.00000  Uiso   1.00
C104   C     0.06278   0.22903   0.02004   0.00000  Uiso   1.00
C105   C     0.25000   0.00000   0.35563   0.00000  Uiso   1.00
C106   C     0.25000   0.00000   0.64437   0.00000  Uiso   1.00
C107   C     0.00000   0.25000   0.35563   0.00000  Uiso   1.00
C108   C    -0.00000   0.25000   0.64437   0.00000  Uiso   1.00
C109   C     0.00000   0.25000   0.85563   0.00000  Uiso   1.00
C110   C    -0.00000   0.25000   0.14437   0.00000  Uiso   1.00
C111   C     0.25000   0.00000   0.85563   0.00000  Uiso   1.00
C112   C     0.25000   0.00000   0.14437   0.00000  Uiso   1.00
C113   C     0.17995   0.07005   0.25000   0.00000  Uiso   1.00
C114   C     0.00962   0.21775   0.41774   0.00000  Uiso   1.00
C115   C     0.32005   0.42995   0.75000   0.00000  Uiso   1.00
C116   C     0.42996   0.17996   0.25000   0.00000  Uiso   1.00
C117   C     0.07004   0.32004   0.75000   0.00000  Uiso   1.00
C118   C     0.32005   0.42995   0.25000   0.00000  Uiso   1.00
C119   C     0.17995   0.07005   0.75000   0.00000  Uiso   1.00
C120   C     0.07004   0.32004   0.25000   0.00000  Uiso   1.00
C121   C     0.42996   0.17996   0.75000   0.00000  Uiso   1.00
C122   C     0.17996   0.42996   0.75000   0.00000  Uiso   1.00
C123   C     0.32004   0.07004   0.25000   0.00000  Uiso   1.00
C124   C     0.42995   0.32005   0.75000   0.00000  Uiso   1.00
C125   C     0.49038   0.28225   0.58226   0.00000  Uiso   1.00
C126   C     0.07005   0.17995   0.25000   0.00000  Uiso   1.00
C127   C     0.32004   0.07004   0.75000   0.00000  Uiso   1.00
C128   C     0.17996   0.42996   0.25000   0.00000  Uiso   1.00
C129   C     0.07005   0.17995   0.75000   0.00000  Uiso   1.00
C130   C     0.42995   0.32005   0.25000   0.00000  Uiso   1.00
C131   C     0.13041   0.39632   0.21677   0.00000  Uiso   1.00
C132   C     0.36959   0.10368   0.78323   0.00000  Uiso   1.00
C133   C     0.10184   0.12853   0.21793   0.00000  Uiso   1.00
C134   C     0.39816   0.37147   0.78207   0.00000  Uiso   1.00
C135   C     0.36958   0.10368   0.21677   0.00000  Uiso   1.00
C136   C     0.28225   0.49038   0.41774   0.00000  Uiso   1.00
C137   C     0.13041   0.39632   0.78323   0.00000  Uiso   1.00
C138   C     0.39816   0.37147   0.21793   0.00000  Uiso   1.00
C139   C     0.10184   0.12853   0.78207   0.00000  Uiso   1.00
C140   C     0.12853   0.10184   0.78207   0.00000  Uiso   1.00
C141   C     0.37147   0.39816   0.21793   0.00000  Uiso   1.00
C142   C     0.10368   0.36959   0.78323   0.00000  Uiso   1.00
C143   C     0.39632   0.13041   0.21677   0.00000  Uiso   1.00
C144   C     0.37147   0.39816   0.78207   0.00000  Uiso   1.00
C145   C     0.12853   0.10184   0.21793   0.00000  Uiso   1.00
C146   C     0.39632   0.13042   0.78323   0.00000  Uiso   1.00
C147   C     0.21775   0.00962   0.58226   0.00000  Uiso   1.00
C148   C     0.10368   0.36959   0.21677   0.00000  Uiso   1.00
C149   C     0.38041   0.14632   0.71677   0.00000  Uiso   1.00
C150   C     0.11959   0.35368   0.28323   0.00000  Uiso   1.00
C151   C     0.35184   0.37853   0.71793   0.00000  Uiso   1.00
C152   C     0.14816   0.12147   0.28207   0.00000  Uiso   1.00
C153   C     0.11958   0.35368   0.71677   0.00000  Uiso   1.00
C154   C     0.38041   0.14632   0.28323   0.00000  Uiso   1.00
C155   C     0.14816   0.12147   0.71793   0.00000  Uiso   1.00
C156   C     0.35184   0.37853   0.28207   0.00000  Uiso   1.00
C157   C     0.37853   0.35184   0.28207   0.00000  Uiso   1.00
C158   C     0.24039   0.03225   0.91774   0.00000  Uiso   1.00
C159   C     0.12147   0.14816   0.71793   0.00000  Uiso   1.00
C160   C     0.35368   0.11959   0.28323   0.00000  Uiso   1.00
C161   C     0.14632   0.38041   0.71677   0.00000  Uiso   1.00
C162   C     0.12147   0.14816   0.28207   0.00000  Uiso   1.00
C163   C     0.37853   0.35184   0.71793   0.00000  Uiso   1.00
C164   C     0.14632   0.38042   0.28323   0.00000  Uiso   1.00
C165   C     0.35368   0.11959   0.71677   0.00000  Uiso   1.00
C166   C     0.01030   0.21812   0.45879   0.00000  Uiso   1.00
C167   C     0.48970   0.28188   0.54120   0.00000  Uiso   1.00
C168   C     0.28188   0.48970   0.45880   0.00000  Uiso   1.00
F169   F     0.13582   0.41607   0.18391   0.00000  Uiso   1.00
F170   F     0.36816   0.41982   0.18615   0.00000  Uiso   1.00
F171   F     0.08393   0.36418   0.81609   0.00000  Uiso   1.00
F172   F     0.41607   0.13582   0.18391   0.00000  Uiso   1.00
F173   F     0.36816   0.41982   0.81385   0.00000  Uiso   1.00
F174   F     0.13184   0.08018   0.18615   0.00000  Uiso   1.00
F175   F     0.41607   0.13582   0.81609   0.00000  Uiso   1.00
F176   F     0.08393   0.36418   0.18391   0.00000  Uiso   1.00
F177   F     0.38582   0.16607   0.68391   0.00000  Uiso   1.00
F178   F     0.11418   0.33393   0.31609   0.00000  Uiso   1.00
F179   F     0.33018   0.38184   0.68615   0.00000  Uiso   1.00
F180   F     0.36418   0.08393   0.81609   0.00000  Uiso   1.00
F181   F     0.16982   0.11816   0.31385   0.00000  Uiso   1.00
F182   F     0.11418   0.33393   0.68391   0.00000  Uiso   1.00
F183   F     0.38582   0.16607   0.31609   0.00000  Uiso   1.00
F184   F     0.16982   0.11816   0.68615   0.00000  Uiso   1.00
F185   F     0.33018   0.38184   0.31385   0.00000  Uiso   1.00
F186   F     0.38184   0.33018   0.31385   0.00000  Uiso   1.00
F187   F     0.11816   0.16982   0.68615   0.00000  Uiso   1.00
F188   F     0.33393   0.11418   0.31609   0.00000  Uiso   1.00
F189   F     0.16607   0.38582   0.68391   0.00000  Uiso   1.00
F190   F     0.11816   0.16982   0.31385   0.00000  Uiso   1.00
F191   F     0.08018   0.13184   0.18615   0.00000  Uiso   1.00
F192   F     0.38184   0.33018   0.68615   0.00000  Uiso   1.00
F193   F     0.16607   0.38582   0.31609   0.00000  Uiso   1.00
F194   F     0.33393   0.11418   0.68391   0.00000  Uiso   1.00
F195   F     0.41982   0.36816   0.81385   0.00000  Uiso   1.00
F196   F     0.36418   0.08393   0.18391   0.00000  Uiso   1.00
F197   F     0.13582   0.41607   0.81609   0.00000  Uiso   1.00
F198   F     0.41982   0.36816   0.18615   0.00000  Uiso   1.00
F199   F     0.08018   0.13184   0.81385   0.00000  Uiso   1.00
F200   F     0.13184   0.08018   0.81385   0.00000  Uiso   1.00
H201   H     0.02982   0.16236   0.46617   0.00000  Uiso   1.00
H202   H     0.22018   0.08765   0.03383   0.00000  Uiso   1.00
H203   H     0.08764   0.22018   0.96617   0.00000  Uiso   1.00
H204   H     0.41236   0.27982   0.03383   0.00000  Uiso   1.00
H205   H     0.22019   0.08765   0.96617   0.00000  Uiso   1.00
H206   H     0.27981   0.41235   0.03383   0.00000  Uiso   1.00
H207   H     0.41236   0.27982   0.96617   0.00000  Uiso   1.00
H208   H     0.08764   0.22018   0.03383   0.00000  Uiso   1.00
H209   H     0.42889   0.29932   0.37327   0.00000  Uiso   1.00
H210   H     0.42684   0.32393   0.41849   0.00000  Uiso   1.00
H211   H     0.43556   0.34797   0.37382   0.00000  Uiso   1.00
H212   H     0.47018   0.33764   0.53383   0.00000  Uiso   1.00
H213   H     0.49426   0.34123   0.40891   0.00000  Uiso   1.00
H214   H     0.49446   0.31689   0.36566   0.00000  Uiso   1.00
H215   H     0.07316   0.17607   0.58151   0.00000  Uiso   1.00
H216   H     0.07111   0.20067   0.62673   0.00000  Uiso   1.00
H217   H     0.06444   0.15203   0.62618   0.00000  Uiso   1.00
H218   H     0.00553   0.18311   0.63434   0.00000  Uiso   1.00
H219   H     0.00574   0.15877   0.59109   0.00000  Uiso   1.00
H220   H     0.17607   0.07316   0.41849   0.00000  Uiso   1.00
H221   H     0.20068   0.07111   0.37327   0.00000  Uiso   1.00
H222   H     0.15203   0.06444   0.37382   0.00000  Uiso   1.00
H223   H     0.33764   0.47018   0.46617   0.00000  Uiso   1.00
H224   H     0.18311   0.00554   0.36566   0.00000  Uiso   1.00
H225   H     0.15877   0.00574   0.40891   0.00000  Uiso   1.00
H226   H     0.29932   0.42889   0.62673   0.00000  Uiso   1.00
H227   H     0.32393   0.42684   0.58151   0.00000  Uiso   1.00
H228   H     0.34797   0.43556   0.62618   0.00000  Uiso   1.00
H229   H     0.34123   0.49426   0.59109   0.00000  Uiso   1.00
H230   H     0.31689   0.49446   0.63434   0.00000  Uiso   1.00
H231   H     0.07111   0.20068   0.37327   0.00000  Uiso   1.00
H232   H     0.07316   0.17607   0.41849   0.00000  Uiso   1.00
H233   H     0.06444   0.15203   0.37382   0.00000  Uiso   1.00
H234   H     0.16236   0.02982   0.53383   0.00000  Uiso   1.00
H235   H     0.00574   0.15877   0.40891   0.00000  Uiso   1.00
H236   H     0.00554   0.18311   0.36566   0.00000  Uiso   1.00
H237   H     0.42684   0.32393   0.58151   0.00000  Uiso   1.00
H238   H     0.42889   0.29932   0.62673   0.00000  Uiso   1.00
H239   H     0.43556   0.34797   0.62618   0.00000  Uiso   1.00
H240   H     0.49446   0.31689   0.63434   0.00000  Uiso   1.00
H241   H     0.49426   0.34123   0.59109   0.00000  Uiso   1.00
H242   H     0.32393   0.42684   0.41849   0.00000  Uiso   1.00
H243   H     0.29932   0.42889   0.37327   0.00000  Uiso   1.00
H244   H     0.34797   0.43555   0.37382   0.00000  Uiso   1.00
H245   H     0.47018   0.33764   0.46617   0.00000  Uiso   1.00
H246   H     0.31689   0.49446   0.36566   0.00000  Uiso   1.00
H247   H     0.34123   0.49426   0.40891   0.00000  Uiso   1.00
H248   H     0.20068   0.07111   0.62673   0.00000  Uiso   1.00
H249   H     0.17607   0.07316   0.58151   0.00000  Uiso   1.00
H250   H     0.15203   0.06444   0.62618   0.00000  Uiso   1.00
H251   H     0.15877   0.00574   0.59109   0.00000  Uiso   1.00
H252   H     0.18311   0.00554   0.63434   0.00000  Uiso   1.00
H253   H     0.17890   0.04933   0.87327   0.00000  Uiso   1.00
H254   H     0.17685   0.07394   0.91849   0.00000  Uiso   1.00
H255   H     0.18557   0.09798   0.87382   0.00000  Uiso   1.00
H256   H     0.02982   0.16236   0.53383   0.00000  Uiso   1.00
H257   H     0.24427   0.09123   0.90891   0.00000  Uiso   1.00
H258   H     0.24447   0.06689   0.86566   0.00000  Uiso   1.00
H259   H     0.32316   0.42607   0.08150   0.00000  Uiso   1.00
H260   H     0.32111   0.45067   0.12672   0.00000  Uiso   1.00
H261   H     0.31444   0.40203   0.12618   0.00000  Uiso   1.00
H262   H     0.25554   0.43311   0.13434   0.00000  Uiso   1.00
H263   H     0.25574   0.40877   0.09109   0.00000  Uiso   1.00
H264   H     0.42607   0.32317   0.91850   0.00000  Uiso   1.00
H265   H     0.45068   0.32112   0.87328   0.00000  Uiso   1.00
H266   H     0.40203   0.31445   0.87382   0.00000  Uiso   1.00
H267   H     0.16236   0.02982   0.46617   0.00000  Uiso   1.00
H268   H     0.43311   0.25555   0.86565   0.00000  Uiso   1.00
H269   H     0.40877   0.25575   0.90891   0.00000  Uiso   1.00
H270   H     0.04932   0.17888   0.12673   0.00000  Uiso   1.00
H271   H     0.07393   0.17683   0.08150   0.00000  Uiso   1.00
H272   H     0.09797   0.18555   0.12618   0.00000  Uiso   1.00
H273   H     0.09123   0.24425   0.09109   0.00000  Uiso   1.00
H274   H     0.06689   0.24445   0.13434   0.00000  Uiso   1.00
H275   H     0.32110   0.45067   0.87327   0.00000  Uiso   1.00
H276   H     0.32315   0.42606   0.91849   0.00000  Uiso   1.00
H277   H     0.31443   0.40202   0.87382   0.00000  Uiso   1.00
H278   H     0.33764   0.47018   0.53383   0.00000  Uiso   1.00
H279   H     0.25573   0.40877   0.90891   0.00000  Uiso   1.00
H280   H     0.25553   0.43311   0.86566   0.00000  Uiso   1.00
H281   H     0.17684   0.07393   0.08151   0.00000  Uiso   1.00
H282   H     0.17889   0.04933   0.12673   0.00000  Uiso   1.00
H283   H     0.18556   0.09797   0.12618   0.00000  Uiso   1.00
H284   H     0.24446   0.06689   0.13434   0.00000  Uiso   1.00
H285   H     0.24426   0.09123   0.09109   0.00000  Uiso   1.00
H286   H     0.07393   0.17683   0.91850   0.00000  Uiso   1.00
H287   H     0.04932   0.17888   0.87328   0.00000  Uiso   1.00
H288   H     0.09797   0.18555   0.87382   0.00000  Uiso   1.00
H289   H     0.27981   0.41235   0.96617   0.00000  Uiso   1.00
H290   H     0.06689   0.24445   0.86566   0.00000  Uiso   1.00
H291   H     0.09123   0.24425   0.90891   0.00000  Uiso   1.00
H292   H     0.45068   0.32112   0.12672   0.00000  Uiso   1.00
H293   H     0.42607   0.32317   0.08150   0.00000  Uiso   1.00
H294   H     0.40203   0.31445   0.12618   0.00000  Uiso   1.00
H295   H     0.40877   0.25575   0.09109   0.00000  Uiso   1.00
H296   H     0.43311   0.25555   0.13434   0.00000  Uiso   1.00
O297   O     0.25000   0.00000   0.25000   0.00000  Uiso   1.00
O298   O     0.25000   0.46964   0.66245   0.00000  Uiso   1.00
O299   O     0.46963   0.25000   0.33755   0.00000  Uiso   1.00
O300   O     0.03036   0.25000   0.66245   0.00000  Uiso   1.00
O301   O     0.00000   0.21964   0.83755   0.00000  Uiso   1.00
O302   O     0.00000   0.28037   0.16245   0.00000  Uiso   1.00
O303   O     0.28036   0.00000   0.83755   0.00000  Uiso   1.00
O304   O     0.21963   0.00000   0.16245   0.00000  Uiso   1.00
O305   O     0.00000   0.28037   0.83755   0.00000  Uiso   1.00
O306   O     0.00000   0.21964   0.16245   0.00000  Uiso   1.00
O307   O     0.21963   0.00000   0.83755   0.00000  Uiso   1.00
O308   O     0.25000   0.00000   0.75000   0.00000  Uiso   1.00
O309   O     0.28036   0.00000   0.16245   0.00000  Uiso   1.00
O310   O     0.20724   0.07308   0.27302   0.00000  Uiso   1.00
O311   O     0.29275   0.42693   0.72698   0.00000  Uiso   1.00
O312   O     0.42692   0.20725   0.27302   0.00000  Uiso   1.00
O313   O     0.07307   0.29276   0.72698   0.00000  Uiso   1.00
O314   O     0.29275   0.42693   0.27302   0.00000  Uiso   1.00
O315   O     0.20724   0.07308   0.72698   0.00000  Uiso   1.00
O316   O     0.07307   0.29276   0.27302   0.00000  Uiso   1.00
O317   O     0.42692   0.20725   0.72698   0.00000  Uiso   1.00
O318   O     0.20724   0.42693   0.72698   0.00000  Uiso   1.00
O319   O     0.00000   0.25000   0.25000   0.00000  Uiso   1.00
O320   O     0.29275   0.07308   0.27302   0.00000  Uiso   1.00
O321   O     0.42692   0.29276   0.72698   0.00000  Uiso   1.00
O322   O     0.07307   0.20725   0.27302   0.00000  Uiso   1.00
O323   O     0.29275   0.07308   0.72698   0.00000  Uiso   1.00
O324   O     0.20724   0.42693   0.27302   0.00000  Uiso   1.00
O325   O     0.07307   0.20725   0.72698   0.00000  Uiso   1.00
O326   O     0.42692   0.29276   0.27302   0.00000  Uiso   1.00
O327   O     0.45724   0.32308   0.77302   0.00000  Uiso   1.00
O328   O     0.04275   0.17693   0.22698   0.00000  Uiso   1.00
O329   O     0.17692   0.45725   0.77302   0.00000  Uiso   1.00
O330   O     0.00000   0.25000   0.75000   0.00000  Uiso   1.00
O331   O     0.32307   0.04276   0.22698   0.00000  Uiso   1.00
O332   O     0.04275   0.17693   0.77302   0.00000  Uiso   1.00
O333   O     0.45724   0.32308   0.22698   0.00000  Uiso   1.00
O334   O     0.32307   0.04276   0.77302   0.00000  Uiso   1.00
O335   O     0.17692   0.45725   0.22698   0.00000  Uiso   1.00
O336   O     0.45724   0.17693   0.22698   0.00000  Uiso   1.00
O337   O     0.04275   0.32308   0.77302   0.00000  Uiso   1.00
O338   O     0.17692   0.04276   0.22698   0.00000  Uiso   1.00
O339   O     0.32307   0.45725   0.77302   0.00000  Uiso   1.00
O340   O     0.04275   0.32308   0.22698   0.00000  Uiso   1.00
O341   O     0.25000   0.46964   0.33755   0.00000  Uiso   1.00
O342   O     0.45724   0.17693   0.77302   0.00000  Uiso   1.00
O343   O     0.32307   0.45725   0.22698   0.00000  Uiso   1.00
O344   O     0.17692   0.04276   0.77302   0.00000  Uiso   1.00
O345   O     0.25000   0.03037   0.66245   0.00000  Uiso   1.00
O346   O     0.03036   0.25000   0.33755   0.00000  Uiso   1.00
O347   O     0.46963   0.25000   0.66245   0.00000  Uiso   1.00
O348   O     0.25000   0.03037   0.33755   0.00000  Uiso   1.00
Zn349  Zn    0.20659   0.00000   0.21735   0.00000  Uiso   1.00
Zn350  Zn    0.04340   0.25000   0.28265   0.00000  Uiso   1.00
Zn351  Zn    0.25000   0.45660   0.71735   0.00000  Uiso   1.00
Zn352  Zn    0.25000   0.04341   0.28265   0.00000  Uiso   1.00
Zn353  Zn    0.04340   0.25000   0.71735   0.00000  Uiso   1.00
Zn354  Zn    0.45659   0.25000   0.28265   0.00000  Uiso   1.00
Zn355  Zn    0.25000   0.04341   0.71735   0.00000  Uiso   1.00
Zn356  Zn    0.25000   0.45660   0.28265   0.00000  Uiso   1.00
Zn357  Zn    0.29340   0.00000   0.78265   0.00000  Uiso   1.00
Zn358  Zn    0.00000   0.20660   0.21735   0.00000  Uiso   1.00
Zn359  Zn   -0.00000   0.29341   0.78265   0.00000  Uiso   1.00
Zn360  Zn    0.29340   0.00000   0.21735   0.00000  Uiso   1.00
Zn361  Zn    0.20659   0.00000   0.78265   0.00000  Uiso   1.00
Zn362  Zn    0.00000   0.29341   0.21735   0.00000  Uiso   1.00
Zn363  Zn    0.00000   0.20660   0.78265   0.00000  Uiso   1.00
Zn364  Zn    0.45659   0.25000   0.71735   0.00000  Uiso   1.00
C365   C     0.99038   0.28225   0.41774   0.00000  Uiso   1.00
C366   C     0.75961   0.46775   0.08226   0.00000  Uiso   1.00
C367   C     0.71812   0.01030   0.54120   0.00000  Uiso   1.00
C368   C     0.98970   0.28188   0.45880   0.00000  Uiso   1.00
C369   C     0.51030   0.21812   0.54120   0.00000  Uiso   1.00
C370   C     0.71812   0.01030   0.45880   0.00000  Uiso   1.00
C371   C     0.78188   0.48970   0.54120   0.00000  Uiso   1.00
C372   C     0.76030   0.46812   0.95879   0.00000  Uiso   1.00
C373   C     0.73970   0.03188   0.04120   0.00000  Uiso   1.00
C374   C     0.53188   0.23970   0.95880   0.00000  Uiso   1.00
C375   C     0.96812   0.26030   0.04120   0.00000  Uiso   1.00
C376   C     0.73970   0.03188   0.95880   0.00000  Uiso   1.00
C377   C     0.96775   0.25962   0.91774   0.00000  Uiso   1.00
C378   C     0.76030   0.46812   0.04120   0.00000  Uiso   1.00
C379   C     0.96812   0.26030   0.95879   0.00000  Uiso   1.00
C380   C     0.53188   0.23970   0.04120   0.00000  Uiso   1.00
C381   C     0.59811   0.34811   0.25000   0.00000  Uiso   1.00
C382   C     0.90189   0.15189   0.75000   0.00000  Uiso   1.00
C383   C     0.65189   0.09811   0.25000   0.00000  Uiso   1.00
C384   C     0.84811   0.40189   0.75000   0.00000  Uiso   1.00
C385   C     0.90189   0.15189   0.25000   0.00000  Uiso   1.00
C386   C     0.59811   0.34811   0.75000   0.00000  Uiso   1.00
C387   C     0.84811   0.40189   0.25000   0.00000  Uiso   1.00
C388   C     0.53225   0.24038   0.08226   0.00000  Uiso   1.00
C389   C     0.65189   0.09812   0.75000   0.00000  Uiso   1.00
C390   C     0.59811   0.15189   0.75000   0.00000  Uiso   1.00
C391   C     0.90189   0.34811   0.25000   0.00000  Uiso   1.00
C392   C     0.65189   0.40189   0.75000   0.00000  Uiso   1.00
C393   C     0.84811   0.09811   0.25000   0.00000  Uiso   1.00
C394   C     0.90189   0.34811   0.75000   0.00000  Uiso   1.00
C395   C     0.59811   0.15189   0.25000   0.00000  Uiso   1.00
C396   C     0.84811   0.09811   0.75000   0.00000  Uiso   1.00
C397   C     0.65189   0.40189   0.25000   0.00000  Uiso   1.00
C398   C     0.50000   0.25000   0.47933   0.00000  Uiso   1.00
C399   C     0.75961   0.46775   0.91774   0.00000  Uiso   1.00
C400   C     0.50000   0.25000   0.52067   0.00000  Uiso   1.00
C401   C     0.75000   0.00000   0.47933   0.00000  Uiso   1.00
C402   C     0.75000   0.00000   0.52067   0.00000  Uiso   1.00
C403   C     0.75000   0.00000   0.97933   0.00000  Uiso   1.00
C404   C     0.75000   0.00000   0.02067   0.00000  Uiso   1.00
C405   C     0.50000   0.25000   0.97933   0.00000  Uiso   1.00
C406   C     0.50000   0.25000   0.02067   0.00000  Uiso   1.00
C407   C     0.98181   0.31702   0.39491   0.00000  Uiso   1.00
C408   C     0.94077   0.32231   0.38996   0.00000  Uiso   1.00
C409   C     0.51819   0.18298   0.60509   0.00000  Uiso   1.00
C410   C     0.74038   0.03225   0.08226   0.00000  Uiso   1.00
C411   C     0.55923   0.17769   0.61004   0.00000  Uiso   1.00
C412   C     0.68298   0.01819   0.39491   0.00000  Uiso   1.00
C413   C     0.67769   0.05924   0.38996   0.00000  Uiso   1.00
C414   C     0.81702   0.48181   0.60509   0.00000  Uiso   1.00
C415   C     0.82231   0.44076   0.61004   0.00000  Uiso   1.00
C416   C     0.51819   0.18298   0.39490   0.00000  Uiso   1.00
C417   C     0.55923   0.17769   0.38996   0.00000  Uiso   1.00
C418   C     0.98181   0.31702   0.60509   0.00000  Uiso   1.00
C419   C     0.94076   0.32231   0.61004   0.00000  Uiso   1.00
C420   C     0.81702   0.48180   0.39491   0.00000  Uiso   1.00
C421   C     0.53225   0.24038   0.91774   0.00000  Uiso   1.00
C422   C     0.82231   0.44076   0.38996   0.00000  Uiso   1.00
C423   C     0.68298   0.01820   0.60509   0.00000  Uiso   1.00
C424   C     0.67769   0.05924   0.61004   0.00000  Uiso   1.00
C425   C     0.73182   0.06702   0.89491   0.00000  Uiso   1.00
C426   C     0.69078   0.07232   0.88996   0.00000  Uiso   1.00
C427   C     0.76819   0.43298   0.10509   0.00000  Uiso   1.00
C428   C     0.80923   0.42769   0.11003   0.00000  Uiso   1.00
C429   C     0.93298   0.26820   0.89490   0.00000  Uiso   1.00
C430   C     0.92769   0.30924   0.88997   0.00000  Uiso   1.00
C431   C     0.56702   0.23180   0.10509   0.00000  Uiso   1.00
C432   C     0.96775   0.25962   0.08226   0.00000  Uiso   1.00
C433   C     0.57231   0.19076   0.11003   0.00000  Uiso   1.00
C434   C     0.76819   0.43298   0.89490   0.00000  Uiso   1.00
C435   C     0.80923   0.42768   0.88996   0.00000  Uiso   1.00
C436   C     0.73181   0.06702   0.10509   0.00000  Uiso   1.00
C437   C     0.69077   0.07231   0.11003   0.00000  Uiso   1.00
C438   C     0.56702   0.23180   0.89491   0.00000  Uiso   1.00
C439   C     0.57231   0.19076   0.88997   0.00000  Uiso   1.00
C440   C     0.93298   0.26820   0.10509   0.00000  Uiso   1.00
C441   C     0.92769   0.30924   0.11003   0.00000  Uiso   1.00
C442   C     0.50000   0.25000   0.39783   0.00000  Uiso   1.00
C443   C     0.50000   0.25000   0.60217   0.00000  Uiso   1.00
C444   C     0.75000   0.00000   0.39783   0.00000  Uiso   1.00
C445   C     0.50962   0.21775   0.58226   0.00000  Uiso   1.00
C446   C     0.75000   0.00000   0.60217   0.00000  Uiso   1.00
C447   C     0.75000   0.00000   0.89783   0.00000  Uiso   1.00
C448   C     0.75000   0.00000   0.10217   0.00000  Uiso   1.00
C449   C     0.50000   0.25000   0.89783   0.00000  Uiso   1.00
C450   C     0.50000   0.25000   0.10217   0.00000  Uiso   1.00
C451   C     0.52097   0.18722   0.47996   0.00000  Uiso   1.00
C452   C     0.97903   0.31279   0.52004   0.00000  Uiso   1.00
C453   C     0.81278   0.47903   0.47996   0.00000  Uiso   1.00
C454   C     0.68722   0.02097   0.52004   0.00000  Uiso   1.00
C455   C     0.97903   0.31279   0.47996   0.00000  Uiso   1.00
C456   C     0.71775   0.00962   0.41774   0.00000  Uiso   1.00
C457   C     0.52097   0.18721   0.52004   0.00000  Uiso   1.00
C458   C     0.68722   0.02097   0.47996   0.00000  Uiso   1.00
C459   C     0.81278   0.47903   0.52004   0.00000  Uiso   1.00
C460   C     0.77096   0.43721   0.97995   0.00000  Uiso   1.00
C461   C     0.72903   0.06279   0.02004   0.00000  Uiso   1.00
C462   C     0.56278   0.22903   0.97996   0.00000  Uiso   1.00
C463   C     0.93721   0.27097   0.02004   0.00000  Uiso   1.00
C464   C     0.72904   0.06279   0.97996   0.00000  Uiso   1.00
C465   C     0.77096   0.43721   0.02004   0.00000  Uiso   1.00
C466   C     0.93722   0.27097   0.97995   0.00000  Uiso   1.00
C467   C     0.78225   0.49038   0.58226   0.00000  Uiso   1.00
C468   C     0.56278   0.22903   0.02004   0.00000  Uiso   1.00
C469   C     0.75000   0.00000   0.35563   0.00000  Uiso   1.00
C470   C     0.75000   0.00000   0.64437   0.00000  Uiso   1.00
C471   C     0.50000   0.25000   0.35563   0.00000  Uiso   1.00
C472   C     0.50000   0.25000   0.64437   0.00000  Uiso   1.00
C473   C     0.50000   0.25000   0.85563   0.00000  Uiso   1.00
C474   C     0.50000   0.25000   0.14437   0.00000  Uiso   1.00
C475   C     0.75000   0.00000   0.85563   0.00000  Uiso   1.00
C476   C     0.75000   0.00000   0.14437   0.00000  Uiso   1.00
C477   C     0.67995   0.07005   0.25000   0.00000  Uiso   1.00
C478   C     0.50962   0.21775   0.41774   0.00000  Uiso   1.00
C479   C     0.82005   0.42995   0.75000   0.00000  Uiso   1.00
C480   C     0.92996   0.17996   0.25000   0.00000  Uiso   1.00
C481   C     0.57004   0.32004   0.75000   0.00000  Uiso   1.00
C482   C     0.82005   0.42995   0.25000   0.00000  Uiso   1.00
C483   C     0.67995   0.07005   0.75000   0.00000  Uiso   1.00
C484   C     0.57004   0.32004   0.25000   0.00000  Uiso   1.00
C485   C     0.92996   0.17996   0.75000   0.00000  Uiso   1.00
C486   C     0.67996   0.42996   0.75000   0.00000  Uiso   1.00
C487   C     0.82004   0.07004   0.25000   0.00000  Uiso   1.00
C488   C     0.92995   0.32005   0.75000   0.00000  Uiso   1.00
C489   C     0.99038   0.28225   0.58226   0.00000  Uiso   1.00
C490   C     0.57005   0.17995   0.25000   0.00000  Uiso   1.00
C491   C     0.82004   0.07004   0.75000   0.00000  Uiso   1.00
C492   C     0.67996   0.42996   0.25000   0.00000  Uiso   1.00
C493   C     0.57005   0.17995   0.75000   0.00000  Uiso   1.00
C494   C     0.92995   0.32005   0.25000   0.00000  Uiso   1.00
C495   C     0.63041   0.39632   0.21677   0.00000  Uiso   1.00
C496   C     0.86959   0.10368   0.78323   0.00000  Uiso   1.00
C497   C     0.60184   0.12853   0.21793   0.00000  Uiso   1.00
C498   C     0.89816   0.37147   0.78207   0.00000  Uiso   1.00
C499   C     0.86958   0.10368   0.21677   0.00000  Uiso   1.00
C500   C     0.78225   0.49038   0.41774   0.00000  Uiso   1.00
C501   C     0.63041   0.39632   0.78323   0.00000  Uiso   1.00
C502   C     0.89816   0.37147   0.21793   0.00000  Uiso   1.00
C503   C     0.60184   0.12853   0.78207   0.00000  Uiso   1.00
C504   C     0.62853   0.10184   0.78207   0.00000  Uiso   1.00
C505   C     0.87147   0.39816   0.21793   0.00000  Uiso   1.00
C506   C     0.60368   0.36959   0.78323   0.00000  Uiso   1.00
C507   C     0.89632   0.13041   0.21677   0.00000  Uiso   1.00
C508   C     0.87147   0.39816   0.78207   0.00000  Uiso   1.00
C509   C     0.62853   0.10184   0.21793   0.00000  Uiso   1.00
C510   C     0.89632   0.13042   0.78323   0.00000  Uiso   1.00
C511   C     0.71775   0.00962   0.58226   0.00000  Uiso   1.00
C512   C     0.60368   0.36959   0.21677   0.00000  Uiso   1.00
C513   C     0.88041   0.14632   0.71677   0.00000  Uiso   1.00
C514   C     0.61959   0.35368   0.28323   0.00000  Uiso   1.00
C515   C     0.85184   0.37853   0.71793   0.00000  Uiso   1.00
C516   C     0.64816   0.12147   0.28207   0.00000  Uiso   1.00
C517   C     0.61958   0.35368   0.71677   0.00000  Uiso   1.00
C518   C     0.88041   0.14632   0.28323   0.00000  Uiso   1.00
C519   C     0.64816   0.12147   0.71793   0.00000  Uiso   1.00
C520   C     0.85184   0.37853   0.28207   0.00000  Uiso   1.00
C521   C     0.87853   0.35184   0.28207   0.00000  Uiso   1.00
C522   C     0.74039   0.03225   0.91774   0.00000  Uiso   1.00
C523   C     0.62147   0.14816   0.71793   0.00000  Uiso   1.00
C524   C     0.85368   0.11959   0.28323   0.00000  Uiso   1.00
C525   C     0.64632   0.38041   0.71677   0.00000  Uiso   1.00
C526   C     0.62147   0.14816   0.28207   0.00000  Uiso   1.00
C527   C     0.87853   0.35184   0.71793   0.00000  Uiso   1.00
C528   C     0.64632   0.38042   0.28323   0.00000  Uiso   1.00
C529   C     0.85368   0.11959   0.71677   0.00000  Uiso   1.00
C530   C     0.51030   0.21812   0.45879   0.00000  Uiso   1.00
C531   C     0.98970   0.28188   0.54120   0.00000  Uiso   1.00
C532   C     0.78188   0.48970   0.45880   0.00000  Uiso   1.00
F533   F     0.63582   0.41607   0.18391   0.00000  Uiso   1.00
F534   F     0.86816   0.41982   0.18615   0.00000  Uiso   1.00
F535   F     0.58393   0.36418   0.81609   0.00000  Uiso   1.00
F536   F     0.91607   0.13582   0.18391   0.00000  Uiso   1.00
F537   F     0.86816   0.41982   0.81385   0.00000  Uiso   1.00
F538   F     0.63184   0.08018   0.18615   0.00000  Uiso   1.00
F539   F     0.91607   0.13582   0.81609   0.00000  Uiso   1.00
F540   F     0.58393   0.36418   0.18391   0.00000  Uiso   1.00
F541   F     0.88582   0.16607   0.68391   0.00000  Uiso   1.00
F542   F     0.61418   0.33393   0.31609   0.00000  Uiso   1.00
F543   F     0.83018   0.38184   0.68615   0.00000  Uiso   1.00
F544   F     0.86418   0.08393   0.81609   0.00000  Uiso   1.00
F545   F     0.66982   0.11816   0.31385   0.00000  Uiso   1.00
F546   F     0.61418   0.33393   0.68391   0.00000  Uiso   1.00
F547   F     0.88582   0.16607   0.31609   0.00000  Uiso   1.00
F548   F     0.66982   0.11816   0.68615   0.00000  Uiso   1.00
F549   F     0.83018   0.38184   0.31385   0.00000  Uiso   1.00
F550   F     0.88184   0.33018   0.31385   0.00000  Uiso   1.00
F551   F     0.61816   0.16982   0.68615   0.00000  Uiso   1.00
F552   F     0.83393   0.11418   0.31609   0.00000  Uiso   1.00
F553   F     0.66607   0.38582   0.68391   0.00000  Uiso   1.00
F554   F     0.61816   0.16982   0.31385   0.00000  Uiso   1.00
F555   F     0.58018   0.13184   0.18615   0.00000  Uiso   1.00
F556   F     0.88184   0.33018   0.68615   0.00000  Uiso   1.00
F557   F     0.66607   0.38582   0.31609   0.00000  Uiso   1.00
F558   F     0.83393   0.11418   0.68391   0.00000  Uiso   1.00
F559   F     0.91982   0.36816   0.81385   0.00000  Uiso   1.00
F560   F     0.86418   0.08393   0.18391   0.00000  Uiso   1.00
F561   F     0.63582   0.41607   0.81609   0.00000  Uiso   1.00
F562   F     0.91982   0.36816   0.18615   0.00000  Uiso   1.00
F563   F     0.58018   0.13184   0.81385   0.00000  Uiso   1.00
F564   F     0.63184   0.08018   0.81385   0.00000  Uiso   1.00
H565   H     0.52982   0.16236   0.46617   0.00000  Uiso   1.00
H566   H     0.72018   0.08765   0.03383   0.00000  Uiso   1.00
H567   H     0.58764   0.22018   0.96617   0.00000  Uiso   1.00
H568   H     0.91236   0.27982   0.03383   0.00000  Uiso   1.00
H569   H     0.72019   0.08765   0.96617   0.00000  Uiso   1.00
H570   H     0.77981   0.41235   0.03383   0.00000  Uiso   1.00
H571   H     0.91236   0.27982   0.96617   0.00000  Uiso   1.00
H572   H     0.58764   0.22018   0.03383   0.00000  Uiso   1.00
H573   H     0.92889   0.29932   0.37327   0.00000  Uiso   1.00
H574   H     0.92684   0.32393   0.41849   0.00000  Uiso   1.00
H575   H     0.93556   0.34797   0.37382   0.00000  Uiso   1.00
H576   H     0.97018   0.33764   0.53383   0.00000  Uiso   1.00
H577   H     0.99426   0.34123   0.40891   0.00000  Uiso   1.00
H578   H     0.99446   0.31689   0.36566   0.00000  Uiso   1.00
H579   H     0.57316   0.17607   0.58151   0.00000  Uiso   1.00
H580   H     0.57111   0.20067   0.62673   0.00000  Uiso   1.00
H581   H     0.56444   0.15203   0.62618   0.00000  Uiso   1.00
H582   H     0.50553   0.18311   0.63434   0.00000  Uiso   1.00
H583   H     0.50574   0.15877   0.59109   0.00000  Uiso   1.00
H584   H     0.67607   0.07316   0.41849   0.00000  Uiso   1.00
H585   H     0.70068   0.07111   0.37327   0.00000  Uiso   1.00
H586   H     0.65203   0.06444   0.37382   0.00000  Uiso   1.00
H587   H     0.83764   0.47018   0.46617   0.00000  Uiso   1.00
H588   H     0.68311   0.00554   0.36566   0.00000  Uiso   1.00
H589   H     0.65877   0.00574   0.40891   0.00000  Uiso   1.00
H590   H     0.79932   0.42889   0.62673   0.00000  Uiso   1.00
H591   H     0.82393   0.42684   0.58151   0.00000  Uiso   1.00
H592   H     0.84797   0.43556   0.62618   0.00000  Uiso   1.00
H593   H     0.84123   0.49426   0.59109   0.00000  Uiso   1.00
H594   H     0.81689   0.49446   0.63434   0.00000  Uiso   1.00
H595   H     0.57111   0.20068   0.37327   0.00000  Uiso   1.00
H596   H     0.57316   0.17607   0.41849   0.00000  Uiso   1.00
H597   H     0.56444   0.15203   0.37382   0.00000  Uiso   1.00
H598   H     0.66236   0.02982   0.53383   0.00000  Uiso   1.00
H599   H     0.50574   0.15877   0.40891   0.00000  Uiso   1.00
H600   H     0.50554   0.18311   0.36566   0.00000  Uiso   1.00
H601   H     0.92684   0.32393   0.58151   0.00000  Uiso   1.00
H602   H     0.92889   0.29932   0.62673   0.00000  Uiso   1.00
H603   H     0.93556   0.34797   0.62618   0.00000  Uiso   1.00
H604   H     0.99446   0.31689   0.63434   0.00000  Uiso   1.00
H605   H     0.99426   0.34123   0.59109   0.00000  Uiso   1.00
H606   H     0.82393   0.42684   0.41849   0.00000  Uiso   1.00
H607   H     0.79932   0.42889   0.37327   0.00000  Uiso   1.00
H608   H     0.84797   0.43555   0.37382   0.00000  Uiso   1.00
H609   H     0.97018   0.33764   0.46617   0.00000  Uiso   1.00
H610   H     0.81689   0.49446   0.36566   0.00000  Uiso   1.00
H611   H     0.84123   0.49426   0.40891   0.00000  Uiso   1.00
H612   H     0.70068   0.07111   0.62673   0.00000  Uiso   1.00
H613   H     0.67607   0.07316   0.58151   0.00000  Uiso   1.00
H614   H     0.65203   0.06444   0.62618   0.00000  Uiso   1.00
H615   H     0.65877   0.00574   0.59109   0.00000  Uiso   1.00
H616   H     0.68311   0.00554   0.63434   0.00000  Uiso   1.00
H617   H     0.67890   0.04933   0.87327   0.00000  Uiso   1.00
H618   H     0.67685   0.07394   0.91849   0.00000  Uiso   1.00
H619   H     0.68557   0.09798   0.87382   0.00000  Uiso   1.00
H620   H     0.52982   0.16236   0.53383   0.00000  Uiso   1.00
H621   H     0.74427   0.09123   0.90891   0.00000  Uiso   1.00
H622   H     0.74447   0.06689   0.86566   0.00000  Uiso   1.00
H623   H     0.82316   0.42607   0.08150   0.00000  Uiso   1.00
H624   H     0.82111   0.45067   0.12672   0.00000  Uiso   1.00
H625   H     0.81444   0.40203   0.12618   0.00000  Uiso   1.00
H626   H     0.75554   0.43311   0.13434   0.00000  Uiso   1.00
H627   H     0.75574   0.40877   0.09109   0.00000  Uiso   1.00
H628   H     0.92607   0.32317   0.91850   0.00000  Uiso   1.00
H629   H     0.95068   0.32112   0.87328   0.00000  Uiso   1.00
H630   H     0.90203   0.31445   0.87382   0.00000  Uiso   1.00
H631   H     0.66236   0.02982   0.46617   0.00000  Uiso   1.00
H632   H     0.93311   0.25555   0.86565   0.00000  Uiso   1.00
H633   H     0.90877   0.25575   0.90891   0.00000  Uiso   1.00
H634   H     0.54932   0.17888   0.12673   0.00000  Uiso   1.00
H635   H     0.57393   0.17683   0.08150   0.00000  Uiso   1.00
H636   H     0.59797   0.18555   0.12618   0.00000  Uiso   1.00
H637   H     0.59123   0.24425   0.09109   0.00000  Uiso   1.00
H638   H     0.56689   0.24445   0.13434   0.00000  Uiso   1.00
H639   H     0.82110   0.45067   0.87327   0.00000  Uiso   1.00
H640   H     0.82315   0.42606   0.91849   0.00000  Uiso   1.00
H641   H     0.81443   0.40202   0.87382   0.00000  Uiso   1.00
H642   H     0.83764   0.47018   0.53383   0.00000  Uiso   1.00
H643   H     0.75573   0.40877   0.90891   0.00000  Uiso   1.00
H644   H     0.75553   0.43311   0.86566   0.00000  Uiso   1.00
H645   H     0.67684   0.07393   0.08151   0.00000  Uiso   1.00
H646   H     0.67889   0.04933   0.12673   0.00000  Uiso   1.00
H647   H     0.68556   0.09797   0.12618   0.00000  Uiso   1.00
H648   H     0.74446   0.06689   0.13434   0.00000  Uiso   1.00
H649   H     0.74426   0.09123   0.09109   0.00000  Uiso   1.00
H650   H     0.57393   0.17683   0.91850   0.00000  Uiso   1.00
H651   H     0.54932   0.17888   0.87328   0.00000  Uiso   1.00
H652   H     0.59797   0.18555   0.87382   0.00000  Uiso   1.00
H653   H     0.77981   0.41235   0.96617   0.00000  Uiso   1.00
H654   H     0.56689   0.24445   0.86566   0.00000  Uiso   1.00
H655   H     0.59123   0.24425   0.90891   0.00000  Uiso   1.00
H656   H     0.95068   0.32112   0.12672   0.00000  Uiso   1.00
H657   H     0.92607   0.32317   0.08150   0.00000  Uiso   1.00
H658   H     0.90203   0.31445   0.12618   0.00000  Uiso   1.00
H659   H     0.90877   0.25575   0.09109   0.00000  Uiso   1.00
H660   H     0.93311   0.25555   0.13434   0.00000  Uiso   1.00
O661   O     0.75000   0.00000   0.25000   0.00000  Uiso   1.00
O662   O     0.75000   0.46964   0.66245   0.00000  Uiso   1.00
O663   O     0.96963   0.25000   0.33755   0.00000  Uiso   1.00
O664   O     0.53036   0.25000   0.66245   0.00000  Uiso   1.00
O665   O     0.50000   0.21964   0.83755   0.00000  Uiso   1.00
O666   O     0.50000   0.28037   0.16245   0.00000  Uiso   1.00
O667   O     0.78036   0.00000   0.83755   0.00000  Uiso   1.00
O668   O     0.71963   0.00000   0.16245   0.00000  Uiso   1.00
O669   O     0.50000   0.28037   0.83755   0.00000  Uiso   1.00
O670   O     0.50000   0.21964   0.16245   0.00000  Uiso   1.00
O671   O     0.71963   0.00000   0.83755   0.00000  Uiso   1.00
O672   O     0.75000   0.00000   0.75000   0.00000  Uiso   1.00
O673   O     0.78036   0.00000   0.16245   0.00000  Uiso   1.00
O674   O     0.70724   0.07308   0.27302   0.00000  Uiso   1.00
O675   O     0.79275   0.42693   0.72698   0.00000  Uiso   1.00
O676   O     0.92692   0.20725   0.27302   0.00000  Uiso   1.00
O677   O     0.57307   0.29276   0.72698   0.00000  Uiso   1.00
O678   O     0.79275   0.42693   0.27302   0.00000  Uiso   1.00
O679   O     0.70724   0.07308   0.72698   0.00000  Uiso   1.00
O680   O     0.57307   0.29276   0.27302   0.00000  Uiso   1.00
O681   O     0.92692   0.20725   0.72698   0.00000  Uiso   1.00
O682   O     0.70724   0.42693   0.72698   0.00000  Uiso   1.00
O683   O     0.50000   0.25000   0.25000   0.00000  Uiso   1.00
O684   O     0.79275   0.07308   0.27302   0.00000  Uiso   1.00
O685   O     0.92692   0.29276   0.72698   0.00000  Uiso   1.00
O686   O     0.57307   0.20725   0.27302   0.00000  Uiso   1.00
O687   O     0.79275   0.07308   0.72698   0.00000  Uiso   1.00
O688   O     0.70724   0.42693   0.27302   0.00000  Uiso   1.00
O689   O     0.57307   0.20725   0.72698   0.00000  Uiso   1.00
O690   O     0.92692   0.29276   0.27302   0.00000  Uiso   1.00
O691   O     0.95724   0.32308   0.77302   0.00000  Uiso   1.00
O692   O     0.54275   0.17693   0.22698   0.00000  Uiso   1.00
O693   O     0.67692   0.45725   0.77302   0.00000  Uiso   1.00
O694   O     0.50000   0.25000   0.75000   0.00000  Uiso   1.00
O695   O     0.82307   0.04276   0.22698   0.00000  Uiso   1.00
O696   O     0.54275   0.17693   0.77302   0.00000  Uiso   1.00
O697   O     0.95724   0.32308   0.22698   0.00000  Uiso   1.00
O698   O     0.82307   0.04276   0.77302   0.00000  Uiso   1.00
O699   O     0.67692   0.45725   0.22698   0.00000  Uiso   1.00
O700   O     0.95724   0.17693   0.22698   0.00000  Uiso   1.00
O701   O     0.54275   0.32308   0.77302   0.00000  Uiso   1.00
O702   O     0.67692   0.04276   0.22698   0.00000  Uiso   1.00
O703   O     0.82307   0.45725   0.77302   0.00000  Uiso   1.00
O704   O     0.54275   0.32308   0.22698   0.00000  Uiso   1.00
O705   O     0.75000   0.46964   0.33755   0.00000  Uiso   1.00
O706   O     0.95724   0.17693   0.77302   0.00000  Uiso   1.00
O707   O     0.82307   0.45725   0.22698   0.00000  Uiso   1.00
O708   O     0.67692   0.04276   0.77302   0.00000  Uiso   1.00
O709   O     0.75000   0.03037   0.66245   0.00000  Uiso   1.00
O710   O     0.53036   0.25000   0.33755   0.00000  Uiso   1.00
O711   O     0.96963   0.25000   0.66245   0.00000  Uiso   1.00
O712   O     0.75000   0.03037   0.33755   0.00000  Uiso   1.00
Zn713  Zn    0.70659   0.00000   0.21735   0.00000  Uiso   1.00
Zn714  Zn    0.54340   0.25000   0.28265   0.00000  Uiso   1.00
Zn715  Zn    0.75000   0.45660   0.71735   0.00000  Uiso   1.00
Zn716  Zn    0.75000   0.04341   0.28265   0.00000  Uiso   1.00
Zn717  Zn    0.54340   0.25000   0.71735   0.00000  Uiso   1.00
Zn718  Zn    0.95659   0.25000   0.28265   0.00000  Uiso   1.00
Zn719  Zn    0.75000   0.04341   0.71735   0.00000  Uiso   1.00
Zn720  Zn    0.75000   0.45660   0.28265   0.00000  Uiso   1.00
Zn721  Zn    0.79340   0.00000   0.78265   0.00000  Uiso   1.00
Zn722  Zn    0.50000   0.20660   0.21735   0.00000  Uiso   1.00
Zn723  Zn    0.50000   0.29341   0.78265   0.00000  Uiso   1.00
Zn724  Zn    0.79340   0.00000   0.21735   0.00000  Uiso   1.00
Zn725  Zn    0.70659   0.00000   0.78265   0.00000  Uiso   1.00
Zn726  Zn    0.50000   0.29341   0.21735   0.00000  Uiso   1.00
Zn727  Zn    0.50000   0.20660   0.78265   0.00000  Uiso   1.00
Zn728  Zn    0.95659   0.25000   0.71735   0.00000  Uiso   1.00
C729   C     0.49038   0.78225   0.41774   0.00000  Uiso   1.00
C730   C     0.25961   0.96775   0.08226   0.00000  Uiso   1.00
C731   C     0.21812   0.51030   0.54120   0.00000  Uiso   1.00
C732   C     0.48970   0.78188   0.45880   0.00000  Uiso   1.00
C733   C     0.01030   0.71812   0.54120   0.00000  Uiso   1.00
C734   C     0.21812   0.51030   0.45880   0.00000  Uiso   1.00
C735   C     0.28188   0.98970   0.54120   0.00000  Uiso   1.00
C736   C     0.26030   0.96812   0.95879   0.00000  Uiso   1.00
C737   C     0.23970   0.53188   0.04120   0.00000  Uiso   1.00
C738   C     0.03188   0.73970   0.95880   0.00000  Uiso   1.00
C739   C     0.46812   0.76030   0.04120   0.00000  Uiso   1.00
C740   C     0.23970   0.53188   0.95880   0.00000  Uiso   1.00
C741   C     0.46775   0.75962   0.91774   0.00000  Uiso   1.00
C742   C     0.26030   0.96812   0.04120   0.00000  Uiso   1.00
C743   C     0.46812   0.76030   0.95879   0.00000  Uiso   1.00
C744   C     0.03188   0.73970   0.04120   0.00000  Uiso   1.00
C745   C     0.09811   0.84811   0.25000   0.00000  Uiso   1.00
C746   C     0.40189   0.65189   0.75000   0.00000  Uiso   1.00
C747   C     0.15189   0.59811   0.25000   0.00000  Uiso   1.00
C748   C     0.34811   0.90189   0.75000   0.00000  Uiso   1.00
C749   C     0.40189   0.65189   0.25000   0.00000  Uiso   1.00
C750   C     0.09811   0.84811   0.75000   0.00000  Uiso   1.00
C751   C     0.34811   0.90189   0.25000   0.00000  Uiso   1.00
C752   C     0.03225   0.74038   0.08226   0.00000  Uiso   1.00
C753   C     0.15189   0.59812   0.75000   0.00000  Uiso   1.00
C754   C     0.09811   0.65189   0.75000   0.00000  Uiso   1.00
C755   C     0.40189   0.84811   0.25000   0.00000  Uiso   1.00
C756   C     0.15189   0.90189   0.75000   0.00000  Uiso   1.00
C757   C     0.34811   0.59811   0.25000   0.00000  Uiso   1.00
C758   C     0.40189   0.84811   0.75000   0.00000  Uiso   1.00
C759   C     0.09811   0.65189   0.25000   0.00000  Uiso   1.00
C760   C     0.34811   0.59811   0.75000   0.00000  Uiso   1.00
C761   C     0.15189   0.90189   0.25000   0.00000  Uiso   1.00
C762   C     0.00000   0.75000   0.47933   0.00000  Uiso   1.00
C763   C     0.25961   0.96775   0.91774   0.00000  Uiso   1.00
C764   C     0.00000   0.75000   0.52067   0.00000  Uiso   1.00
C765   C     0.25000   0.50000   0.47933   0.00000  Uiso   1.00
C766   C     0.25000   0.50000   0.52067   0.00000  Uiso   1.00
C767   C     0.25000   0.50000   0.97933   0.00000  Uiso   1.00
C768   C     0.25000   0.50000   0.02067   0.00000  Uiso   1.00
C769   C    -0.00000   0.75000   0.97933   0.00000  Uiso   1.00
C770   C    -0.00000   0.75000   0.02067   0.00000  Uiso   1.00
C771   C     0.48181   0.81702   0.39491   0.00000  Uiso   1.00
C772   C     0.44077   0.82231   0.38996   0.00000  Uiso   1.00
C773   C     0.01819   0.68298   0.60509   0.00000  Uiso   1.00
C774   C     0.24038   0.53225   0.08226   0.00000  Uiso   1.00
C775   C     0.05923   0.67769   0.61004   0.00000  Uiso   1.00
C776   C     0.18298   0.51819   0.39491   0.00000  Uiso   1.00
C777   C     0.17769   0.55924   0.38996   0.00000  Uiso   1.00
C778   C     0.31702   0.98181   0.60509   0.00000  Uiso   1.00
C779   C     0.32231   0.94076   0.61004   0.00000  Uiso   1.00
C780   C     0.01819   0.68298   0.39490   0.00000  Uiso   1.00
C781   C     0.05923   0.67769   0.38996   0.00000  Uiso   1.00
C782   C     0.48181   0.81702   0.60509   0.00000  Uiso   1.00
C783   C     0.44076   0.82231   0.61004   0.00000  Uiso   1.00
C784   C     0.31702   0.98180   0.39491   0.00000  Uiso   1.00
C785   C     0.03225   0.74038   0.91774   0.00000  Uiso   1.00
C786   C     0.32231   0.94076   0.38996   0.00000  Uiso   1.00
C787   C     0.18298   0.51820   0.60509   0.00000  Uiso   1.00
C788   C     0.17769   0.55924   0.61004   0.00000  Uiso   1.00
C789   C     0.23182   0.56702   0.89491   0.00000  Uiso   1.00
C790   C     0.19078   0.57232   0.88996   0.00000  Uiso   1.00
C791   C     0.26819   0.93298   0.10509   0.00000  Uiso   1.00
C792   C     0.30923   0.92769   0.11003   0.00000  Uiso   1.00
C793   C     0.43298   0.76820   0.89490   0.00000  Uiso   1.00
C794   C     0.42769   0.80924   0.88997   0.00000  Uiso   1.00
C795   C     0.06702   0.73180   0.10509   0.00000  Uiso   1.00
C796   C     0.46775   0.75962   0.08226   0.00000  Uiso   1.00
C797   C     0.07231   0.69076   0.11003   0.00000  Uiso   1.00
C798   C     0.26819   0.93298   0.89490   0.00000  Uiso   1.00
C799   C     0.30923   0.92768   0.88996   0.00000  Uiso   1.00
C800   C     0.23181   0.56702   0.10509   0.00000  Uiso   1.00
C801   C     0.19077   0.57231   0.11003   0.00000  Uiso   1.00
C802   C     0.06702   0.73180   0.89491   0.00000  Uiso   1.00
C803   C     0.07231   0.69076   0.88997   0.00000  Uiso   1.00
C804   C     0.43298   0.76820   0.10509   0.00000  Uiso   1.00
C805   C     0.42769   0.80924   0.11003   0.00000  Uiso   1.00
C806   C     0.00000   0.75000   0.39783   0.00000  Uiso   1.00
C807   C    -0.00000   0.75000   0.60217   0.00000  Uiso   1.00
C808   C     0.25000   0.50000   0.39783   0.00000  Uiso   1.00
C809   C     0.00962   0.71775   0.58226   0.00000  Uiso   1.00
C810   C     0.25000   0.50000   0.60217   0.00000  Uiso   1.00
C811   C     0.25000   0.50000   0.89783   0.00000  Uiso   1.00
C812   C     0.25000   0.50000   0.10217   0.00000  Uiso   1.00
C813   C    -0.00000   0.75000   0.89783   0.00000  Uiso   1.00
C814   C    -0.00000   0.75000   0.10217   0.00000  Uiso   1.00
C815   C     0.02097   0.68722   0.47996   0.00000  Uiso   1.00
C816   C     0.47903   0.81279   0.52004   0.00000  Uiso   1.00
C817   C     0.31278   0.97903   0.47996   0.00000  Uiso   1.00
C818   C     0.18722   0.52097   0.52004   0.00000  Uiso   1.00
C819   C     0.47903   0.81279   0.47996   0.00000  Uiso   1.00
C820   C     0.21775   0.50962   0.41774   0.00000  Uiso   1.00
C821   C     0.02097   0.68721   0.52004   0.00000  Uiso   1.00
C822   C     0.18722   0.52097   0.47996   0.00000  Uiso   1.00
C823   C     0.31278   0.97903   0.52004   0.00000  Uiso   1.00
C824   C     0.27096   0.93721   0.97995   0.00000  Uiso   1.00
C825   C     0.22903   0.56279   0.02004   0.00000  Uiso   1.00
C826   C     0.06278   0.72903   0.97996   0.00000  Uiso   1.00
C827   C     0.43721   0.77097   0.02004   0.00000  Uiso   1.00
C828   C     0.22904   0.56279   0.97996   0.00000  Uiso   1.00
C829   C     0.27096   0.93721   0.02004   0.00000  Uiso   1.00
C830   C     0.43722   0.77097   0.97995   0.00000  Uiso   1.00
C831   C     0.28225   0.99038   0.58226   0.00000  Uiso   1.00
C832   C     0.06278   0.72903   0.02004   0.00000  Uiso   1.00
C833   C     0.25000   0.50000   0.35563   0.00000  Uiso   1.00
C834   C     0.25000   0.50000   0.64437   0.00000  Uiso   1.00
C835   C     0.00000   0.75000   0.35563   0.00000  Uiso   1.00
C836   C    -0.00000   0.75000   0.64437   0.00000  Uiso   1.00
C837   C     0.00000   0.75000   0.85563   0.00000  Uiso   1.00
C838   C    -0.00000   0.75000   0.14437   0.00000  Uiso   1.00
C839   C     0.25000   0.50000   0.85563   0.00000  Uiso   1.00
C840   C     0.25000   0.50000   0.14437   0.00000  Uiso   1.00
C841   C     0.17995   0.57005   0.25000   0.00000  Uiso   1.00
C842   C     0.00962   0.71775   0.41774   0.00000  Uiso   1.00
C843   C     0.32005   0.92995   0.75000   0.00000  Uiso   1.00
C844   C     0.42996   0.67996   0.25000   0.00000  Uiso   1.00
C845   C     0.07004   0.82004   0.75000   0.00000  Uiso   1.00
C846   C     0.32005   0.92995   0.25000   0.00000  Uiso   1.00
C847   C     0.17995   0.57005   0.75000   0.00000  Uiso   1.00
C848   C     0.07004   0.82004   0.25000   0.00000  Uiso   1.00
C849   C     0.42996   0.67996   0.75000   0.00000  Uiso   1.00
C850   C     0.17996   0.92996   0.75000   0.00000  Uiso   1.00
C851   C     0.32004   0.57004   0.25000   0.00000  Uiso   1.00
C852   C     0.42995   0.82005   0.75000   0.00000  Uiso   1.00
C853   C     0.49038   0.78225   0.58226   0.00000  Uiso   1.00
C854   C     0.07005   0.67995   0.25000   0.00000  Uiso   1.00
C855   C     0.32004   0.57004   0.75000   0.00000  Uiso   1.00
C856   C     0.17996   0.92996   0.25000   0.00000  Uiso   1.00
C857   C     0.07005   0.67995   0.75000   0.00000  Uiso   1.00
C858   C     0.42995   0.82005   0.25000   0.00000  Uiso   1.00
C859   C     0.13041   0.89632   0.21677   0.00000  Uiso   1.00
C860   C     0.36959   0.60368   0.78323   0.00000  Uiso   1.00
C861   C     0.10184   0.62853   0.21793   0.00000  Uiso   1.00
C862   C     0.39816   0.87147   0.78207   0.00000  Uiso   1.00
C863   C     0.36958   0.60368   0.21677   0.00000  Uiso   1.00
C864   C     0.28225   0.99038   0.41774   0.00000  Uiso   1.00
C865   C     0.13041   0.89632   0.78323   0.00000  Uiso   1.00
C866   C     0.39816   0.87147   0.21793   0.00000  Uiso   1.00
C867   C     0.10184   0.62853   0.78207   0.00000  Uiso   1.00
C868   C     0.12853   0.60184   0.78207   0.00000  Uiso   1.00
C869   C     0.37147   0.89816   0.21793   0.00000  Uiso   1.00
C870   C     0.10368   0.86959   0.78323   0.00000  Uiso   1.00
C871   C     0.39632   0.63041   0.21677   0.00000  Uiso   1.00
C872   C     0.37147   0.89816   0.78207   0.00000  Uiso   1.00
C873   C     0.12853   0.60184   0.21793   0.00000  Uiso   1.00
C874   C     0.39632   0.63042   0.78323   0.00000  Uiso   1.00
C875   C     0.21775   0.50962   0.58226   0.00000  Uiso   1.00
C876   C     0.10368   0.86959   0.21677   0.00000  Uiso   1.00
C877   C     0.38041   0.64632   0.71677   0.00000  Uiso   1.00
C878   C     0.11959   0.85368   0.28323   0.00000  Uiso   1.00
C879   C     0.35184   0.87853   0.71793   0.00000  Uiso   1.00
C880   C     0.14816   0.62147   0.28207   0.00000  Uiso   1.00
C881   C     0.11958   0.85368   0.71677   0.00000  Uiso   1.00
C882   C     0.38041   0.64632   0.28323   0.00000  Uiso   1.00
C883   C     0.14816   0.62147   0.71793   0.00000  Uiso   1.00
C884   C     0.35184   0.87853   0.28207   0.00000  Uiso   1.00
C885   C     0.37853   0.85184   0.28207   0.00000  Uiso   1.00
C886   C     0.24039   0.53225   0.91774   0.00000  Uiso   1.00
C887   C     0.12147   0.64816   0.71793   0.00000  Uiso   1.00
C888   C     0.35368   0.61959   0.28323   0.00000  Uiso   1.00
C889   C     0.14632   0.88041   0.71677   0.00000  Uiso   1.00
C890   C     0.12147   0.64816   0.28207   0.00000  Uiso   1.00
C891   C     0.37853   0.85184   0.71793   0.00000  Uiso   1.00
C892   C     0.14632   0.88042   0.28323   0.00000  Uiso   1.00
C893   C     0.35368   0.61959   0.71677   0.00000  Uiso   1.00
C894   C     0.01030   0.71812   0.45879   0.00000  Uiso   1.00
C895   C     0.48970   0.78188   0.54120   0.00000  Uiso   1.00
C896   C     0.28188   0.98970   0.45880   0.00000  Uiso   1.00
F897   F     0.13582   0.91607   0.18391   0.00000  Uiso   1.00
F898   F     0.36816   0.91982   0.18615   0.00000  Uiso   1.00
F899   F     0.08393   0.86418   0.81609   0.00000  Uiso   1.00
F900   F     0.41607   0.63582   0.18391   0.00000  Uiso   1.00
F901   F     0.36816   0.91982   0.81385   0.00000  Uiso   1.00
F902   F     0.13184   0.58018   0.18615   0.00000  Uiso   1.00
F903   F     0.41607   0.63582   0.81609   0.00000  Uiso   1.00
F904   F     0.08393   0.86418   0.18391   0.00000  Uiso   1.00
F905   F     0.38582   0.66607   0.68391   0.00000  Uiso   1.00
F906   F     0.11418   0.83393   0.31609   0.00000  Uiso   1.00
F907   F     0.33018   0.88184   0.68615   0.00000  Uiso   1.00
F908   F     0.36418   0.58393   0.81609   0.00000  Uiso   1.00
F909   F     0.16982   0.61816   0.31385   0.00000  Uiso   1.00
F910   F     0.11418   0.83393   0.68391   0.00000  Uiso   1.00
F911   F     0.38582   0.66607   0.31609   0.00000  Uiso   1.00
F912   F     0.16982   0.61816   0.68615   0.00000  Uiso   1.00
F913   F     0.33018   0.88184   0.31385   0.00000  Uiso   1.00
F914   F     0.38184   0.83018   0.31385   0.00000  Uiso   1.00
F915   F     0.11816   0.66982   0.68615   0.00000  Uiso   1.00
F916   F     0.33393   0.61418   0.31609   0.00000  Uiso   1.00
F917   F     0.16607   0.88582   0.68391   0.00000  Uiso   1.00
F918   F     0.11816   0.66982   0.31385   0.00000  Uiso   1.00
F919   F     0.08018   0.63184   0.18615   0.00000  Uiso   1.00
F920   F     0.38184   0.83018   0.68615   0.00000  Uiso   1.00
F921   F     0.16607   0.88582   0.31609   0.00000  Uiso   1.00
F922   F     0.33393   0.61418   0.68391   0.00000  Uiso   1.00
F923   F     0.41982   0.86816   0.81385   0.00000  Uiso   1.00
F924   F     0.36418   0.58393   0.18391   0.00000  Uiso   1.00
F925   F     0.13582   0.91607   0.81609   0.00000  Uiso   1.00
F926   F     0.41982   0.86816   0.18615   0.00000  Uiso   1.00
F927   F     0.08018   0.63184   0.81385   0.00000  Uiso   1.00
F928   F     0.13184   0.58018   0.81385   0.00000  Uiso   1.00
H929   H     0.02982   0.66236   0.46617   0.00000  Uiso   1.00
H930   H     0.22018   0.58765   0.03383   0.00000  Uiso   1.00
H931   H     0.08764   0.72018   0.96617   0.00000  Uiso   1.00
H932   H     0.41236   0.77982   0.03383   0.00000  Uiso   1.00
H933   H     0.22019   0.58765   0.96617   0.00000  Uiso   1.00
H934   H     0.27981   0.91235   0.03383   0.00000  Uiso   1.00
H935   H     0.41236   0.77982   0.96617   0.00000  Uiso   1.00
H936   H     0.08764   0.72018   0.03383   0.00000  Uiso   1.00
H937   H     0.42889   0.79932   0.37327   0.00000  Uiso   1.00
H938   H     0.42684   0.82393   0.41849   0.00000  Uiso   1.00
H939   H     0.43556   0.84797   0.37382   0.00000  Uiso   1.00
H940   H     0.47018   0.83764   0.53383   0.00000  Uiso   1.00
H941   H     0.49426   0.84123   0.40891   0.00000  Uiso   1.00
H942   H     0.49446   0.81689   0.36566   0.00000  Uiso   1.00
H943   H     0.07316   0.67607   0.58151   0.00000  Uiso   1.00
H944   H     0.07111   0.70067   0.62673   0.00000  Uiso   1.00
H945   H     0.06444   0.65203   0.62618   0.00000  Uiso   1.00
H946   H     0.00553   0.68311   0.63434   0.00000  Uiso   1.00
H947   H     0.00574   0.65877   0.59109   0.00000  Uiso   1.00
H948   H     0.17607   0.57316   0.41849   0.00000  Uiso   1.00
H949   H     0.20068   0.57111   0.37327   0.00000  Uiso   1.00
H950   H     0.15203   0.56444   0.37382   0.00000  Uiso   1.00
H951   H     0.33764   0.97018   0.46617   0.00000  Uiso   1.00
H952   H     0.18311   0.50554   0.36566   0.00000  Uiso   1.00
H953   H     0.15877   0.50574   0.40891   0.00000  Uiso   1.00
H954   H     0.29932   0.92889   0.62673   0.00000  Uiso   1.00
H955   H     0.32393   0.92684   0.58151   0.00000  Uiso   1.00
H956   H     0.34797   0.93556   0.62618   0.00000  Uiso   1.00
H957   H     0.34123   0.99426   0.59109   0.00000  Uiso   1.00
H958   H     0.31689   0.99446   0.63434   0.00000  Uiso   1.00
H959   H     0.07111   0.70068   0.37327   0.00000  Uiso   1.00
H960   H     0.07316   0.67607   0.41849   0.00000  Uiso   1.00
H961   H     0.06444   0.65203   0.37382   0.00000  Uiso   1.00
H962   H     0.16236   0.52982   0.53383   0.00000  Uiso   1.00
H963   H     0.00574   0.65877   0.40891   0.00000  Uiso   1.00
H964   H     0.00554   0.68311   0.36566   0.00000  Uiso   1.00
H965   H     0.42684   0.82393   0.58151   0.00000  Uiso   1.00
H966   H     0.42889   0.79932   0.62673   0.00000  Uiso   1.00
H967   H     0.43556   0.84797   0.62618   0.00000  Uiso   1.00
H968   H     0.49446   0.81689   0.63434   0.00000  Uiso   1.00
H969   H     0.49426   0.84123   0.59109   0.00000  Uiso   1.00
H970   H     0.32393   0.92684   0.41849   0.00000  Uiso   1.00
H971   H     0.29932   0.92889   0.37327   0.00000  Uiso   1.00
H972   H     0.34797   0.93555   0.37382   0.00000  Uiso   1.00
H973   H     0.47018   0.83764   0.46617   0.00000  Uiso   1.00
H974   H     0.31689   0.99446   0.36566   0.00000  Uiso   1.00
H975   H     0.34123   0.99426   0.40891   0.00000  Uiso   1.00
H976   H     0.20068   0.57111   0.62673   0.00000  Uiso   1.00
H977   H     0.17607   0.57316   0.58151   0.00000  Uiso   1.00
H978   H     0.15203   0.56444   0.62618   0.00000  Uiso   1.00
H979   H     0.15877   0.50574   0.59109   0.00000  Uiso   1.00
H980   H     0.18311   0.50554   0.63434   0.00000  Uiso   1.00
H981   H     0.17890   0.54933   0.87327   0.00000  Uiso   1.00
H982   H     0.17685   0.57394   0.91849   0.00000  Uiso   1.00
H983   H     0.18557   0.59798   0.87382   0.00000  Uiso   1.00
H984   H     0.02982   0.66236   0.53383   0.00000  Uiso   1.00
H985   H     0.24427   0.59123   0.90891   0.00000  Uiso   1.00
H986   H     0.24447   0.56689   0.86566   0.00000  Uiso   1.00
H987   H     0.32316   0.92607   0.08150   0.00000  Uiso   1.00
H988   H     0.32111   0.95067   0.12672   0.00000  Uiso   1.00
H989   H     0.31444   0.90203   0.12618   0.00000  Uiso   1.00
H990   H     0.25554   0.93311   0.13434   0.00000  Uiso   1.00
H991   H     0.25574   0.90877   0.09109   0.00000  Uiso   1.00
H992   H     0.42607   0.82317   0.91850   0.00000  Uiso   1.00
H993   H     0.45068   0.82112   0.87328   0.00000  Uiso   1.00
H994   H     0.40203   0.81445   0.87382   0.00000  Uiso   1.00
H995   H     0.16236   0.52982   0.46617   0.00000  Uiso   1.00
H996   H     0.43311   0.75555   0.86565   0.00000  Uiso   1.00
H997   H     0.40877   0.75575   0.90891   0.00000  Uiso   1.00
H998   H     0.04932   0.67888   0.12673   0.00000  Uiso   1.00
H999   H     0.07393   0.67683   0.08150   0.00000  Uiso   1.00
H1000  H     0.09797   0.68555   0.12618   0.00000  Uiso   1.00
H1001  H     0.09123   0.74425   0.09109   0.00000  Uiso   1.00
H1002  H     0.06689   0.74445   0.13434   0.00000  Uiso   1.00
H1003  H     0.32110   0.95067   0.87327   0.00000  Uiso   1.00
H1004  H     0.32315   0.92606   0.91849   0.00000  Uiso   1.00
H1005  H     0.31443   0.90202   0.87382   0.00000  Uiso   1.00
H1006  H     0.33764   0.97018   0.53383   0.00000  Uiso   1.00
H1007  H     0.25573   0.90877   0.90891   0.00000  Uiso   1.00
H1008  H     0.25553   0.93311   0.86566   0.00000  Uiso   1.00
H1009  H     0.17684   0.57393   0.08151   0.00000  Uiso   1.00
H1010  H     0.17889   0.54933   0.12673   0.00000  Uiso   1.00
H1011  H     0.18556   0.59797   0.12618   0.00000  Uiso   1.00
H1012  H     0.24446   0.56689   0.13434   0.00000  Uiso   1.00
H1013  H     0.24426   0.59123   0.09109   0.00000  Uiso   1.00
H1014  H     0.07393   0.67683   0.91850   0.00000  Uiso   1.00
H1015  H     0.04932   0.67888   0.87328   0.00000  Uiso   1.00
H1016  H     0.09797   0.68555   0.87382   0.00000  Uiso   1.00
H1017  H     0.27981   0.91235   0.96617   0.00000  Uiso   1.00
H1018  H     0.06689   0.74445   0.86566   0.00000  Uiso   1.00
H1019  H     0.09123   0.74425   0.90891   0.00000  Uiso   1.00
H1020  H     0.45068   0.82112   0.12672   0.00000  Uiso   1.00
H1021  H     0.42607   0.82317   0.08150   0.00000  Uiso   1.00
H1022  H     0.40203   0.81445   0.12618   0.00000  Uiso   1.00
H1023  H     0.40877   0.75575   0.09109   0.00000  Uiso   1.00
H1024  H     0.43311   0.75555   0.13434   0.00000  Uiso   1.00
O1025  O     0.25000   0.50000   0.25000   0.00000  Uiso   1.00
O1026  O     0.25000   0.96964   0.66245   0.00000  Uiso   1.00
O1027  O     0.46963   0.75000   0.33755   0.00000  Uiso   1.00
O1028  O     0.03036   0.75000   0.66245   0.00000  Uiso   1.00
O1029  O     0.00000   0.71964   0.83755   0.00000  Uiso   1.00
O1030  O     0.00000   0.78037   0.16245   0.00000  Uiso   1.00
O1031  O     0.28036   0.50000   0.83755   0.00000  Uiso   1.00
O1032  O     0.21963   0.50000   0.16245   0.00000  Uiso   1.00
O1033  O     0.00000   0.78037   0.83755   0.00000  Uiso   1.00
O1034  O     0.00000   0.71964   0.16245   0.00000  Uiso   1.00
O1035  O     0.21963   0.50000   0.83755   0.00000  Uiso   1.00
O1036  O     0.25000   0.50000   0.75000   0.00000  Uiso   1.00
O1037  O     0.28036   0.50000   0.16245   0.00000  Uiso   1.00
O1038  O     0.20724   0.57308   0.27302   0.00000  Uiso   1.00
O1039  O     0.29275   0.92693   0.72698   0.00000  Uiso   1.00
O1040  O     0.42692   0.70725   0.27302   0.00000  Uiso   1.00
O1041  O     0.07307   0.79276   0.72698   0.00000  Uiso   1.00
O1042  O     0.29275   0.92693   0.27302   0.00000  Uiso   1.00
O1043  O     0.20724   0.57308   0.72698   0.00000  Uiso   1.00
O1044  O     0.07307   0.79276   0.27302   0.00000  Uiso   1.00
O1045  O     0.42692   0.70725   0.72698   0.00000  Uiso   1.00
O1046  O     0.20724   0.92693   0.72698   0.00000  Uiso   1.00
O1047  O     0.00000   0.75000   0.25000   0.00000  Uiso   1.00
O1048  O     0.29275   0.57308   0.27302   0.00000  Uiso   1.00
O1049  O     0.42692   0.79276   0.72698   0.00000  Uiso   1.00
O1050  O     0.07307   0.70725   0.27302   0.00000  Uiso   1.00
O1051  O     0.29275   0.57308   0.72698   0.00000  Uiso   1.00
O1052  O     0.20724   0.92693   0.27302   0.00000  Uiso   1.00
O1053  O     0.07307   0.70725   0.72698   0.00000  Uiso   1.00
O1054  O     0.42692   0.79276   0.27302   0.00000  Uiso   1.00
O1055  O     0.45724   0.82308   0.77302   0.00000  Uiso   1.00
O1056  O     0.04275   0.67693   0.22698   0.00000  Uiso   1.00
O1057  O     0.17692   0.95725   0.77302   0.00000  Uiso   1.00
O1058  O     0.00000   0.75000   0.75000   0.00000  Uiso   1.00
O1059  O     0.32307   0.54276   0.22698   0.00000  Uiso   1.00
O1060  O     0.04275   0.67693   0.77302   0.00000  Uiso   1.00
O1061  O     0.45724   0.82308   0.22698   0.00000  Uiso   1.00
O1062  O     0.32307   0.54276   0.77302   0.00000  Uiso   1.00
O1063  O     0.17692   0.95725   0.22698   0.00000  Uiso   1.00
O1064  O     0.45724   0.67693   0.22698   0.00000  Uiso   1.00
O1065  O     0.04275   0.82308   0.77302   0.00000  Uiso   1.00
O1066  O     0.17692   0.54276   0.22698   0.00000  Uiso   1.00
O1067  O     0.32307   0.95725   0.77302   0.00000  Uiso   1.00
O1068  O     0.04275   0.82308   0.22698   0.00000  Uiso   1.00
O1069  O     0.25000   0.96964   0.33755   0.00000  Uiso   1.00
O1070  O     0.45724   0.67693   0.77302   0.00000  Uiso   1.00
O1071  O     0.32307   0.95725   0.22698   0.00000  Uiso   1.00
O1072  O     0.17692   0.54276   0.77302   0.00000  Uiso   1.00
O1073  O     0.25000   0.53037   0.66245   0.00000  Uiso   1.00
O1074  O     0.03036   0.75000   0.33755   0.00000  Uiso   1.00
O1075  O     0.46963   0.75000   0.66245   0.00000  Uiso   1.00
O1076  O     0.25000   0.53037   0.33755   0.00000  Uiso   1.00
Zn1077 Zn    0.20659   0.50000   0.21735   0.00000  Uiso   1.00
Zn1078 Zn    0.04340   0.75000   0.28265   0.00000  Uiso   1.00
Zn1079 Zn    0.25000   0.95660   0.71735   0.00000  Uiso   1.00
Zn1080 Zn    0.25000   0.54341   0.28265   0.00000  Uiso   1.00
Zn1081 Zn    0.04340   0.75000   0.71735   0.00000  Uiso   1.00
Zn1082 Zn    0.45659   0.75000   0.28265   0.00000  Uiso   1.00
Zn1083 Zn    0.25000   0.54341   0.71735   0.00000  Uiso   1.00
Zn1084 Zn    0.25000   0.95660   0.28265   0.00000  Uiso   1.00
Zn1085 Zn    0.29340   0.50000   0.78265   0.00000  Uiso   1.00
Zn1086 Zn    0.00000   0.70660   0.21735   0.00000  Uiso   1.00
Zn1087 Zn   -0.00000   0.79341   0.78265   0.00000  Uiso   1.00
Zn1088 Zn    0.29340   0.50000   0.21735   0.00000  Uiso   1.00
Zn1089 Zn    0.20659   0.50000   0.78265   0.00000  Uiso   1.00
Zn1090 Zn    0.00000   0.79341   0.21735   0.00000  Uiso   1.00
Zn1091 Zn    0.00000   0.70660   0.78265   0.00000  Uiso   1.00
Zn1092 Zn    0.45659   0.75000   0.71735   0.00000  Uiso   1.00
C1093  C     0.99038   0.78225   0.41774   0.00000  Uiso   1.00
C1094  C     0.75961   0.96775   0.08226   0.00000  Uiso   1.00
C1095  C     0.71812   0.51030   0.54120   0.00000  Uiso   1.00
C1096  C     0.98970   0.78188   0.45880   0.00000  Uiso   1.00
C1097  C     0.51030   0.71812   0.54120   0.00000  Uiso   1.00
C1098  C     0.71812   0.51030   0.45880   0.00000  Uiso   1.00
C1099  C     0.78188   0.98970   0.54120   0.00000  Uiso   1.00
C1100  C     0.76030   0.96812   0.95879   0.00000  Uiso   1.00
C1101  C     0.73970   0.53188   0.04120   0.00000  Uiso   1.00
C1102  C     0.53188   0.73970   0.95880   0.00000  Uiso   1.00
C1103  C     0.96812   0.76030   0.04120   0.00000  Uiso   1.00
C1104  C     0.73970   0.53188   0.95880   0.00000  Uiso   1.00
C1105  C     0.96775   0.75962   0.91774   0.00000  Uiso   1.00
C1106  C     0.76030   0.96812   0.04120   0.00000  Uiso   1.00
C1107  C     0.96812   0.76030   0.95879   0.00000  Uiso   1.00
C1108  C     0.53188   0.73970   0.04120   0.00000  Uiso   1.00
C1109  C     0.59811   0.84811   0.25000   0.00000  Uiso   1.00
C1110  C     0.90189   0.65189   0.75000   0.00000  Uiso   1.00
C1111  C     0.65189   0.59811   0.25000   0.00000  Uiso   1.00
C1112  C     0.84811   0.90189   0.75000   0.00000  Uiso   1.00
C1113  C     0.90189   0.65189   0.25000   0.00000  Uiso   1.00
C1114  C     0.59811   0.84811   0.75000   0.00000  Uiso   1.00
C1115  C     0.84811   0.90189   0.25000   0.00000  Uiso   1.00
C1116  C     0.53225   0.74038   0.08226   0.00000  Uiso   1.00
C1117  C     0.65189   0.59812   0.75000   0.00000  Uiso   1.00
C1118  C     0.59811   0.65189   0.75000   0.00000  Uiso   1.00
C1119  C     0.90189   0.84811   0.25000   0.00000  Uiso   1.00
C1120  C     0.65189   0.90189   0.75000   0.00000  Uiso   1.00
C1121  C     0.84811   0.59811   0.25000   0.00000  Uiso   1.00
C1122  C     0.90189   0.84811   0.75000   0.00000  Uiso   1.00
C1123  C     0.59811   0.65189   0.25000   0.00000  Uiso   1.00
C1124  C     0.84811   0.59811   0.75000   0.00000  Uiso   1.00
C1125  C     0.65189   0.90189   0.25000   0.00000  Uiso   1.00
C1126  C     0.50000   0.75000   0.47933   0.00000  Uiso   1.00
C1127  C     0.75961   0.96775   0.91774   0.00000  Uiso   1.00
C1128  C     0.50000   0.75000   0.52067   0.00000  Uiso   1.00
C1129  C     0.75000   0.50000   0.47933   0.00000  Uiso   1.00
C1130  C     0.75000   0.50000   0.52067   0.00000  Uiso   1.00
C1131  C     0.75000   0.50000   0.97933   0.00000  Uiso   1.00
C1132  C     0.75000   0.50000   0.02067   0.00000  Uiso   1.00
C1133  C     0.50000   0.75000   0.97933   0.00000  Uiso   1.00
C1134  C     0.50000   0.75000   0.02067   0.00000  Uiso   1.00
C1135  C     0.98181   0.81702   0.39491   0.00000  Uiso   1.00
C1136  C     0.94077   0.82231   0.38996   0.00000  Uiso   1.00
C1137  C     0.51819   0.68298   0.60509   0.00000  Uiso   1.00
C1138  C     0.74038   0.53225   0.08226   0.00000  Uiso   1.00
C1139  C     0.55923   0.67769   0.61004   0.00000  Uiso   1.00
C1140  C     0.68298   0.51819   0.39491   0.00000  Uiso   1.00
C1141  C     0.67769   0.55924   0.38996   0.00000  Uiso   1.00
C1142  C     0.81702   0.98181   0.60509   0.00000  Uiso   1.00
C1143  C     0.82231   0.94076   0.61004   0.00000  Uiso   1.00
C1144  C     0.51819   0.68298   0.39490   0.00000  Uiso   1.00
C1145  C     0.55923   0.67769   0.38996   0.00000  Uiso   1.00
C1146  C     0.98181   0.81702   0.60509   0.00000  Uiso   1.00
C1147  C     0.94076   0.82231   0.61004   0.00000  Uiso   1.00
C1148  C     0.81702   0.98180   0.39491   0.00000  Uiso   1.00
C1149  C     0.53225   0.74038   0.91774   0.00000  Uiso   1.00
C1150  C     0.82231   0.94076   0.38996   0.00000  Uiso   1.00
C1151  C     0.68298   0.51820   0.60509   0.00000  Uiso   1.00
C1152  C     0.67769   0.55924   0.61004   0.00000  Uiso   1.00
C1153  C     0.73182   0.56702   0.89491   0.00000  Uiso   1.00
C1154  C     0.69078   0.57232   0.88996   0.00000  Uiso   1.00
C1155  C     0.76819   0.93298   0.10509   0.00000  Uiso   1.00
C1156  C     0.80923   0.92769   0.11003   0.00000  Uiso   1.00
C1157  C     0.93298   0.76820   0.89490   0.00000  Uiso   1.00
C1158  C     0.92769   0.80924   0.88997   0.00000  Uiso   1.00
C1159  C     0.56702   0.73180   0.10509   0.00000  Uiso   1.00
C1160  C     0.96775   0.75962   0.08226   0.00000  Uiso   1.00
C1161  C     0.57231   0.69076   0.11003   0.00000  Uiso   1.00
C1162  C     0.76819   0.93298   0.89490   0.00000  Uiso   1.00
C1163  C     0.80923   0.92768   0.88996   0.00000  Uiso   1.00
C1164  C     0.73181   0.56702   0.10509   0.00000  Uiso   1.00
C1165  C     0.69077   0.57231   0.11003   0.00000  Uiso   1.00
C1166  C     0.56702   0.73180   0.89491   0.00000  Uiso   1.00
C1167  C     0.57231   0.69076   0.88997   0.00000  Uiso   1.00
C1168  C     0.93298   0.76820   0.10509   0.00000  Uiso   1.00
C1169  C     0.92769   0.80924   0.11003   0.00000  Uiso   1.00
C1170  C     0.50000   0.75000   0.39783   0.00000  Uiso   1.00
C1171  C     0.50000   0.75000   0.60217   0.00000  Uiso   1.00
C1172  C     0.75000   0.50000   0.39783   0.00000  Uiso   1.00
C1173  C     0.50962   0.71775   0.58226   0.00000  Uiso   1.00
C1174  C     0.75000   0.50000   0.60217   0.00000  Uiso   1.00
C1175  C     0.75000   0.50000   0.89783   0.00000  Uiso   1.00
C1176  C     0.75000   0.50000   0.10217   0.00000  Uiso   1.00
C1177  C     0.50000   0.75000   0.89783   0.00000  Uiso   1.00
C1178  C     0.50000   0.75000   0.10217   0.00000  Uiso   1.00
C1179  C     0.52097   0.68722   0.47996   0.00000  Uiso   1.00
C1180  C     0.97903   0.81279   0.52004   0.00000  Uiso   1.00
C1181  C     0.81278   0.97903   0.47996   0.00000  Uiso   1.00
C1182  C     0.68722   0.52097   0.52004   0.00000  Uiso   1.00
C1183  C     0.97903   0.81279   0.47996   0.00000  Uiso   1.00
C1184  C     0.71775   0.50962   0.41774   0.00000  Uiso   1.00
C1185  C     0.52097   0.68721   0.52004   0.00000  Uiso   1.00
C1186  C     0.68722   0.52097   0.47996   0.00000  Uiso   1.00
C1187  C     0.81278   0.97903   0.52004   0.00000  Uiso   1.00
C1188  C     0.77096   0.93721   0.97995   0.00000  Uiso   1.00
C1189  C     0.72903   0.56279   0.02004   0.00000  Uiso   1.00
C1190  C     0.56278   0.72903   0.97996   0.00000  Uiso   1.00
C1191  C     0.93721   0.77097   0.02004   0.00000  Uiso   1.00
C1192  C     0.72904   0.56279   0.97996   0.00000  Uiso   1.00
C1193  C     0.77096   0.93721   0.02004   0.00000  Uiso   1.00
C1194  C     0.93722   0.77097   0.97995   0.00000  Uiso   1.00
C1195  C     0.78225   0.99038   0.58226   0.00000  Uiso   1.00
C1196  C     0.56278   0.72903   0.02004   0.00000  Uiso   1.00
C1197  C     0.75000   0.50000   0.35563   0.00000  Uiso   1.00
C1198  C     0.75000   0.50000   0.64437   0.00000  Uiso   1.00
C1199  C     0.50000   0.75000   0.35563   0.00000  Uiso   1.00
C1200  C     0.50000   0.75000   0.64437   0.00000  Uiso   1.00
C1201  C     0.50000   0.75000   0.85563   0.00000  Uiso   1.00
C1202  C     0.50000   0.75000   0.14437   0.00000  Uiso   1.00
C1203  C     0.75000   0.50000   0.85563   0.00000  Uiso   1.00
C1204  C     0.75000   0.50000   0.14437   0.00000  Uiso   1.00
C1205  C     0.67995   0.57005   0.25000   0.00000  Uiso   1.00
C1206  C     0.50962   0.71775   0.41774   0.00000  Uiso   1.00
C1207  C     0.82005   0.92995   0.75000   0.00000  Uiso   1.00
C1208  C     0.92996   0.67996   0.25000   0.00000  Uiso   1.00
C1209  C     0.57004   0.82004   0.75000   0.00000  Uiso   1.00
C1210  C     0.82005   0.92995   0.25000   0.00000  Uiso   1.00
C1211  C     0.67995   0.57005   0.75000   0.00000  Uiso   1.00
C1212  C     0.57004   0.82004   0.25000   0.00000  Uiso   1.00
C1213  C     0.92996   0.67996   0.75000   0.00000  Uiso   1.00
C1214  C     0.67996   0.92996   0.75000   0.00000  Uiso   1.00
C1215  C     0.82004   0.57004   0.25000   0.00000  Uiso   1.00
C1216  C     0.92995   0.82005   0.75000   0.00000  Uiso   1.00
C1217  C     0.99038   0.78225   0.58226   0.00000  Uiso   1.00
C1218  C     0.57005   0.67995   0.25000   0.00000  Uiso   1.00
C1219  C     0.82004   0.57004   0.75000   0.00000  Uiso   1.00
C1220  C     0.67996   0.92996   0.25000   0.00000  Uiso   1.00
C1221  C     0.57005   0.67995   0.75000   0.00000  Uiso   1.00
C1222  C     0.92995   0.82005   0.25000   0.00000  Uiso   1.00
C1223  C     0.63041   0.89632   0.21677   0.00000  Uiso   1.00
C1224  C     0.86959   0.60368   0.78323   0.00000  Uiso   1.00
C1225  C     0.60184   0.62853   0.21793   0.00000  Uiso   1.00
C1226  C     0.89816   0.87147   0.78207   0.00000  Uiso   1.00
C1227  C     0.86958   0.60368   0.21677   0.00000  Uiso   1.00
C1228  C     0.78225   0.99038   0.41774   0.00000  Uiso   1.00
C1229  C     0.63041   0.89632   0.78323   0.00000  Uiso   1.00
C1230  C     0.89816   0.87147   0.21793   0.00000  Uiso   1.00
C1231  C     0.60184   0.62853   0.78207   0.00000  Uiso   1.00
C1232  C     0.62853   0.60184   0.78207   0.00000  Uiso   1.00
C1233  C     0.87147   0.89816   0.21793   0.00000  Uiso   1.00
C1234  C     0.60368   0.86959   0.78323   0.00000  Uiso   1.00
C1235  C     0.89632   0.63041   0.21677   0.00000  Uiso   1.00
C1236  C     0.87147   0.89816   0.78207   0.00000  Uiso   1.00
C1237  C     0.62853   0.60184   0.21793   0.00000  Uiso   1.00
C1238  C     0.89632   0.63042   0.78323   0.00000  Uiso   1.00
C1239  C     0.71775   0.50962   0.58226   0.00000  Uiso   1.00
C1240  C     0.60368   0.86959   0.21677   0.00000  Uiso   1.00
C1241  C     0.88041   0.64632   0.71677   0.00000  Uiso   1.00
C1242  C     0.61959   0.85368   0.28323   0.00000  Uiso   1.00
C1243  C     0.85184   0.87853   0.71793   0.00000  Uiso   1.00
C1244  C     0.64816   0.62147   0.28207   0.00000  Uiso   1.00
C1245  C     0.61958   0.85368   0.71677   0.00000  Uiso   1.00
C1246  C     0.88041   0.64632   0.28323   0.00000  Uiso   1.00
C1247  C     0.64816   0.62147   0.71793   0.00000  Uiso   1.00
C1248  C     0.85184   0.87853   0.28207   0.00000  Uiso   1.00
C1249  C     0.87853   0.85184   0.28207   0.00000  Uiso   1.00
C1250  C     0.74039   0.53225   0.91774   0.00000  Uiso   1.00
C1251  C     0.62147   0.64816   0.71793   0.00000  Uiso   1.00
C1252  C     0.85368   0.61959   0.28323   0.00000  Uiso   1.00
C1253  C     0.64632   0.88041   0.71677   0.00000  Uiso   1.00
C1254  C     0.62147   0.64816   0.28207   0.00000  Uiso   1.00
C1255  C     0.87853   0.85184   0.71793   0.00000  Uiso   1.00
C1256  C     0.64632   0.88042   0.28323   0.00000  Uiso   1.00
C1257  C     0.85368   0.61959   0.71677   0.00000  Uiso   1.00
C1258  C     0.51030   0.71812   0.45879   0.00000  Uiso   1.00
C1259  C     0.98970   0.78188   0.54120   0.00000  Uiso   1.00
C1260  C     0.78188   0.98970   0.45880   0.00000  Uiso   1.00
F1261  F     0.63582   0.91607   0.18391   0.00000  Uiso   1.00
F1262  F     0.86816   0.91982   0.18615   0.00000  Uiso   1.00
F1263  F     0.58393   0.86418   0.81609   0.00000  Uiso   1.00
F1264  F     0.91607   0.63582   0.18391   0.00000  Uiso   1.00
F1265  F     0.86816   0.91982   0.81385   0.00000  Uiso   1.00
F1266  F     0.63184   0.58018   0.18615   0.00000  Uiso   1.00
F1267  F     0.91607   0.63582   0.81609   0.00000  Uiso   1.00
F1268  F     0.58393   0.86418   0.18391   0.00000  Uiso   1.00
F1269  F     0.88582   0.66607   0.68391   0.00000  Uiso   1.00
F1270  F     0.61418   0.83393   0.31609   0.00000  Uiso   1.00
F1271  F     0.83018   0.88184   0.68615   0.00000  Uiso   1.00
F1272  F     0.86418   0.58393   0.81609   0.00000  Uiso   1.00
F1273  F     0.66982   0.61816   0.31385   0.00000  Uiso   1.00
F1274  F     0.61418   0.83393   0.68391   0.00000  Uiso   1.00
F1275  F     0.88582   0.66607   0.31609   0.00000  Uiso   1.00
F1276  F     0.66982   0.61816   0.68615   0.00000  Uiso   1.00
F1277  F     0.83018   0.88184   0.31385   0.00000  Uiso   1.00
F1278  F     0.88184   0.83018   0.31385   0.00000  Uiso   1.00
F1279  F     0.61816   0.66982   0.68615   0.00000  Uiso   1.00
F1280  F     0.83393   0.61418   0.31609   0.00000  Uiso   1.00
F1281  F     0.66607   0.88582   0.68391   0.00000  Uiso   1.00
F1282  F     0.61816   0.66982   0.31385   0.00000  Uiso   1.00
F1283  F     0.58018   0.63184   0.18615   0.00000  Uiso   1.00
F1284  F     0.88184   0.83018   0.68615   0.00000  Uiso   1.00
F1285  F     0.66607   0.88582   0.31609   0.00000  Uiso   1.00
F1286  F     0.83393   0.61418   0.68391   0.00000  Uiso   1.00
F1287  F     0.91982   0.86816   0.81385   0.00000  Uiso   1.00
F1288  F     0.86418   0.58393   0.18391   0.00000  Uiso   1.00
F1289  F     0.63582   0.91607   0.81609   0.00000  Uiso   1.00
F1290  F     0.91982   0.86816   0.18615   0.00000  Uiso   1.00
F1291  F     0.58018   0.63184   0.81385   0.00000  Uiso   1.00
F1292  F     0.63184   0.58018   0.81385   0.00000  Uiso   1.00
H1293  H     0.52982   0.66236   0.46617   0.00000  Uiso   1.00
H1294  H     0.72018   0.58765   0.03383   0.00000  Uiso   1.00
H1295  H     0.58764   0.72018   0.96617   0.00000  Uiso   1.00
H1296  H     0.91236   0.77982   0.03383   0.00000  Uiso   1.00
H1297  H     0.72019   0.58765   0.96617   0.00000  Uiso   1.00
H1298  H     0.77981   0.91235   0.03383   0.00000  Uiso   1.00
H1299  H     0.91236   0.77982   0.96617   0.00000  Uiso   1.00
H1300  H     0.58764   0.72018   0.03383   0.00000  Uiso   1.00
H1301  H     0.92889   0.79932   0.37327   0.00000  Uiso   1.00
H1302  H     0.92684   0.82393   0.41849   0.00000  Uiso   1.00
H1303  H     0.93556   0.84797   0.37382   0.00000  Uiso   1.00
H1304  H     0.97018   0.83764   0.53383   0.00000  Uiso   1.00
H1305  H     0.99426   0.84123   0.40891   0.00000  Uiso   1.00
H1306  H     0.99446   0.81689   0.36566   0.00000  Uiso   1.00
H1307  H     0.57316   0.67607   0.58151   0.00000  Uiso   1.00
H1308  H     0.57111   0.70067   0.62673   0.00000  Uiso   1.00
H1309  H     0.56444   0.65203   0.62618   0.00000  Uiso   1.00
H1310  H     0.50553   0.68311   0.63434   0.00000  Uiso   1.00
H1311  H     0.50574   0.65877   0.59109   0.00000  Uiso   1.00
H1312  H     0.67607   0.57316   0.41849   0.00000  Uiso   1.00
H1313  H     0.70068   0.57111   0.37327   0.00000  Uiso   1.00
H1314  H     0.65203   0.56444   0.37382   0.00000  Uiso   1.00
H1315  H     0.83764   0.97018   0.46617   0.00000  Uiso   1.00
H1316  H     0.68311   0.50554   0.36566   0.00000  Uiso   1.00
H1317  H     0.65877   0.50574   0.40891   0.00000  Uiso   1.00
H1318  H     0.79932   0.92889   0.62673   0.00000  Uiso   1.00
H1319  H     0.82393   0.92684   0.58151   0.00000  Uiso   1.00
H1320  H     0.84797   0.93556   0.62618   0.00000  Uiso   1.00
H1321  H     0.84123   0.99426   0.59109   0.00000  Uiso   1.00
H1322  H     0.81689   0.99446   0.63434   0.00000  Uiso   1.00
H1323  H     0.57111   0.70068   0.37327   0.00000  Uiso   1.00
H1324  H     0.57316   0.67607   0.41849   0.00000  Uiso   1.00
H1325  H     0.56444   0.65203   0.37382   0.00000  Uiso   1.00
H1326  H     0.66236   0.52982   0.53383   0.00000  Uiso   1.00
H1327  H     0.50574   0.65877   0.40891   0.00000  Uiso   1.00
H1328  H     0.50554   0.68311   0.36566   0.00000  Uiso   1.00
H1329  H     0.92684   0.82393   0.58151   0.00000  Uiso   1.00
H1330  H     0.92889   0.79932   0.62673   0.00000  Uiso   1.00
H1331  H     0.93556   0.84797   0.62618   0.00000  Uiso   1.00
H1332  H     0.99446   0.81689   0.63434   0.00000  Uiso   1.00
H1333  H     0.99426   0.84123   0.59109   0.00000  Uiso   1.00
H1334  H     0.82393   0.92684   0.41849   0.00000  Uiso   1.00
H1335  H     0.79932   0.92889   0.37327   0.00000  Uiso   1.00
H1336  H     0.84797   0.93555   0.37382   0.00000  Uiso   1.00
H1337  H     0.97018   0.83764   0.46617   0.00000  Uiso   1.00
H1338  H     0.81689   0.99446   0.36566   0.00000  Uiso   1.00
H1339  H     0.84123   0.99426   0.40891   0.00000  Uiso   1.00
H1340  H     0.70068   0.57111   0.62673   0.00000  Uiso   1.00
H1341  H     0.67607   0.57316   0.58151   0.00000  Uiso   1.00
H1342  H     0.65203   0.56444   0.62618   0.00000  Uiso   1.00
H1343  H     0.65877   0.50574   0.59109   0.00000  Uiso   1.00
H1344  H     0.68311   0.50554   0.63434   0.00000  Uiso   1.00
H1345  H     0.67890   0.54933   0.87327   0.00000  Uiso   1.00
H1346  H     0.67685   0.57394   0.91849   0.00000  Uiso   1.00
H1347  H     0.68557   0.59798   0.87382   0.00000  Uiso   1.00
H1348  H     0.52982   0.66236   0.53383   0.00000  Uiso   1.00
H1349  H     0.74427   0.59123   0.90891   0.00000  Uiso   1.00
H1350  H     0.74447   0.56689   0.86566   0.00000  Uiso   1.00
H1351  H     0.82316   0.92607   0.08150   0.00000  Uiso   1.00
H1352  H     0.82111   0.95067   0.12672   0.00000  Uiso   1.00
H1353  H     0.81444   0.90203   0.12618   0.00000  Uiso   1.00
H1354  H     0.75554   0.93311   0.13434   0.00000  Uiso   1.00
H1355  H     0.75574   0.90877   0.09109   0.00000  Uiso   1.00
H1356  H     0.92607   0.82317   0.91850   0.00000  Uiso   1.00
H1357  H     0.95068   0.82112   0.87328   0.00000  Uiso   1.00
H1358  H     0.90203   0.81445   0.87382   0.00000  Uiso   1.00
H1359  H     0.66236   0.52982   0.46617   0.00000  Uiso   1.00
H1360  H     0.93311   0.75555   0.86565   0.00000  Uiso   1.00
H1361  H     0.90877   0.75575   0.90891   0.00000  Uiso   1.00
H1362  H     0.54932   0.67888   0.12673   0.00000  Uiso   1.00
H1363  H     0.57393   0.67683   0.08150   0.00000  Uiso   1.00
H1364  H     0.59797   0.68555   0.12618   0.00000  Uiso   1.00
H1365  H     0.59123   0.74425   0.09109   0.00000  Uiso   1.00
H1366  H     0.56689   0.74445   0.13434   0.00000  Uiso   1.00
H1367  H     0.82110   0.95067   0.87327   0.00000  Uiso   1.00
H1368  H     0.82315   0.92606   0.91849   0.00000  Uiso   1.00
H1369  H     0.81443   0.90202   0.87382   0.00000  Uiso   1.00
H1370  H     0.83764   0.97018   0.53383   0.00000  Uiso   1.00
H1371  H     0.75573   0.90877   0.90891   0.00000  Uiso   1.00
H1372  H     0.75553   0.93311   0.86566   0.00000  Uiso   1.00
H1373  H     0.67684   0.57393   0.08151   0.00000  Uiso   1.00
H1374  H     0.67889   0.54933   0.12673   0.00000  Uiso   1.00
H1375  H     0.68556   0.59797   0.12618   0.00000  Uiso   1.00
H1376  H     0.74446   0.56689   0.13434   0.00000  Uiso   1.00
H1377  H     0.74426   0.59123   0.09109   0.00000  Uiso   1.00
H1378  H     0.57393   0.67683   0.91850   0.00000  Uiso   1.00
H1379  H     0.54932   0.67888   0.87328   0.00000  Uiso   1.00
H1380  H     0.59797   0.68555   0.87382   0.00000  Uiso   1.00
H1381  H     0.77981   0.91235   0.96617   0.00000  Uiso   1.00
H1382  H     0.56689   0.74445   0.86566   0.00000  Uiso   1.00
H1383  H     0.59123   0.74425   0.90891   0.00000  Uiso   1.00
H1384  H     0.95068   0.82112   0.12672   0.00000  Uiso   1.00
H1385  H     0.92607   0.82317   0.08150   0.00000  Uiso   1.00
H1386  H     0.90203   0.81445   0.12618   0.00000  Uiso   1.00
H1387  H     0.90877   0.75575   0.09109   0.00000  Uiso   1.00
H1388  H     0.93311   0.75555   0.13434   0.00000  Uiso   1.00
O1389  O     0.75000   0.50000   0.25000   0.00000  Uiso   1.00
O1390  O     0.75000   0.96964   0.66245   0.00000  Uiso   1.00
O1391  O     0.96963   0.75000   0.33755   0.00000  Uiso   1.00
O1392  O     0.53036   0.75000   0.66245   0.00000  Uiso   1.00
O1393  O     0.50000   0.71964   0.83755   0.00000  Uiso   1.00
O1394  O     0.50000   0.78037   0.16245   0.00000  Uiso   1.00
O1395  O     0.78036   0.50000   0.83755   0.00000  Uiso   1.00
O1396  O     0.71963   0.50000   0.16245   0.00000  Uiso   1.00
O1397  O     0.50000   0.78037   0.83755   0.00000  Uiso   1.00
O1398  O     0.50000   0.71964   0.16245   0.00000  Uiso   1.00
O1399  O     0.71963   0.50000   0.83755   0.00000  Uiso   1.00
O1400  O     0.75000   0.50000   0.75000   0.00000  Uiso   1.00
O1401  O     0.78036   0.50000   0.16245   0.00000  Uiso   1.00
O1402  O     0.70724   0.57308   0.27302   0.00000  Uiso   1.00
O1403  O     0.79275   0.92693   0.72698   0.00000  Uiso   1.00
O1404  O     0.92692   0.70725   0.27302   0.00000  Uiso   1.00
O1405  O     0.57307   0.79276   0.72698   0.00000  Uiso   1.00
O1406  O     0.79275   0.92693   0.27302   0.00000  Uiso   1.00
O1407  O     0.70724   0.57308   0.72698   0.00000  Uiso   1.00
O1408  O     0.57307   0.79276   0.27302   0.00000  Uiso   1.00
O1409  O     0.92692   0.70725   0.72698   0.00000  Uiso   1.00
O1410  O     0.70724   0.92693   0.72698   0.00000  Uiso   1.00
O1411  O     0.50000   0.75000   0.25000   0.00000  Uiso   1.00
O1412  O     0.79275   0.57308   0.27302   0.00000  Uiso   1.00
O1413  O     0.92692   0.79276   0.72698   0.00000  Uiso   1.00
O1414  O     0.57307   0.70725   0.27302   0.00000  Uiso   1.00
O1415  O     0.79275   0.57308   0.72698   0.00000  Uiso   1.00
O1416  O     0.70724   0.92693   0.27302   0.00000  Uiso   1.00
O1417  O     0.57307   0.70725   0.72698   0.00000  Uiso   1.00
O1418  O     0.92692   0.79276   0.27302   0.00000  Uiso   1.00
O1419  O     0.95724   0.82308   0.77302   0.00000  Uiso   1.00
O1420  O     0.54275   0.67693   0.22698   0.00000  Uiso   1.00
O1421  O     0.67692   0.95725   0.77302   0.00000  Uiso   1.00
O1422  O     0.50000   0.75000   0.75000   0.00000  Uiso   1.00
O1423  O     0.82307   0.54276   0.22698   0.00000  Uiso   1.00
O1424  O     0.54275   0.67693   0.77302   0.00000  Uiso   1.00
O1425  O     0.95724   0.82308   0.22698   0.00000  Uiso   1.00
O1426  O     0.82307   0.54276   0.77302   0.00000  Uiso   1.00
O1427  O     0.67692   0.95725   0.22698   0.00000  Uiso   1.00
O1428  O     0.95724   0.67693   0.22698   0.00000  Uiso   1.00
O1429  O     0.54275   0.82308   0.77302   0.00000  Uiso   1.00
O1430  O     0.67692   0.54276   0.22698   0.00000  Uiso   1.00
O1431  O     0.82307   0.95725   0.77302   0.00000  Uiso   1.00
O1432  O     0.54275   0.82308   0.22698   0.00000  Uiso   1.00
O1433  O     0.75000   0.96964   0.33755   0.00000  Uiso   1.00
O1434  O     0.95724   0.67693   0.77302   0.00000  Uiso   1.00
O1435  O     0.82307   0.95725   0.22698   0.00000  Uiso   1.00
O1436  O     0.67692   0.54276   0.77302   0.00000  Uiso   1.00
O1437  O     0.75000   0.53037   0.66245   0.00000  Uiso   1.00
O1438  O     0.53036   0.75000   0.33755   0.00000  Uiso   1.00
O1439  O     0.96963   0.75000   0.66245   0.00000  Uiso   1.00
O1440  O     0.75000   0.53037   0.33755   0.00000  Uiso   1.00
Zn1441 Zn    0.70659   0.50000   0.21735   0.00000  Uiso   1.00
Zn1442 Zn    0.54340   0.75000   0.28265   0.00000  Uiso   1.00
Zn1443 Zn    0.75000   0.95660   0.71735   0.00000  Uiso   1.00
Zn1444 Zn    0.75000   0.54341   0.28265   0.00000  Uiso   1.00
Zn1445 Zn    0.54340   0.75000   0.71735   0.00000  Uiso   1.00
Zn1446 Zn    0.95659   0.75000   0.28265   0.00000  Uiso   1.00
Zn1447 Zn    0.75000   0.54341   0.71735   0.00000  Uiso   1.00
Zn1448 Zn    0.75000   0.95660   0.28265   0.00000  Uiso   1.00
Zn1449 Zn    0.79340   0.50000   0.78265   0.00000  Uiso   1.00
Zn1450 Zn    0.50000   0.70660   0.21735   0.00000  Uiso   1.00
Zn1451 Zn    0.50000   0.79341   0.78265   0.00000  Uiso   1.00
Zn1452 Zn    0.79340   0.50000   0.21735   0.00000  Uiso   1.00
Zn1453 Zn    0.70659   0.50000   0.78265   0.00000  Uiso   1.00
Zn1454 Zn    0.50000   0.79341   0.21735   0.00000  Uiso   1.00
Zn1455 Zn    0.50000   0.70660   0.78265   0.00000  Uiso   1.00
Zn1456 Zn    0.95659   0.75000   0.71735   0.00000  Uiso   1.00
loop_
_geom_bond_atom_site_label_1
_geom_bond_atom_site_label_2
_geom_bond_distance
_geom_bond_site_symmetry_2
_ccdc_geom_bond_type
C1     C43     1.532   .     S
C1     C4      1.414   .     A
C1     C442    1.413   .     S
C2     C14     1.414   .     A
C2     C812    1.413   .     A
C2     C63     1.532   .     S
C3     C147    1.414   .     A
C3     C90     1.404   .     A
C3     C38     1.419   .     A
C4     C91     1.404   .     A
C4     C398    1.419   .     S
C5     C36     1.419   .     A
C5     C81     1.414   .     A
C5     C93     1.404   .     A
C6     C94     1.404   .     A
C6     C92     1.414   .     A
C6     C37     1.419   .     A
C7     C103    1.414   .     A
C7     C95     1.404   .     A
C7     C766    1.419   .     S
C8     C35     1.414   .     A
C8     C96     1.404   .     A
C8     C767    1.419   .     A
C9     C46     1.414   .     A
C9     C97     1.404   .     A
C9     C40     1.419   .     S
C10    C57     1.414   .     A
C10    C98     1.404   .     A
C10    C41     1.419   .     S
C11    C68     1.414   .     A
C11    C99     1.404   .     A
C11    C406    1.419   .     A
C12    C158    1.414   .     A
C12    C100    1.404   .     A
C12    C39     1.419   .     S
C13    C449    1.413   .     A
C13    C15     1.414   .     A
C13    C65     1.532   .     S
C14    C768    1.419   .     A
C14    C101    1.404   .     A
C15    C405    1.419   .     A
C15    C102    1.404   .     A
C16    C104    1.404   .     A
C16    C24     1.414   .     A
C16    C42     1.419   .     S
C17    C120    1.456   .     S
C17    C148    1.404   .     A
C17    C150    1.404   .     A
C18    C121    1.456   .     S
C18    C149    1.404   .     A
C18    C146    1.404   .     A
C19    C113    1.457   .     S
C19    C145    1.405   .     A
C19    C152    1.405   .     A
C20    C144    1.405   .     A
C20    C151    1.405   .     A
C20    C115    1.458   .     S
C21    C116    1.456   .     S
C21    C154    1.404   .     A
C21    C143    1.404   .     A
C22    C142    1.404   .     A
C22    C153    1.404   .     A
C22    C117    1.456   .     S
C23    C118    1.457   .     S
C23    C141    1.405   .     A
C23    C156    1.405   .     A
C24    C67     1.532   .     S
C24    C86     1.413   .     S
C25    C119    1.458   .     S
C25    C140    1.405   .     A
C25    C155    1.405   .     A
C26    C139    1.405   .     A
C26    C159    1.405   .     A
C26    C129    1.457   .     S
C27    C138    1.405   .     A
C27    C130    1.457   .     S
C27    C157    1.405   .     A
C28    C137    1.404   .     A
C28    C122    1.456   .     S
C28    C161    1.404   .     A
C29    C123    1.456   .     S
C29    C135    1.404   .     A
C29    C160    1.404   .     A
C30    C134    1.405   .     A
C30    C163    1.405   .     A
C30    C124    1.457   .     S
C31    C162    1.405   .     A
C31    C133    1.405   .     A
C31    C126    1.458   .     S
C32    C127    1.456   .     S
C32    C165    1.404   .     A
C32    C132    1.404   .     A
C33    C131    1.404   .     A
C33    C164    1.404   .     A
C33    C128    1.456   .     S
C34    C36     1.424   .     A
C34    C166    1.419   .     A
C34    C368    1.419   1_455 S
C35    C811    1.413   .     A
C35    C70     1.532   .     S
C36    C531    1.419   1_455 S
C37    C38     1.424   .     A
C37    C896    1.419   1_545 S
C38    C735    1.419   1_545 S
C39    C736    1.419   1_545 A
C39    C40     1.424   1_556 S
C40    C742    1.419   1_545 A
C40    C39     1.424   1_554 S
C41    C379    1.419   1_455 A
C41    C42     1.424   1_556 S
C42    C375    1.419   1_455 A
C42    C41     1.424   1_554 S
C43    C44     1.529   .     S
C43    H213    1.109   .     S
C43    H214    1.109   .     S
C44    H209    1.110   .     S
C44    H211    1.110   .     S
C44    H210    1.109   .     S
C45    C47     1.529   .     S
C45    C81     1.532   .     S
C45    H218    1.109   .     S
C45    H219    1.109   .     S
C46    C72     1.532   .     S
C46    C84     1.413   .     S
C47    H217    1.110   .     S
C47    H216    1.110   .     S
C47    H215    1.109   .     S
C48    H225    1.109   .     S
C48    H224    1.109   .     S
C48    C92     1.532   .     S
C48    C49     1.529   .     S
C49    H222    1.110   .     S
C49    H221    1.110   .     S
C49    H220    1.109   .     S
C50    C51     1.529   .     S
C50    H229    1.109   .     S
C50    H230    1.109   .     S
C50    C103    1.532   .     S
C51    H228    1.110   .     S
C51    H226    1.110   .     S
C51    H227    1.109   .     S
C52    H236    1.109   .     S
C52    C53     1.529   .     S
C52    C114    1.532   .     S
C52    H235    1.109   .     S
C53    H232    1.109   .     S
C53    H233    1.110   .     S
C53    H231    1.110   .     S
C54    C125    1.532   .     S
C54    C55     1.529   .     S
C54    H241    1.109   .     S
C54    H240    1.109   .     S
C55    H237    1.109   .     S
C55    H238    1.110   .     S
C55    H239    1.110   .     S
C56    C136    1.532   .     S
C56    C58     1.529   .     S
C56    H247    1.109   .     S
C56    H246    1.109   .     S
C57    C74     1.532   .     S
C57    C85     1.413   .     S
C58    H244    1.110   .     S
C58    H242    1.109   .     S
C58    H243    1.110   .     S
C59    C147    1.532   .     S
C59    C60     1.529   .     S
C59    H251    1.109   .     S
C59    H252    1.109   .     S
C60    H249    1.109   .     S
C60    H250    1.110   .     S
C60    H248    1.110   .     S
C61    H258    1.109   .     S
C61    C158    1.532   .     S
C61    C62     1.529   .     S
C61    H257    1.109   .     S
C62    H255    1.110   .     S
C62    H253    1.110   .     S
C62    H254    1.109   .     S
C63    H262    1.109   .     S
C63    C64     1.529   .     S
C63    H263    1.109   .     S
C64    H261    1.110   .     S
C64    H259    1.109   .     S
C64    H260    1.110   .     S
C65    H268    1.109   .     S
C65    H269    1.109   .     S
C65    C66     1.529   .     S
C66    H265    1.110   .     S
C66    H264    1.109   .     S
C66    H266    1.110   .     S
C67    H274    1.109   .     S
C67    C69     1.529   .     S
C67    H273    1.109   .     S
C68    C76     1.532   .     S
C68    C450    1.413   .     A
C69    H272    1.110   .     S
C69    H270    1.110   .     S
C69    H271    1.109   .     S
C70    H280    1.109   .     S
C70    C71     1.529   .     S
C70    H279    1.109   .     S
C71    H275    1.110   .     S
C71    H277    1.110   .     S
C71    H276    1.109   .     S
C72    H284    1.109   .     S
C72    H285    1.109   .     S
C72    C73     1.529   .     S
C73    H282    1.110   .     S
C73    H281    1.109   .     S
C73    H283    1.110   .     S
C74    H291    1.109   .     S
C74    H290    1.109   .     S
C74    C75     1.529   .     S
C75    H288    1.110   .     S
C75    H286    1.109   .     S
C75    H287    1.110   .     S
C76    H295    1.109   .     S
C76    H296    1.109   .     S
C76    C77     1.529   .     S
C77    H294    1.110   .     S
C77    H292    1.110   .     S
C77    H293    1.109   .     S
C78    C114    1.413   .     A
C78    C107    1.453   .     S
C78    C365    1.413   1_455 S
C79    C108    1.453   .     S
C79    C489    1.413   1_455 A
C79    C81     1.413   .     S
C80    C92     1.413   .     A
C80    C105    1.453   .     S
C80    C864    1.413   1_545 S
C82    C106    1.453   .     S
C82    C831    1.413   1_545 A
C82    C147    1.413   .     S
C83    C763    1.413   1_545 A
C83    C111    1.453   .     S
C83    C158    1.413   .     S
C84    C112    1.453   .     S
C84    C730    1.413   1_545 A
C85    C377    1.413   1_455 A
C85    C109    1.453   .     S
C86    C110    1.453   .     S
C86    C432    1.413   1_455 A
C87    C93     1.381   .     A
C87    H201    1.079   .     S
C87    C166    1.404   .     A
C88    H212    1.079   .     S
C88    C91     1.381   .     A
C88    C167    1.404   .     A
C89    H223    1.079   .     S
C89    C95     1.381   .     A
C89    C168    1.404   .     A
C90    C94     1.381   .     A
C90    H234    1.079   .     S
C91    H245    1.079   .     S
C93    H256    1.079   .     S
C94    H267    1.079   .     S
C95    H278    1.079   .     S
C96    H289    1.079   .     S
C96    C101    1.381   1_556 S
C97    H202    1.079   .     S
C97    C100    1.381   1_554 S
C98    H203    1.079   .     S
C98    C104    1.381   1_556 S
C99    H204    1.079   .     S
C99    C102    1.381   1_554 S
C100   H205    1.079   .     S
C100   C97     1.381   1_556 S
C101   H206    1.079   .     S
C101   C96     1.381   1_554 S
C102   H207    1.079   .     S
C102   C99     1.381   1_556 S
C103   C810    1.413   .     A
C104   H208    1.079   .     S
C104   C98     1.381   1_554 S
C105   O348    1.277   .     A
C105   O1069   1.277   1_545 S
C106   O1026   1.277   1_545 A
C106   O345    1.277   .     S
C107   O346    1.277   .     A
C107   O663    1.277   1_455 S
C108   O711    1.277   1_455 A
C108   O300    1.277   .     S
C109   O305    1.277   .     A
C109   O301    1.277   .     A
C110   O302    1.277   .     S
C110   O306    1.277   .     S
C111   O307    1.277   .     A
C111   O303    1.277   .     A
C112   O304    1.277   .     A
C112   O309    1.277   .     A
C113   O310    1.282   .     A
C113   O338    1.282   .     A
C114   C166    1.414   .     A
C115   O311    1.282   .     A
C115   O339    1.282   .     A
C116   O336    1.282   .     A
C116   O312    1.282   .     A
C117   O337    1.282   .     A
C117   O313    1.282   .     A
C118   O314    1.282   .     A
C118   O343    1.282   .     A
C119   O344    1.282   .     A
C119   O315    1.282   .     A
C120   O316    1.282   .     A
C120   O340    1.282   .     A
C121   O342    1.282   .     A
C121   O317    1.282   .     A
C122   O329    1.282   .     A
C122   O318    1.282   .     A
C123   O331    1.282   .     A
C123   O320    1.282   .     A
C124   O321    1.282   .     A
C124   O327    1.282   .     A
C125   C443    1.413   .     A
C125   C167    1.414   .     A
C126   O322    1.282   .     A
C126   O328    1.282   .     A
C127   O323    1.282   .     A
C127   O334    1.282   .     A
C128   O335    1.282   .     A
C128   O324    1.282   .     A
C129   O332    1.282   .     A
C129   O325    1.282   .     A
C130   O333    1.282   .     A
C130   O326    1.282   .     A
C131   F169    1.358   .     S
C131   C148    1.387   .     A
C132   F180    1.358   .     S
C132   C146    1.387   .     A
C133   C145    1.386   .     A
C133   F191    1.358   .     S
C134   C144    1.386   .     A
C134   F195    1.358   .     S
C135   F196    1.358   .     S
C135   C143    1.387   .     A
C136   C168    1.414   .     A
C136   C808    1.413   .     S
C137   F197    1.358   .     S
C137   C142    1.387   .     A
C138   C141    1.386   .     A
C138   F198    1.358   .     S
C139   C140    1.386   .     A
C139   F199    1.358   .     S
C140   F200    1.358   .     S
C141   F170    1.358   .     S
C142   F171    1.358   .     S
C143   F172    1.358   .     S
C144   F173    1.358   .     S
C145   F174    1.358   .     S
C146   F175    1.358   .     S
C148   F176    1.358   .     S
C149   C165    1.387   .     A
C149   F177    1.358   .     S
C150   C164    1.387   .     A
C150   F178    1.358   .     S
C151   F179    1.358   .     S
C151   C163    1.386   .     A
C152   F181    1.358   .     S
C152   C162    1.386   .     A
C153   C161    1.387   .     A
C153   F182    1.358   .     S
C154   F183    1.358   .     S
C154   C160    1.387   .     A
C155   C159    1.386   .     A
C155   F184    1.358   .     S
C156   F185    1.358   .     S
C156   C157    1.386   .     A
C157   F186    1.358   .     S
C159   F187    1.358   .     S
C160   F188    1.358   .     S
C161   F189    1.358   .     S
C162   F190    1.358   .     S
C163   F192    1.358   .     S
C164   F193    1.358   .     S
C165   F194    1.358   .     S
C167   C400    1.419   .     S
C168   C765    1.419   .     S
O297   Zn1084  1.950   1_545 S
O297   Zn349   1.950   .     S
O297   Zn352   1.950   .     S
O297   Zn360   1.950   .     S
O298   C834    1.277   .     A
O298   Zn351   1.950   .     S
O299   Zn354   1.950   .     S
O299   C471    1.277   .     S
O300   Zn353   1.950   .     S
O301   Zn363   1.950   .     S
O302   Zn362   1.950   .     S
O303   Zn357   1.950   .     S
O304   Zn349   1.950   .     S
O305   Zn359   1.950   .     S
O306   Zn358   1.950   .     S
O307   Zn361   1.950   .     S
O308   Zn355   1.950   .     S
O308   Zn1079  1.950   1_545 S
O308   Zn357   1.950   .     S
O308   Zn361   1.950   .     S
O309   Zn360   1.950   .     S
O310   Zn352   1.940   .     S
O311   Zn351   1.940   .     S
O312   Zn354   1.938   .     S
O313   Zn353   1.938   .     S
O314   Zn356   1.940   .     S
O315   Zn355   1.940   .     S
O316   Zn350   1.938   .     S
O317   Zn364   1.938   .     S
O318   Zn351   1.938   .     S
O319   Zn350   1.950   .     S
O319   Zn358   1.950   .     S
O319   Zn362   1.950   .     S
O319   Zn718   1.950   1_455 S
O320   Zn352   1.938   .     S
O321   Zn364   1.940   .     S
O322   Zn350   1.940   .     S
O323   Zn355   1.938   .     S
O324   Zn356   1.938   .     S
O325   Zn353   1.940   .     S
O326   Zn354   1.940   .     S
O327   Zn723   1.940   .     S
O328   Zn358   1.940   .     S
O329   Zn1089  1.938   .     S
O330   Zn363   1.950   .     S
O330   Zn353   1.950   .     S
O330   Zn359   1.950   .     S
O330   Zn728   1.950   1_455 S
O331   Zn360   1.938   .     S
O332   Zn363   1.940   .     S
O333   Zn726   1.940   .     S
O334   Zn357   1.938   .     S
O335   Zn1077  1.938   .     S
O336   Zn722   1.938   .     S
O337   Zn359   1.938   .     S
O338   Zn349   1.940   .     S
O339   Zn1085  1.940   .     S
O340   Zn362   1.938   .     S
O341   Zn356   1.950   .     S
O341   C833    1.277   .     S
O342   Zn727   1.938   .     S
O343   Zn1088  1.940   .     S
O344   Zn361   1.940   .     S
O345   Zn355   1.950   .     S
O346   Zn350   1.950   .     S
O347   C472    1.277   .     A
O347   Zn364   1.950   .     S
O348   Zn352   1.950   .     S
Zn349  O1063   1.938   1_545 S
Zn351  O1036   1.950   .     S
Zn354  O683    1.950   .     S
Zn356  O1025   1.950   .     S
Zn357  O1067   1.940   1_545 S
Zn358  O700    1.938   1_455 S
Zn359  O691    1.940   1_455 S
Zn360  O1071   1.940   1_545 S
Zn361  O1057   1.938   1_545 S
Zn362  O697    1.940   1_455 S
Zn363  O706    1.938   1_455 S
Zn364  O694    1.950   .     S
C365   C407    1.532   .     S
C365   C368    1.414   .     A
C365   C78     1.413   1_655 S
C366   C378    1.414   .     A
C366   C1176   1.413   .     A
C366   C427    1.532   .     S
C367   C511    1.414   .     A
C367   C454    1.404   .     A
C367   C402    1.419   .     A
C368   C455    1.404   .     A
C368   C34     1.419   1_655 S
C369   C400    1.419   .     A
C369   C445    1.414   .     A
C369   C457    1.404   .     A
C370   C458    1.404   .     A
C370   C456    1.414   .     A
C370   C401    1.419   .     A
C371   C467    1.414   .     A
C371   C459    1.404   .     A
C371   C1130   1.419   .     S
C372   C399    1.414   .     A
C372   C460    1.404   .     A
C372   C1131   1.419   .     A
C373   C410    1.414   .     A
C373   C461    1.404   .     A
C373   C404    1.419   .     S
C374   C421    1.414   .     A
C374   C462    1.404   .     A
C374   C405    1.419   .     S
C375   C432    1.414   .     A
C375   C463    1.404   .     A
C375   C42     1.419   1_655 A
C376   C522    1.414   .     A
C376   C464    1.404   .     A
C376   C403    1.419   .     S
C377   C85     1.413   1_655 A
C377   C379    1.414   .     A
C377   C429    1.532   .     S
C378   C1132   1.419   .     A
C378   C465    1.404   .     A
C379   C41     1.419   1_655 A
C379   C466    1.404   .     A
C380   C468    1.404   .     A
C380   C388    1.414   .     A
C380   C406    1.419   .     S
C381   C484    1.456   .     S
C381   C512    1.404   .     A
C381   C514    1.404   .     A
C382   C485    1.456   .     S
C382   C513    1.404   .     A
C382   C510    1.404   .     A
C383   C477    1.457   .     S
C383   C509    1.405   .     A
C383   C516    1.405   .     A
C384   C508    1.405   .     A
C384   C515    1.405   .     A
C384   C479    1.458   .     S
C385   C480    1.456   .     S
C385   C518    1.404   .     A
C385   C507    1.404   .     A
C386   C506    1.404   .     A
C386   C517    1.404   .     A
C386   C481    1.456   .     S
C387   C482    1.457   .     S
C387   C505    1.405   .     A
C387   C520    1.405   .     A
C388   C431    1.532   .     S
C388   C450    1.413   .     S
C389   C483    1.458   .     S
C389   C504    1.405   .     A
C389   C519    1.405   .     A
C390   C503    1.405   .     A
C390   C523    1.405   .     A
C390   C493    1.457   .     S
C391   C502    1.405   .     A
C391   C494    1.457   .     S
C391   C521    1.405   .     A
C392   C501    1.404   .     A
C392   C486    1.456   .     S
C392   C525    1.404   .     A
C393   C487    1.456   .     S
C393   C499    1.404   .     A
C393   C524    1.404   .     A
C394   C498    1.405   .     A
C394   C527    1.405   .     A
C394   C488    1.457   .     S
C395   C526    1.405   .     A
C395   C497    1.405   .     A
C395   C490    1.458   .     S
C396   C491    1.456   .     S
C396   C529    1.404   .     A
C396   C496    1.404   .     A
C397   C495    1.404   .     A
C397   C528    1.404   .     A
C397   C492    1.456   .     S
C398   C400    1.424   .     A
C398   C530    1.419   .     A
C399   C1175   1.413   .     A
C399   C434    1.532   .     S
C401   C402    1.424   .     A
C401   C1260   1.419   1_545 S
C402   C1099   1.419   1_545 S
C403   C1100   1.419   1_545 A
C403   C404    1.424   1_556 S
C404   C1106   1.419   1_545 A
C404   C403    1.424   1_554 S
C405   C406    1.424   1_556 S
C406   C405    1.424   1_554 S
C407   C408    1.529   .     S
C407   H577    1.109   .     S
C407   H578    1.109   .     S
C408   H573    1.110   .     S
C408   H575    1.110   .     S
C408   H574    1.109   .     S
C409   C411    1.529   .     S
C409   C445    1.532   .     S
C409   H582    1.109   .     S
C409   H583    1.109   .     S
C410   C436    1.532   .     S
C410   C448    1.413   .     S
C411   H581    1.110   .     S
C411   H580    1.110   .     S
C411   H579    1.109   .     S
C412   H589    1.109   .     S
C412   H588    1.109   .     S
C412   C456    1.532   .     S
C412   C413    1.529   .     S
C413   H586    1.110   .     S
C413   H585    1.110   .     S
C413   H584    1.109   .     S
C414   C415    1.529   .     S
C414   H593    1.109   .     S
C414   H594    1.109   .     S
C414   C467    1.532   .     S
C415   H592    1.110   .     S
C415   H590    1.110   .     S
C415   H591    1.109   .     S
C416   H600    1.109   .     S
C416   C417    1.529   .     S
C416   C478    1.532   .     S
C416   H599    1.109   .     S
C417   H596    1.109   .     S
C417   H597    1.110   .     S
C417   H595    1.110   .     S
C418   C489    1.532   .     S
C418   C419    1.529   .     S
C418   H605    1.109   .     S
C418   H604    1.109   .     S
C419   H601    1.109   .     S
C419   H602    1.110   .     S
C419   H603    1.110   .     S
C420   C500    1.532   .     S
C420   C422    1.529   .     S
C420   H611    1.109   .     S
C420   H610    1.109   .     S
C421   C438    1.532   .     S
C421   C449    1.413   .     S
C422   H608    1.110   .     S
C422   H606    1.109   .     S
C422   H607    1.110   .     S
C423   C511    1.532   .     S
C423   C424    1.529   .     S
C423   H615    1.109   .     S
C423   H616    1.109   .     S
C424   H613    1.109   .     S
C424   H614    1.110   .     S
C424   H612    1.110   .     S
C425   H622    1.109   .     S
C425   C522    1.532   .     S
C425   C426    1.529   .     S
C425   H621    1.109   .     S
C426   H619    1.110   .     S
C426   H617    1.110   .     S
C426   H618    1.109   .     S
C427   H626    1.109   .     S
C427   C428    1.529   .     S
C427   H627    1.109   .     S
C428   H625    1.110   .     S
C428   H623    1.109   .     S
C428   H624    1.110   .     S
C429   H632    1.109   .     S
C429   H633    1.109   .     S
C429   C430    1.529   .     S
C430   H629    1.110   .     S
C430   H628    1.109   .     S
C430   H630    1.110   .     S
C431   H638    1.109   .     S
C431   C433    1.529   .     S
C431   H637    1.109   .     S
C432   C440    1.532   .     S
C432   C86     1.413   1_655 A
C433   H636    1.110   .     S
C433   H634    1.110   .     S
C433   H635    1.109   .     S
C434   H644    1.109   .     S
C434   C435    1.529   .     S
C434   H643    1.109   .     S
C435   H639    1.110   .     S
C435   H641    1.110   .     S
C435   H640    1.109   .     S
C436   H648    1.109   .     S
C436   H649    1.109   .     S
C436   C437    1.529   .     S
C437   H646    1.110   .     S
C437   H645    1.109   .     S
C437   H647    1.110   .     S
C438   H655    1.109   .     S
C438   H654    1.109   .     S
C438   C439    1.529   .     S
C439   H652    1.110   .     S
C439   H650    1.109   .     S
C439   H651    1.110   .     S
C440   H659    1.109   .     S
C440   H660    1.109   .     S
C440   C441    1.529   .     S
C441   H658    1.110   .     S
C441   H656    1.110   .     S
C441   H657    1.109   .     S
C442   C478    1.413   .     A
C442   C471    1.453   .     S
C443   C472    1.453   .     S
C443   C445    1.413   .     S
C444   C456    1.413   .     A
C444   C469    1.453   .     S
C444   C1228   1.413   1_545 S
C446   C470    1.453   .     S
C446   C1195   1.413   1_545 A
C446   C511    1.413   .     S
C447   C1127   1.413   1_545 A
C447   C475    1.453   .     S
C447   C522    1.413   .     S
C448   C476    1.453   .     S
C448   C1094   1.413   1_545 A
C449   C473    1.453   .     S
C450   C474    1.453   .     S
C451   C457    1.381   .     A
C451   H565    1.079   .     S
C451   C530    1.404   .     A
C452   H576    1.079   .     S
C452   C455    1.381   .     A
C452   C531    1.404   .     A
C453   H587    1.079   .     S
C453   C459    1.381   .     A
C453   C532    1.404   .     A
C454   C458    1.381   .     A
C454   H598    1.079   .     S
C455   H609    1.079   .     S
C457   H620    1.079   .     S
C458   H631    1.079   .     S
C459   H642    1.079   .     S
C460   H653    1.079   .     S
C460   C465    1.381   1_556 S
C461   H566    1.079   .     S
C461   C464    1.381   1_554 S
C462   H567    1.079   .     S
C462   C468    1.381   1_556 S
C463   H568    1.079   .     S
C463   C466    1.381   1_554 S
C464   H569    1.079   .     S
C464   C461    1.381   1_556 S
C465   H570    1.079   .     S
C465   C460    1.381   1_554 S
C466   H571    1.079   .     S
C466   C463    1.381   1_556 S
C467   C1174   1.413   .     A
C468   H572    1.079   .     S
C468   C462    1.381   1_554 S
C469   O712    1.277   .     A
C469   O1433   1.277   1_545 S
C470   O1390   1.277   1_545 A
C470   O709    1.277   .     S
C471   O710    1.277   .     A
C472   O664    1.277   .     S
C473   O669    1.277   .     A
C473   O665    1.277   .     A
C474   O666    1.277   .     S
C474   O670    1.277   .     S
C475   O671    1.277   .     A
C475   O667    1.277   .     A
C476   O668    1.277   .     A
C476   O673    1.277   .     A
C477   O674    1.282   .     A
C477   O702    1.282   .     A
C478   C530    1.414   .     A
C479   O675    1.282   .     A
C479   O703    1.282   .     A
C480   O700    1.282   .     A
C480   O676    1.282   .     A
C481   O701    1.282   .     A
C481   O677    1.282   .     A
C482   O678    1.282   .     A
C482   O707    1.282   .     A
C483   O708    1.282   .     A
C483   O679    1.282   .     A
C484   O680    1.282   .     A
C484   O704    1.282   .     A
C485   O706    1.282   .     A
C485   O681    1.282   .     A
C486   O693    1.282   .     A
C486   O682    1.282   .     A
C487   O695    1.282   .     A
C487   O684    1.282   .     A
C488   O685    1.282   .     A
C488   O691    1.282   .     A
C489   C79     1.413   1_655 A
C489   C531    1.414   .     A
C490   O686    1.282   .     A
C490   O692    1.282   .     A
C491   O687    1.282   .     A
C491   O698    1.282   .     A
C492   O699    1.282   .     A
C492   O688    1.282   .     A
C493   O696    1.282   .     A
C493   O689    1.282   .     A
C494   O697    1.282   .     A
C494   O690    1.282   .     A
C495   F533    1.358   .     S
C495   C512    1.387   .     A
C496   F544    1.358   .     S
C496   C510    1.387   .     A
C497   C509    1.386   .     A
C497   F555    1.358   .     S
C498   C508    1.386   .     A
C498   F559    1.358   .     S
C499   F560    1.358   .     S
C499   C507    1.387   .     A
C500   C532    1.414   .     A
C500   C1172   1.413   .     S
C501   F561    1.358   .     S
C501   C506    1.387   .     A
C502   C505    1.386   .     A
C502   F562    1.358   .     S
C503   C504    1.386   .     A
C503   F563    1.358   .     S
C504   F564    1.358   .     S
C505   F534    1.358   .     S
C506   F535    1.358   .     S
C507   F536    1.358   .     S
C508   F537    1.358   .     S
C509   F538    1.358   .     S
C510   F539    1.358   .     S
C512   F540    1.358   .     S
C513   C529    1.387   .     A
C513   F541    1.358   .     S
C514   C528    1.387   .     A
C514   F542    1.358   .     S
C515   F543    1.358   .     S
C515   C527    1.386   .     A
C516   F545    1.358   .     S
C516   C526    1.386   .     A
C517   C525    1.387   .     A
C517   F546    1.358   .     S
C518   F547    1.358   .     S
C518   C524    1.387   .     A
C519   C523    1.386   .     A
C519   F548    1.358   .     S
C520   F549    1.358   .     S
C520   C521    1.386   .     A
C521   F550    1.358   .     S
C523   F551    1.358   .     S
C524   F552    1.358   .     S
C525   F553    1.358   .     S
C526   F554    1.358   .     S
C527   F556    1.358   .     S
C528   F557    1.358   .     S
C529   F558    1.358   .     S
C531   C36     1.419   1_655 S
C532   C1129   1.419   .     S
O661   Zn1448  1.950   1_545 S
O661   Zn713   1.950   .     S
O661   Zn716   1.950   .     S
O661   Zn724   1.950   .     S
O662   C1198   1.277   .     A
O662   Zn715   1.950   .     S
O663   Zn718   1.950   .     S
O663   C107    1.277   1_655 S
O664   Zn717   1.950   .     S
O665   Zn727   1.950   .     S
O666   Zn726   1.950   .     S
O667   Zn721   1.950   .     S
O668   Zn713   1.950   .     S
O669   Zn723   1.950   .     S
O670   Zn722   1.950   .     S
O671   Zn725   1.950   .     S
O672   Zn719   1.950   .     S
O672   Zn1443  1.950   1_545 S
O672   Zn721   1.950   .     S
O672   Zn725   1.950   .     S
O673   Zn724   1.950   .     S
O674   Zn716   1.940   .     S
O675   Zn715   1.940   .     S
O676   Zn718   1.938   .     S
O677   Zn717   1.938   .     S
O678   Zn720   1.940   .     S
O679   Zn719   1.940   .     S
O680   Zn714   1.938   .     S
O681   Zn728   1.938   .     S
O682   Zn715   1.938   .     S
O683   Zn714   1.950   .     S
O683   Zn722   1.950   .     S
O683   Zn726   1.950   .     S
O684   Zn716   1.938   .     S
O685   Zn728   1.940   .     S
O686   Zn714   1.940   .     S
O687   Zn719   1.938   .     S
O688   Zn720   1.938   .     S
O689   Zn717   1.940   .     S
O690   Zn718   1.940   .     S
O691   Zn359   1.940   1_655 S
O692   Zn722   1.940   .     S
O693   Zn1453  1.938   .     S
O694   Zn727   1.950   .     S
O694   Zn717   1.950   .     S
O694   Zn723   1.950   .     S
O695   Zn724   1.938   .     S
O696   Zn727   1.940   .     S
O697   Zn362   1.940   1_655 S
O698   Zn721   1.938   .     S
O699   Zn1441  1.938   .     S
O700   Zn358   1.938   1_655 S
O701   Zn723   1.938   .     S
O702   Zn713   1.940   .     S
O703   Zn1449  1.940   .     S
O704   Zn726   1.938   .     S
O705   Zn720   1.950   .     S
O705   C1197   1.277   .     S
O706   Zn363   1.938   1_655 S
O707   Zn1452  1.940   .     S
O708   Zn725   1.940   .     S
O709   Zn719   1.950   .     S
O710   Zn714   1.950   .     S
O711   C108    1.277   1_655 A
O711   Zn728   1.950   .     S
O712   Zn716   1.950   .     S
Zn713  O1427   1.938   1_545 S
Zn715  O1400   1.950   .     S
Zn718  O319    1.950   1_655 S
Zn720  O1389   1.950   .     S
Zn721  O1431   1.940   1_545 S
Zn724  O1435   1.940   1_545 S
Zn725  O1421   1.938   1_545 S
Zn728  O330    1.950   1_655 S
C729   C771    1.532   .     S
C729   C732    1.414   .     A
C729   C1170   1.413   .     S
C730   C742    1.414   .     A
C730   C84     1.413   1_565 A
C730   C791    1.532   .     S
C731   C875    1.414   .     A
C731   C818    1.404   .     A
C731   C766    1.419   .     A
C732   C819    1.404   .     A
C732   C1126   1.419   .     S
C733   C764    1.419   .     A
C733   C809    1.414   .     A
C733   C821    1.404   .     A
C734   C822    1.404   .     A
C734   C820    1.414   .     A
C734   C765    1.419   .     A
C735   C831    1.414   .     A
C735   C823    1.404   .     A
C735   C38     1.419   1_565 S
C736   C763    1.414   .     A
C736   C824    1.404   .     A
C736   C39     1.419   1_565 A
C737   C774    1.414   .     A
C737   C825    1.404   .     A
C737   C768    1.419   .     S
C738   C785    1.414   .     A
C738   C826    1.404   .     A
C738   C769    1.419   .     S
C739   C796    1.414   .     A
C739   C827    1.404   .     A
C739   C1134   1.419   .     A
C740   C886    1.414   .     A
C740   C828    1.404   .     A
C740   C767    1.419   .     S
C741   C1177   1.413   .     A
C741   C743    1.414   .     A
C741   C793    1.532   .     S
C742   C40     1.419   1_565 A
C742   C829    1.404   .     A
C743   C1133   1.419   .     A
C743   C830    1.404   .     A
C744   C832    1.404   .     A
C744   C752    1.414   .     A
C744   C770    1.419   .     S
C745   C848    1.456   .     S
C745   C876    1.404   .     A
C745   C878    1.404   .     A
C746   C849    1.456   .     S
C746   C877    1.404   .     A
C746   C874    1.404   .     A
C747   C841    1.457   .     S
C747   C873    1.405   .     A
C747   C880    1.405   .     A
C748   C872    1.405   .     A
C748   C879    1.405   .     A
C748   C843    1.458   .     S
C749   C844    1.456   .     S
C749   C882    1.404   .     A
C749   C871    1.404   .     A
C750   C870    1.404   .     A
C750   C881    1.404   .     A
C750   C845    1.456   .     S
C751   C846    1.457   .     S
C751   C869    1.405   .     A
C751   C884    1.405   .     A
C752   C795    1.532   .     S
C752   C814    1.413   .     S
C753   C847    1.458   .     S
C753   C868    1.405   .     A
C753   C883    1.405   .     A
C754   C867    1.405   .     A
C754   C887    1.405   .     A
C754   C857    1.457   .     S
C755   C866    1.405   .     A
C755   C858    1.457   .     S
C755   C885    1.405   .     A
C756   C865    1.404   .     A
C756   C850    1.456   .     S
C756   C889    1.404   .     A
C757   C851    1.456   .     S
C757   C863    1.404   .     A
C757   C888    1.404   .     A
C758   C862    1.405   .     A
C758   C891    1.405   .     A
C758   C852    1.457   .     S
C759   C890    1.405   .     A
C759   C861    1.405   .     A
C759   C854    1.458   .     S
C760   C855    1.456   .     S
C760   C893    1.404   .     A
C760   C860    1.404   .     A
C761   C859    1.404   .     A
C761   C892    1.404   .     A
C761   C856    1.456   .     S
C762   C764    1.424   .     A
C762   C894    1.419   .     A
C762   C1096   1.419   1_455 S
C763   C83     1.413   1_565 A
C763   C798    1.532   .     S
C764   C1259   1.419   1_455 S
C765   C766    1.424   .     A
C767   C768    1.424   1_556 S
C768   C767    1.424   1_554 S
C769   C1107   1.419   1_455 A
C769   C770    1.424   1_556 S
C770   C1103   1.419   1_455 A
C770   C769    1.424   1_554 S
C771   C772    1.529   .     S
C771   H941    1.109   .     S
C771   H942    1.109   .     S
C772   H937    1.110   .     S
C772   H939    1.110   .     S
C772   H938    1.109   .     S
C773   C775    1.529   .     S
C773   C809    1.532   .     S
C773   H946    1.109   .     S
C773   H947    1.109   .     S
C774   C800    1.532   .     S
C774   C812    1.413   .     S
C775   H945    1.110   .     S
C775   H944    1.110   .     S
C775   H943    1.109   .     S
C776   H953    1.109   .     S
C776   H952    1.109   .     S
C776   C820    1.532   .     S
C776   C777    1.529   .     S
C777   H950    1.110   .     S
C777   H949    1.110   .     S
C777   H948    1.109   .     S
C778   C779    1.529   .     S
C778   H957    1.109   .     S
C778   H958    1.109   .     S
C778   C831    1.532   .     S
C779   H956    1.110   .     S
C779   H954    1.110   .     S
C779   H955    1.109   .     S
C780   H964    1.109   .     S
C780   C781    1.529   .     S
C780   C842    1.532   .     S
C780   H963    1.109   .     S
C781   H960    1.109   .     S
C781   H961    1.110   .     S
C781   H959    1.110   .     S
C782   C853    1.532   .     S
C782   C783    1.529   .     S
C782   H969    1.109   .     S
C782   H968    1.109   .     S
C783   H965    1.109   .     S
C783   H966    1.110   .     S
C783   H967    1.110   .     S
C784   C864    1.532   .     S
C784   C786    1.529   .     S
C784   H975    1.109   .     S
C784   H974    1.109   .     S
C785   C802    1.532   .     S
C785   C813    1.413   .     S
C786   H972    1.110   .     S
C786   H970    1.109   .     S
C786   H971    1.110   .     S
C787   C875    1.532   .     S
C787   C788    1.529   .     S
C787   H979    1.109   .     S
C787   H980    1.109   .     S
C788   H977    1.109   .     S
C788   H978    1.110   .     S
C788   H976    1.110   .     S
C789   H986    1.109   .     S
C789   C886    1.532   .     S
C789   C790    1.529   .     S
C789   H985    1.109   .     S
C790   H983    1.110   .     S
C790   H981    1.110   .     S
C790   H982    1.109   .     S
C791   H990    1.109   .     S
C791   C792    1.529   .     S
C791   H991    1.109   .     S
C792   H989    1.110   .     S
C792   H987    1.109   .     S
C792   H988    1.110   .     S
C793   H996    1.109   .     S
C793   H997    1.109   .     S
C793   C794    1.529   .     S
C794   H993    1.110   .     S
C794   H992    1.109   .     S
C794   H994    1.110   .     S
C795   H1002   1.109   .     S
C795   C797    1.529   .     S
C795   H1001   1.109   .     S
C796   C804    1.532   .     S
C796   C1178   1.413   .     A
C797   H1000   1.110   .     S
C797   H998    1.110   .     S
C797   H999    1.109   .     S
C798   H1008   1.109   .     S
C798   C799    1.529   .     S
C798   H1007   1.109   .     S
C799   H1003   1.110   .     S
C799   H1005   1.110   .     S
C799   H1004   1.109   .     S
C800   H1012   1.109   .     S
C800   H1013   1.109   .     S
C800   C801    1.529   .     S
C801   H1010   1.110   .     S
C801   H1009   1.109   .     S
C801   H1011   1.110   .     S
C802   H1019   1.109   .     S
C802   H1018   1.109   .     S
C802   C803    1.529   .     S
C803   H1016   1.110   .     S
C803   H1014   1.109   .     S
C803   H1015   1.110   .     S
C804   H1023   1.109   .     S
C804   H1024   1.109   .     S
C804   C805    1.529   .     S
C805   H1022   1.110   .     S
C805   H1020   1.110   .     S
C805   H1021   1.109   .     S
C806   C842    1.413   .     A
C806   C835    1.453   .     S
C806   C1093   1.413   1_455 S
C807   C836    1.453   .     S
C807   C1217   1.413   1_455 A
C807   C809    1.413   .     S
C808   C820    1.413   .     A
C808   C833    1.453   .     S
C810   C834    1.453   .     S
C810   C875    1.413   .     S
C811   C839    1.453   .     S
C811   C886    1.413   .     S
C812   C840    1.453   .     S
C813   C1105   1.413   1_455 A
C813   C837    1.453   .     S
C814   C838    1.453   .     S
C814   C1160   1.413   1_455 A
C815   C821    1.381   .     A
C815   H929    1.079   .     S
C815   C894    1.404   .     A
C816   H940    1.079   .     S
C816   C819    1.381   .     A
C816   C895    1.404   .     A
C817   H951    1.079   .     S
C817   C823    1.381   .     A
C817   C896    1.404   .     A
C818   C822    1.381   .     A
C818   H962    1.079   .     S
C819   H973    1.079   .     S
C821   H984    1.079   .     S
C822   H995    1.079   .     S
C823   H1006   1.079   .     S
C824   H1017   1.079   .     S
C824   C829    1.381   1_556 S
C825   H930    1.079   .     S
C825   C828    1.381   1_554 S
C826   H931    1.079   .     S
C826   C832    1.381   1_556 S
C827   H932    1.079   .     S
C827   C830    1.381   1_554 S
C828   H933    1.079   .     S
C828   C825    1.381   1_556 S
C829   H934    1.079   .     S
C829   C824    1.381   1_554 S
C830   H935    1.079   .     S
C830   C827    1.381   1_556 S
C831   C82     1.413   1_565 A
C832   H936    1.079   .     S
C832   C826    1.381   1_554 S
C833   O1076   1.277   .     A
C834   O1073   1.277   .     S
C835   O1074   1.277   .     A
C835   O1391   1.277   1_455 S
C836   O1439   1.277   1_455 A
C836   O1028   1.277   .     S
C837   O1033   1.277   .     A
C837   O1029   1.277   .     A
C838   O1030   1.277   .     S
C838   O1034   1.277   .     S
C839   O1035   1.277   .     A
C839   O1031   1.277   .     A
C840   O1032   1.277   .     A
C840   O1037   1.277   .     A
C841   O1038   1.282   .     A
C841   O1066   1.282   .     A
C842   C894    1.414   .     A
C843   O1039   1.282   .     A
C843   O1067   1.282   .     A
C844   O1064   1.282   .     A
C844   O1040   1.282   .     A
C845   O1065   1.282   .     A
C845   O1041   1.282   .     A
C846   O1042   1.282   .     A
C846   O1071   1.282   .     A
C847   O1072   1.282   .     A
C847   O1043   1.282   .     A
C848   O1044   1.282   .     A
C848   O1068   1.282   .     A
C849   O1070   1.282   .     A
C849   O1045   1.282   .     A
C850   O1057   1.282   .     A
C850   O1046   1.282   .     A
C851   O1059   1.282   .     A
C851   O1048   1.282   .     A
C852   O1049   1.282   .     A
C852   O1055   1.282   .     A
C853   C1171   1.413   .     A
C853   C895    1.414   .     A
C854   O1050   1.282   .     A
C854   O1056   1.282   .     A
C855   O1051   1.282   .     A
C855   O1062   1.282   .     A
C856   O1063   1.282   .     A
C856   O1052   1.282   .     A
C857   O1060   1.282   .     A
C857   O1053   1.282   .     A
C858   O1061   1.282   .     A
C858   O1054   1.282   .     A
C859   F897    1.358   .     S
C859   C876    1.387   .     A
C860   F908    1.358   .     S
C860   C874    1.387   .     A
C861   C873    1.386   .     A
C861   F919    1.358   .     S
C862   C872    1.386   .     A
C862   F923    1.358   .     S
C863   F924    1.358   .     S
C863   C871    1.387   .     A
C864   C896    1.414   .     A
C864   C80     1.413   1_565 S
C865   F925    1.358   .     S
C865   C870    1.387   .     A
C866   C869    1.386   .     A
C866   F926    1.358   .     S
C867   C868    1.386   .     A
C867   F927    1.358   .     S
C868   F928    1.358   .     S
C869   F898    1.358   .     S
C870   F899    1.358   .     S
C871   F900    1.358   .     S
C872   F901    1.358   .     S
C873   F902    1.358   .     S
C874   F903    1.358   .     S
C876   F904    1.358   .     S
C877   C893    1.387   .     A
C877   F905    1.358   .     S
C878   C892    1.387   .     A
C878   F906    1.358   .     S
C879   F907    1.358   .     S
C879   C891    1.386   .     A
C880   F909    1.358   .     S
C880   C890    1.386   .     A
C881   C889    1.387   .     A
C881   F910    1.358   .     S
C882   F911    1.358   .     S
C882   C888    1.387   .     A
C883   C887    1.386   .     A
C883   F912    1.358   .     S
C884   F913    1.358   .     S
C884   C885    1.386   .     A
C885   F914    1.358   .     S
C887   F915    1.358   .     S
C888   F916    1.358   .     S
C889   F917    1.358   .     S
C890   F918    1.358   .     S
C891   F920    1.358   .     S
C892   F921    1.358   .     S
C893   F922    1.358   .     S
C895   C1128   1.419   .     S
C896   C37     1.419   1_565 S
O1025  Zn1077  1.950   .     S
O1025  Zn1080  1.950   .     S
O1025  Zn1088  1.950   .     S
O1026  C106    1.277   1_565 A
O1026  Zn1079  1.950   .     S
O1027  Zn1082  1.950   .     S
O1027  C1199   1.277   .     S
O1028  Zn1081  1.950   .     S
O1029  Zn1091  1.950   .     S
O1030  Zn1090  1.950   .     S
O1031  Zn1085  1.950   .     S
O1032  Zn1077  1.950   .     S
O1033  Zn1087  1.950   .     S
O1034  Zn1086  1.950   .     S
O1035  Zn1089  1.950   .     S
O1036  Zn1083  1.950   .     S
O1036  Zn1085  1.950   .     S
O1036  Zn1089  1.950   .     S
O1037  Zn1088  1.950   .     S
O1038  Zn1080  1.940   .     S
O1039  Zn1079  1.940   .     S
O1040  Zn1082  1.938   .     S
O1041  Zn1081  1.938   .     S
O1042  Zn1084  1.940   .     S
O1043  Zn1083  1.940   .     S
O1044  Zn1078  1.938   .     S
O1045  Zn1092  1.938   .     S
O1046  Zn1079  1.938   .     S
O1047  Zn1078  1.950   .     S
O1047  Zn1086  1.950   .     S
O1047  Zn1090  1.950   .     S
O1047  Zn1446  1.950   1_455 S
O1048  Zn1080  1.938   .     S
O1049  Zn1092  1.940   .     S
O1050  Zn1078  1.940   .     S
O1051  Zn1083  1.938   .     S
O1052  Zn1084  1.938   .     S
O1053  Zn1081  1.940   .     S
O1054  Zn1082  1.940   .     S
O1055  Zn1451  1.940   .     S
O1056  Zn1086  1.940   .     S
O1057  Zn361   1.938   1_565 S
O1058  Zn1091  1.950   .     S
O1058  Zn1081  1.950   .     S
O1058  Zn1087  1.950   .     S
O1058  Zn1456  1.950   1_455 S
O1059  Zn1088  1.938   .     S
O1060  Zn1091  1.940   .     S
O1061  Zn1454  1.940   .     S
O1062  Zn1085  1.938   .     S
O1063  Zn349   1.938   1_565 S
O1064  Zn1450  1.938   .     S
O1065  Zn1087  1.938   .     S
O1066  Zn1077  1.940   .     S
O1067  Zn357   1.940   1_565 S
O1068  Zn1090  1.938   .     S
O1069  Zn1084  1.950   .     S
O1069  C105    1.277   1_565 S
O1070  Zn1455  1.938   .     S
O1071  Zn360   1.940   1_565 S
O1072  Zn1089  1.940   .     S
O1073  Zn1083  1.950   .     S
O1074  Zn1078  1.950   .     S
O1075  C1200   1.277   .     A
O1075  Zn1092  1.950   .     S
O1076  Zn1080  1.950   .     S
Zn1079 O308    1.950   1_565 S
Zn1082 O1411   1.950   .     S
Zn1084 O297    1.950   1_565 S
Zn1086 O1428   1.938   1_455 S
Zn1087 O1419   1.940   1_455 S
Zn1090 O1425   1.940   1_455 S
Zn1091 O1434   1.938   1_455 S
Zn1092 O1422   1.950   .     S
C1093  C1135   1.532   .     S
C1093  C1096   1.414   .     A
C1093  C806    1.413   1_655 S
C1094  C1106   1.414   .     A
C1094  C448    1.413   1_565 A
C1094  C1155   1.532   .     S
C1095  C1239   1.414   .     A
C1095  C1182   1.404   .     A
C1095  C1130   1.419   .     A
C1096  C1183   1.404   .     A
C1096  C762    1.419   1_655 S
C1097  C1128   1.419   .     A
C1097  C1173   1.414   .     A
C1097  C1185   1.404   .     A
C1098  C1186   1.404   .     A
C1098  C1184   1.414   .     A
C1098  C1129   1.419   .     A
C1099  C1195   1.414   .     A
C1099  C1187   1.404   .     A
C1099  C402    1.419   1_565 S
C1100  C1127   1.414   .     A
C1100  C1188   1.404   .     A
C1100  C403    1.419   1_565 A
C1101  C1138   1.414   .     A
C1101  C1189   1.404   .     A
C1101  C1132   1.419   .     S
C1102  C1149   1.414   .     A
C1102  C1190   1.404   .     A
C1102  C1133   1.419   .     S
C1103  C1160   1.414   .     A
C1103  C1191   1.404   .     A
C1103  C770    1.419   1_655 A
C1104  C1250   1.414   .     A
C1104  C1192   1.404   .     A
C1104  C1131   1.419   .     S
C1105  C813    1.413   1_655 A
C1105  C1107   1.414   .     A
C1105  C1157   1.532   .     S
C1106  C404    1.419   1_565 A
C1106  C1193   1.404   .     A
C1107  C769    1.419   1_655 A
C1107  C1194   1.404   .     A
C1108  C1196   1.404   .     A
C1108  C1116   1.414   .     A
C1108  C1134   1.419   .     S
C1109  C1212   1.456   .     S
C1109  C1240   1.404   .     A
C1109  C1242   1.404   .     A
C1110  C1213   1.456   .     S
C1110  C1241   1.404   .     A
C1110  C1238   1.404   .     A
C1111  C1205   1.457   .     S
C1111  C1237   1.405   .     A
C1111  C1244   1.405   .     A
C1112  C1236   1.405   .     A
C1112  C1243   1.405   .     A
C1112  C1207   1.458   .     S
C1113  C1208   1.456   .     S
C1113  C1246   1.404   .     A
C1113  C1235   1.404   .     A
C1114  C1234   1.404   .     A
C1114  C1245   1.404   .     A
C1114  C1209   1.456   .     S
C1115  C1210   1.457   .     S
C1115  C1233   1.405   .     A
C1115  C1248   1.405   .     A
C1116  C1159   1.532   .     S
C1116  C1178   1.413   .     S
C1117  C1211   1.458   .     S
C1117  C1232   1.405   .     A
C1117  C1247   1.405   .     A
C1118  C1231   1.405   .     A
C1118  C1251   1.405   .     A
C1118  C1221   1.457   .     S
C1119  C1230   1.405   .     A
C1119  C1222   1.457   .     S
C1119  C1249   1.405   .     A
C1120  C1229   1.404   .     A
C1120  C1214   1.456   .     S
C1120  C1253   1.404   .     A
C1121  C1215   1.456   .     S
C1121  C1227   1.404   .     A
C1121  C1252   1.404   .     A
C1122  C1226   1.405   .     A
C1122  C1255   1.405   .     A
C1122  C1216   1.457   .     S
C1123  C1254   1.405   .     A
C1123  C1225   1.405   .     A
C1123  C1218   1.458   .     S
C1124  C1219   1.456   .     S
C1124  C1257   1.404   .     A
C1124  C1224   1.404   .     A
C1125  C1223   1.404   .     A
C1125  C1256   1.404   .     A
C1125  C1220   1.456   .     S
C1126  C1128   1.424   .     A
C1126  C1258   1.419   .     A
C1127  C447    1.413   1_565 A
C1127  C1162   1.532   .     S
C1129  C1130   1.424   .     A
C1131  C1132   1.424   1_556 S
C1132  C1131   1.424   1_554 S
C1133  C1134   1.424   1_556 S
C1134  C1133   1.424   1_554 S
C1135  C1136   1.529   .     S
C1135  H1305   1.109   .     S
C1135  H1306   1.109   .     S
C1136  H1301   1.110   .     S
C1136  H1303   1.110   .     S
C1136  H1302   1.109   .     S
C1137  C1139   1.529   .     S
C1137  C1173   1.532   .     S
C1137  H1310   1.109   .     S
C1137  H1311   1.109   .     S
C1138  C1164   1.532   .     S
C1138  C1176   1.413   .     S
C1139  H1309   1.110   .     S
C1139  H1308   1.110   .     S
C1139  H1307   1.109   .     S
C1140  H1317   1.109   .     S
C1140  H1316   1.109   .     S
C1140  C1184   1.532   .     S
C1140  C1141   1.529   .     S
C1141  H1314   1.110   .     S
C1141  H1313   1.110   .     S
C1141  H1312   1.109   .     S
C1142  C1143   1.529   .     S
C1142  H1321   1.109   .     S
C1142  H1322   1.109   .     S
C1142  C1195   1.532   .     S
C1143  H1320   1.110   .     S
C1143  H1318   1.110   .     S
C1143  H1319   1.109   .     S
C1144  H1328   1.109   .     S
C1144  C1145   1.529   .     S
C1144  C1206   1.532   .     S
C1144  H1327   1.109   .     S
C1145  H1324   1.109   .     S
C1145  H1325   1.110   .     S
C1145  H1323   1.110   .     S
C1146  C1217   1.532   .     S
C1146  C1147   1.529   .     S
C1146  H1333   1.109   .     S
C1146  H1332   1.109   .     S
C1147  H1329   1.109   .     S
C1147  H1330   1.110   .     S
C1147  H1331   1.110   .     S
C1148  C1228   1.532   .     S
C1148  C1150   1.529   .     S
C1148  H1339   1.109   .     S
C1148  H1338   1.109   .     S
C1149  C1166   1.532   .     S
C1149  C1177   1.413   .     S
C1150  H1336   1.110   .     S
C1150  H1334   1.109   .     S
C1150  H1335   1.110   .     S
C1151  C1239   1.532   .     S
C1151  C1152   1.529   .     S
C1151  H1343   1.109   .     S
C1151  H1344   1.109   .     S
C1152  H1341   1.109   .     S
C1152  H1342   1.110   .     S
C1152  H1340   1.110   .     S
C1153  H1350   1.109   .     S
C1153  C1250   1.532   .     S
C1153  C1154   1.529   .     S
C1153  H1349   1.109   .     S
C1154  H1347   1.110   .     S
C1154  H1345   1.110   .     S
C1154  H1346   1.109   .     S
C1155  H1354   1.109   .     S
C1155  C1156   1.529   .     S
C1155  H1355   1.109   .     S
C1156  H1353   1.110   .     S
C1156  H1351   1.109   .     S
C1156  H1352   1.110   .     S
C1157  H1360   1.109   .     S
C1157  H1361   1.109   .     S
C1157  C1158   1.529   .     S
C1158  H1357   1.110   .     S
C1158  H1356   1.109   .     S
C1158  H1358   1.110   .     S
C1159  H1366   1.109   .     S
C1159  C1161   1.529   .     S
C1159  H1365   1.109   .     S
C1160  C1168   1.532   .     S
C1160  C814    1.413   1_655 A
C1161  H1364   1.110   .     S
C1161  H1362   1.110   .     S
C1161  H1363   1.109   .     S
C1162  H1372   1.109   .     S
C1162  C1163   1.529   .     S
C1162  H1371   1.109   .     S
C1163  H1367   1.110   .     S
C1163  H1369   1.110   .     S
C1163  H1368   1.109   .     S
C1164  H1376   1.109   .     S
C1164  H1377   1.109   .     S
C1164  C1165   1.529   .     S
C1165  H1374   1.110   .     S
C1165  H1373   1.109   .     S
C1165  H1375   1.110   .     S
C1166  H1383   1.109   .     S
C1166  H1382   1.109   .     S
C1166  C1167   1.529   .     S
C1167  H1380   1.110   .     S
C1167  H1378   1.109   .     S
C1167  H1379   1.110   .     S
C1168  H1387   1.109   .     S
C1168  H1388   1.109   .     S
C1168  C1169   1.529   .     S
C1169  H1386   1.110   .     S
C1169  H1384   1.110   .     S
C1169  H1385   1.109   .     S
C1170  C1206   1.413   .     A
C1170  C1199   1.453   .     S
C1171  C1200   1.453   .     S
C1171  C1173   1.413   .     S
C1172  C1184   1.413   .     A
C1172  C1197   1.453   .     S
C1174  C1198   1.453   .     S
C1174  C1239   1.413   .     S
C1175  C1203   1.453   .     S
C1175  C1250   1.413   .     S
C1176  C1204   1.453   .     S
C1177  C1201   1.453   .     S
C1178  C1202   1.453   .     S
C1179  C1185   1.381   .     A
C1179  H1293   1.079   .     S
C1179  C1258   1.404   .     A
C1180  H1304   1.079   .     S
C1180  C1183   1.381   .     A
C1180  C1259   1.404   .     A
C1181  H1315   1.079   .     S
C1181  C1187   1.381   .     A
C1181  C1260   1.404   .     A
C1182  C1186   1.381   .     A
C1182  H1326   1.079   .     S
C1183  H1337   1.079   .     S
C1185  H1348   1.079   .     S
C1186  H1359   1.079   .     S
C1187  H1370   1.079   .     S
C1188  H1381   1.079   .     S
C1188  C1193   1.381   1_556 S
C1189  H1294   1.079   .     S
C1189  C1192   1.381   1_554 S
C1190  H1295   1.079   .     S
C1190  C1196   1.381   1_556 S
C1191  H1296   1.079   .     S
C1191  C1194   1.381   1_554 S
C1192  H1297   1.079   .     S
C1192  C1189   1.381   1_556 S
C1193  H1298   1.079   .     S
C1193  C1188   1.381   1_554 S
C1194  H1299   1.079   .     S
C1194  C1191   1.381   1_556 S
C1195  C446    1.413   1_565 A
C1196  H1300   1.079   .     S
C1196  C1190   1.381   1_554 S
C1197  O1440   1.277   .     A
C1198  O1437   1.277   .     S
C1199  O1438   1.277   .     A
C1200  O1392   1.277   .     S
C1201  O1397   1.277   .     A
C1201  O1393   1.277   .     A
C1202  O1394   1.277   .     S
C1202  O1398   1.277   .     S
C1203  O1399   1.277   .     A
C1203  O1395   1.277   .     A
C1204  O1396   1.277   .     A
C1204  O1401   1.277   .     A
C1205  O1402   1.282   .     A
C1205  O1430   1.282   .     A
C1206  C1258   1.414   .     A
C1207  O1403   1.282   .     A
C1207  O1431   1.282   .     A
C1208  O1428   1.282   .     A
C1208  O1404   1.282   .     A
C1209  O1429   1.282   .     A
C1209  O1405   1.282   .     A
C1210  O1406   1.282   .     A
C1210  O1435   1.282   .     A
C1211  O1436   1.282   .     A
C1211  O1407   1.282   .     A
C1212  O1408   1.282   .     A
C1212  O1432   1.282   .     A
C1213  O1434   1.282   .     A
C1213  O1409   1.282   .     A
C1214  O1421   1.282   .     A
C1214  O1410   1.282   .     A
C1215  O1423   1.282   .     A
C1215  O1412   1.282   .     A
C1216  O1413   1.282   .     A
C1216  O1419   1.282   .     A
C1217  C807    1.413   1_655 A
C1217  C1259   1.414   .     A
C1218  O1414   1.282   .     A
C1218  O1420   1.282   .     A
C1219  O1415   1.282   .     A
C1219  O1426   1.282   .     A
C1220  O1427   1.282   .     A
C1220  O1416   1.282   .     A
C1221  O1424   1.282   .     A
C1221  O1417   1.282   .     A
C1222  O1425   1.282   .     A
C1222  O1418   1.282   .     A
C1223  F1261   1.358   .     S
C1223  C1240   1.387   .     A
C1224  F1272   1.358   .     S
C1224  C1238   1.387   .     A
C1225  C1237   1.386   .     A
C1225  F1283   1.358   .     S
C1226  C1236   1.386   .     A
C1226  F1287   1.358   .     S
C1227  F1288   1.358   .     S
C1227  C1235   1.387   .     A
C1228  C1260   1.414   .     A
C1228  C444    1.413   1_565 S
C1229  F1289   1.358   .     S
C1229  C1234   1.387   .     A
C1230  C1233   1.386   .     A
C1230  F1290   1.358   .     S
C1231  C1232   1.386   .     A
C1231  F1291   1.358   .     S
C1232  F1292   1.358   .     S
C1233  F1262   1.358   .     S
C1234  F1263   1.358   .     S
C1235  F1264   1.358   .     S
C1236  F1265   1.358   .     S
C1237  F1266   1.358   .     S
C1238  F1267   1.358   .     S
C1240  F1268   1.358   .     S
C1241  C1257   1.387   .     A
C1241  F1269   1.358   .     S
C1242  C1256   1.387   .     A
C1242  F1270   1.358   .     S
C1243  F1271   1.358   .     S
C1243  C1255   1.386   .     A
C1244  F1273   1.358   .     S
C1244  C1254   1.386   .     A
C1245  C1253   1.387   .     A
C1245  F1274   1.358   .     S
C1246  F1275   1.358   .     S
C1246  C1252   1.387   .     A
C1247  C1251   1.386   .     A
C1247  F1276   1.358   .     S
C1248  F1277   1.358   .     S
C1248  C1249   1.386   .     A
C1249  F1278   1.358   .     S
C1251  F1279   1.358   .     S
C1252  F1280   1.358   .     S
C1253  F1281   1.358   .     S
C1254  F1282   1.358   .     S
C1255  F1284   1.358   .     S
C1256  F1285   1.358   .     S
C1257  F1286   1.358   .     S
C1259  C764    1.419   1_655 S
C1260  C401    1.419   1_565 S
O1389  Zn1441  1.950   .     S
O1389  Zn1444  1.950   .     S
O1389  Zn1452  1.950   .     S
O1390  C470    1.277   1_565 A
O1390  Zn1443  1.950   .     S
O1391  Zn1446  1.950   .     S
O1391  C835    1.277   1_655 S
O1392  Zn1445  1.950   .     S
O1393  Zn1455  1.950   .     S
O1394  Zn1454  1.950   .     S
O1395  Zn1449  1.950   .     S
O1396  Zn1441  1.950   .     S
O1397  Zn1451  1.950   .     S
O1398  Zn1450  1.950   .     S
O1399  Zn1453  1.950   .     S
O1400  Zn1447  1.950   .     S
O1400  Zn1449  1.950   .     S
O1400  Zn1453  1.950   .     S
O1401  Zn1452  1.950   .     S
O1402  Zn1444  1.940   .     S
O1403  Zn1443  1.940   .     S
O1404  Zn1446  1.938   .     S
O1405  Zn1445  1.938   .     S
O1406  Zn1448  1.940   .     S
O1407  Zn1447  1.940   .     S
O1408  Zn1442  1.938   .     S
O1409  Zn1456  1.938   .     S
O1410  Zn1443  1.938   .     S
O1411  Zn1442  1.950   .     S
O1411  Zn1450  1.950   .     S
O1411  Zn1454  1.950   .     S
O1412  Zn1444  1.938   .     S
O1413  Zn1456  1.940   .     S
O1414  Zn1442  1.940   .     S
O1415  Zn1447  1.938   .     S
O1416  Zn1448  1.938   .     S
O1417  Zn1445  1.940   .     S
O1418  Zn1446  1.940   .     S
O1419  Zn1087  1.940   1_655 S
O1420  Zn1450  1.940   .     S
O1421  Zn725   1.938   1_565 S
O1422  Zn1455  1.950   .     S
O1422  Zn1445  1.950   .     S
O1422  Zn1451  1.950   .     S
O1423  Zn1452  1.938   .     S
O1424  Zn1455  1.940   .     S
O1425  Zn1090  1.940   1_655 S
O1426  Zn1449  1.938   .     S
O1427  Zn713   1.938   1_565 S
O1428  Zn1086  1.938   1_655 S
O1429  Zn1451  1.938   .     S
O1430  Zn1441  1.940   .     S
O1431  Zn721   1.940   1_565 S
O1432  Zn1454  1.938   .     S
O1433  Zn1448  1.950   .     S
O1433  C469    1.277   1_565 S
O1434  Zn1091  1.938   1_655 S
O1435  Zn724   1.940   1_565 S
O1436  Zn1453  1.940   .     S
O1437  Zn1447  1.950   .     S
O1438  Zn1442  1.950   .     S
O1439  C836    1.277   1_655 A
O1439  Zn1456  1.950   .     S
O1440  Zn1444  1.950   .     S
Zn1443 O672    1.950   1_565 S
Zn1446 O1047   1.950   1_655 S
Zn1448 O661    1.950   1_565 S
Zn1456 O1058   1.950   1_655 S
