data_str_m1_o10_o16_pcu_sym.147
_audit_creation_date              2020-01-03
_audit_creation_method            'Materials Studio'
_symmetry_space_group_name_H-M    'P1'
_symmetry_Int_Tables_number       1
_symmetry_cell_setting            triclinic
loop_
_symmetry_equiv_pos_as_xyz
  x,y,z
_cell_length_a                    32.5294
_cell_length_b                    32.6325
_cell_length_c                    30.9427
_cell_angle_alpha                 96.5269
_cell_angle_beta                  74.7282
_cell_angle_gamma                 98.7303
loop_
_atom_site_label
_atom_site_type_symbol
_atom_site_fract_x
_atom_site_fract_y
_atom_site_fract_z
_atom_site_U_iso_or_equiv
_atom_site_adp_type
_atom_site_occupancy
C1     C     0.05275   0.15963   0.25991   0.00000  Uiso   1.00
C2     C     0.17344   0.16445   0.05888   0.00000  Uiso   1.00
C3     C     0.21656   0.10907   0.05574   0.00000  Uiso   1.00
C4     C     0.28082   0.17381   0.23994   0.00000  Uiso   1.00
C5     C     0.14012   0.19251   0.42044   0.00000  Uiso   1.00
C6     C     0.32672   0.17664   0.23588   0.00000  Uiso   1.00
C7     C     0.00746   0.15703   0.26370   0.00000  Uiso   1.00
C8     C     0.17958   0.32210   0.23379   0.00000  Uiso   1.00
C9     C     0.15282   0.01178   0.26376   0.00000  Uiso   1.00
C10    C     0.15552   0.05593   0.26088   0.00000  Uiso   1.00
C11    C     0.17650   0.27790   0.23965   0.00000  Uiso   1.00
C12    C     0.13523   0.24766   0.48061   0.00000  Uiso   1.00
C13    C     0.18547   0.14810   0.12918   0.00000  Uiso   1.00
C14    C     0.14796   0.18420   0.37112   0.00000  Uiso   1.00
C15    C     0.21317   0.09702   0.01188   0.00000  Uiso   1.00
C16    C     0.19300   0.14072   0.08057   0.00000  Uiso   1.00
C17    C     0.12765   0.23105   0.43951   0.00000  Uiso   1.00
C18    C     0.15867   0.22652   0.00153   0.00000  Uiso   1.00
C19    C     0.16176   0.18337   0.48817   0.00000  Uiso   1.00
C20    C     0.15111   0.16597   0.44745   0.00000  Uiso   1.00
C21    C     0.17646   0.15691   0.01272   0.00000  Uiso   1.00
C22    C     0.19102   0.11933   0.49136   0.00000  Uiso   1.00
C23    C     0.17947   0.10259   0.45219   0.00000  Uiso   1.00
C24    C     0.15387   0.12310   0.43437   0.00000  Uiso   1.00
H25    H     0.18510   0.07106   0.43938   0.00000  Uiso   1.00
H26    H     0.07736   0.30675   0.45962   0.00000  Uiso   1.00
H27    H     0.10161   0.05072   0.46362   0.00000  Uiso   1.00
H28    H     0.01581   0.19472   0.21020   0.00000  Uiso   1.00
H29    H     0.22747   0.07005   0.49395   0.00000  Uiso   1.00
H30    H     0.28036   0.09788   0.13306   0.00000  Uiso   1.00
H31    H     0.31903   0.13881   0.28963   0.00000  Uiso   1.00
H32    H     0.27132   0.30915   0.16832   0.00000  Uiso   1.00
H33    H     0.13018   0.33193   0.29285   0.00000  Uiso   1.00
H34    H     0.15460   0.18781   0.07851   0.00000  Uiso   1.00
H35    H     0.11533   0.25006   0.42052   0.00000  Uiso   1.00
H36    H     0.18903   0.28073   0.10136   0.00000  Uiso   1.00
O37    O     0.16667   0.16667   0.25000   0.00000  Uiso   1.00
O38    O     0.15451   0.12637   0.15458   0.00000  Uiso   1.00
O39    O     0.12940   0.20391   0.34968   0.00000  Uiso   1.00
O40    O     0.20824   0.17759   0.14606   0.00000  Uiso   1.00
O41    O     0.17451   0.15880   0.34968   0.00000  Uiso   1.00
O42    O     0.23990   0.03867   0.07237   0.00000  Uiso   1.00
O43    O     0.29657   0.09520   0.04712   0.00000  Uiso   1.00
O44    O     0.25163   0.10145   0.12987   0.00000  Uiso   1.00
O45    O     0.19194   0.02666   0.15900   0.00000  Uiso   1.00
O46    O     0.24560   0.04662   0.20249   0.00000  Uiso   1.00
O47    O     0.24749   0.30948   0.15401   0.00000  Uiso   1.00
O48    O     0.17930   0.08019   0.28213   0.00000  Uiso   1.00
O49    O     0.23228   0.23525   0.02938   0.00000  Uiso   1.00
O50    O     0.20957   0.29826   0.01327   0.00000  Uiso   1.00
O51    O     0.16740   0.26462   0.08665   0.00000  Uiso   1.00
O52    O     0.11194   0.30258   0.05211   0.00000  Uiso   1.00
O53    O     0.15008   0.33066   0.48019   0.00000  Uiso   1.00
O54    O     0.07017   0.29886   0.49096   0.00000  Uiso   1.00
O55    O     0.08930   0.11452   0.39086   0.00000  Uiso   1.00
O56    O     0.14000   0.06281   0.37125   0.00000  Uiso   1.00
O57    O     0.08304   0.06055   0.44732   0.00000  Uiso   1.00
O58    O     0.14632   0.26085   0.27013   0.00000  Uiso   1.00
O59    O     0.07412   0.13291   0.23413   0.00000  Uiso   1.00
O60    O     0.26693   0.19272   0.21360   0.00000  Uiso   1.00
O61    O     0.07071   0.18878   0.28213   0.00000  Uiso   1.00
O62    O     0.25491   0.15226   0.27013   0.00000  Uiso   1.00
O63    O     0.13760   0.06944   0.23413   0.00000  Uiso   1.00
O64    O     0.20345   0.25620   0.21360   0.00000  Uiso   1.00
S65    S     0.25198   0.08498   0.07627   0.00000  Uiso   1.00
S66    S     0.21695   0.01075   0.18657   0.00000  Uiso   1.00
S67    S     0.19378   0.25678   0.03241   0.00000  Uiso   1.00
S68    S     0.11763   0.29645   0.00213   0.00000  Uiso   1.00
S69    S     0.11642   0.09058   0.40865   0.00000  Uiso   1.00
Zn70   Zn    0.19338   0.13994   0.28734   0.00000  Uiso   1.00
Zn71   Zn    0.13379   0.12458   0.21875   0.00000  Uiso   1.00
Zn72   Zn    0.21056   0.19775   0.20657   0.00000  Uiso   1.00
Zn73   Zn    0.12893   0.20439   0.28733   0.00000  Uiso   1.00
C74    C     0.38608   0.15963   0.25991   0.00000  Uiso   1.00
C75    C     0.50677   0.16445   0.05888   0.00000  Uiso   1.00
C76    C     0.54990   0.10907   0.05574   0.00000  Uiso   1.00
C77    C     0.61415   0.17381   0.23994   0.00000  Uiso   1.00
C78    C     0.47345   0.19251   0.42044   0.00000  Uiso   1.00
C79    C     0.66005   0.17664   0.23588   0.00000  Uiso   1.00
C80    C     0.34079   0.15703   0.26370   0.00000  Uiso   1.00
C81    C     0.51292   0.32210   0.23379   0.00000  Uiso   1.00
C82    C     0.48616   0.01178   0.26376   0.00000  Uiso   1.00
C83    C     0.48885   0.05593   0.26088   0.00000  Uiso   1.00
C84    C     0.50983   0.27790   0.23965   0.00000  Uiso   1.00
C85    C     0.46856   0.24766   0.48061   0.00000  Uiso   1.00
C86    C     0.51880   0.14810   0.12918   0.00000  Uiso   1.00
C87    C     0.48129   0.18420   0.37112   0.00000  Uiso   1.00
C88    C     0.54651   0.09702   0.01188   0.00000  Uiso   1.00
C89    C     0.52634   0.14072   0.08057   0.00000  Uiso   1.00
C90    C     0.46098   0.23105   0.43951   0.00000  Uiso   1.00
C91    C     0.49200   0.22652   0.00153   0.00000  Uiso   1.00
C92    C     0.49509   0.18337   0.48817   0.00000  Uiso   1.00
C93    C     0.48444   0.16597   0.44745   0.00000  Uiso   1.00
C94    C     0.50979   0.15691   0.01272   0.00000  Uiso   1.00
C95    C     0.52436   0.11933   0.49136   0.00000  Uiso   1.00
C96    C     0.51281   0.10259   0.45219   0.00000  Uiso   1.00
C97    C     0.48720   0.12310   0.43437   0.00000  Uiso   1.00
H98    H     0.51843   0.07106   0.43938   0.00000  Uiso   1.00
H99    H     0.41069   0.30675   0.45962   0.00000  Uiso   1.00
H100   H     0.43494   0.05072   0.46362   0.00000  Uiso   1.00
H101   H     0.34915   0.19472   0.21020   0.00000  Uiso   1.00
H102   H     0.56081   0.07005   0.49395   0.00000  Uiso   1.00
H103   H     0.61369   0.09788   0.13306   0.00000  Uiso   1.00
H104   H     0.65236   0.13881   0.28963   0.00000  Uiso   1.00
H105   H     0.60466   0.30915   0.16832   0.00000  Uiso   1.00
H106   H     0.46352   0.33193   0.29285   0.00000  Uiso   1.00
H107   H     0.48793   0.18781   0.07851   0.00000  Uiso   1.00
H108   H     0.44867   0.25006   0.42052   0.00000  Uiso   1.00
H109   H     0.52236   0.28073   0.10136   0.00000  Uiso   1.00
O110   O     0.50000   0.16667   0.25000   0.00000  Uiso   1.00
O111   O     0.48784   0.12637   0.15458   0.00000  Uiso   1.00
O112   O     0.46274   0.20391   0.34968   0.00000  Uiso   1.00
O113   O     0.54157   0.17759   0.14606   0.00000  Uiso   1.00
O114   O     0.50785   0.15880   0.34968   0.00000  Uiso   1.00
O115   O     0.57324   0.03867   0.07237   0.00000  Uiso   1.00
O116   O     0.62990   0.09520   0.04712   0.00000  Uiso   1.00
O117   O     0.58497   0.10145   0.12987   0.00000  Uiso   1.00
O118   O     0.52527   0.02666   0.15900   0.00000  Uiso   1.00
O119   O     0.57893   0.04662   0.20249   0.00000  Uiso   1.00
O120   O     0.58083   0.30948   0.15401   0.00000  Uiso   1.00
O121   O     0.51264   0.08019   0.28213   0.00000  Uiso   1.00
O122   O     0.56561   0.23525   0.02938   0.00000  Uiso   1.00
O123   O     0.54291   0.29826   0.01327   0.00000  Uiso   1.00
O124   O     0.50074   0.26462   0.08665   0.00000  Uiso   1.00
O125   O     0.44527   0.30258   0.05211   0.00000  Uiso   1.00
O126   O     0.48342   0.33066   0.48019   0.00000  Uiso   1.00
O127   O     0.40351   0.29886   0.49096   0.00000  Uiso   1.00
O128   O     0.42263   0.11452   0.39086   0.00000  Uiso   1.00
O129   O     0.47333   0.06281   0.37125   0.00000  Uiso   1.00
O130   O     0.41637   0.06055   0.44732   0.00000  Uiso   1.00
O131   O     0.47965   0.26085   0.27013   0.00000  Uiso   1.00
O132   O     0.40745   0.13291   0.23413   0.00000  Uiso   1.00
O133   O     0.60026   0.19272   0.21360   0.00000  Uiso   1.00
O134   O     0.40405   0.18878   0.28213   0.00000  Uiso   1.00
O135   O     0.58824   0.15226   0.27013   0.00000  Uiso   1.00
O136   O     0.47093   0.06944   0.23413   0.00000  Uiso   1.00
O137   O     0.53678   0.25620   0.21360   0.00000  Uiso   1.00
S138   S     0.58532   0.08498   0.07627   0.00000  Uiso   1.00
S139   S     0.55029   0.01075   0.18657   0.00000  Uiso   1.00
S140   S     0.52712   0.25678   0.03241   0.00000  Uiso   1.00
S141   S     0.45097   0.29645   0.00213   0.00000  Uiso   1.00
S142   S     0.44975   0.09058   0.40865   0.00000  Uiso   1.00
Zn143  Zn    0.52672   0.13994   0.28734   0.00000  Uiso   1.00
Zn144  Zn    0.46713   0.12458   0.21875   0.00000  Uiso   1.00
Zn145  Zn    0.54389   0.19775   0.20657   0.00000  Uiso   1.00
Zn146  Zn    0.46226   0.20439   0.28733   0.00000  Uiso   1.00
C147   C     0.71942   0.15963   0.25991   0.00000  Uiso   1.00
C148   C     0.84011   0.16445   0.05888   0.00000  Uiso   1.00
C149   C     0.88323   0.10907   0.05574   0.00000  Uiso   1.00
C150   C     0.94748   0.17381   0.23994   0.00000  Uiso   1.00
C151   C     0.80679   0.19251   0.42044   0.00000  Uiso   1.00
C152   C     0.99338   0.17664   0.23588   0.00000  Uiso   1.00
C153   C     0.67412   0.15703   0.26370   0.00000  Uiso   1.00
C154   C     0.84625   0.32210   0.23379   0.00000  Uiso   1.00
C155   C     0.81949   0.01178   0.26376   0.00000  Uiso   1.00
C156   C     0.82219   0.05593   0.26088   0.00000  Uiso   1.00
C157   C     0.84317   0.27790   0.23965   0.00000  Uiso   1.00
C158   C     0.80189   0.24766   0.48061   0.00000  Uiso   1.00
C159   C     0.85213   0.14810   0.12918   0.00000  Uiso   1.00
C160   C     0.81463   0.18420   0.37112   0.00000  Uiso   1.00
C161   C     0.87984   0.09702   0.01188   0.00000  Uiso   1.00
C162   C     0.85967   0.14072   0.08057   0.00000  Uiso   1.00
C163   C     0.79431   0.23105   0.43951   0.00000  Uiso   1.00
C164   C     0.82533   0.22652   0.00153   0.00000  Uiso   1.00
C165   C     0.82842   0.18337   0.48817   0.00000  Uiso   1.00
C166   C     0.81778   0.16597   0.44745   0.00000  Uiso   1.00
C167   C     0.84313   0.15691   0.01272   0.00000  Uiso   1.00
C168   C     0.85769   0.11933   0.49136   0.00000  Uiso   1.00
C169   C     0.84614   0.10259   0.45219   0.00000  Uiso   1.00
C170   C     0.82054   0.12310   0.43437   0.00000  Uiso   1.00
H171   H     0.85177   0.07106   0.43938   0.00000  Uiso   1.00
H172   H     0.74402   0.30675   0.45962   0.00000  Uiso   1.00
H173   H     0.76827   0.05072   0.46362   0.00000  Uiso   1.00
H174   H     0.68248   0.19472   0.21020   0.00000  Uiso   1.00
H175   H     0.89414   0.07005   0.49395   0.00000  Uiso   1.00
H176   H     0.94703   0.09788   0.13306   0.00000  Uiso   1.00
H177   H     0.98570   0.13881   0.28963   0.00000  Uiso   1.00
H178   H     0.93799   0.30915   0.16832   0.00000  Uiso   1.00
H179   H     0.79685   0.33193   0.29285   0.00000  Uiso   1.00
H180   H     0.82127   0.18781   0.07851   0.00000  Uiso   1.00
H181   H     0.78200   0.25006   0.42052   0.00000  Uiso   1.00
H182   H     0.85569   0.28073   0.10136   0.00000  Uiso   1.00
O183   O     0.83333   0.16667   0.25000   0.00000  Uiso   1.00
O184   O     0.82118   0.12637   0.15458   0.00000  Uiso   1.00
O185   O     0.79607   0.20391   0.34968   0.00000  Uiso   1.00
O186   O     0.87491   0.17759   0.14606   0.00000  Uiso   1.00
O187   O     0.84118   0.15880   0.34968   0.00000  Uiso   1.00
O188   O     0.90657   0.03867   0.07237   0.00000  Uiso   1.00
O189   O     0.96323   0.09520   0.04712   0.00000  Uiso   1.00
O190   O     0.91830   0.10145   0.12987   0.00000  Uiso   1.00
O191   O     0.85860   0.02666   0.15900   0.00000  Uiso   1.00
O192   O     0.91226   0.04662   0.20249   0.00000  Uiso   1.00
O193   O     0.91416   0.30948   0.15401   0.00000  Uiso   1.00
O194   O     0.84597   0.08019   0.28213   0.00000  Uiso   1.00
O195   O     0.89894   0.23525   0.02938   0.00000  Uiso   1.00
O196   O     0.87624   0.29826   0.01327   0.00000  Uiso   1.00
O197   O     0.83407   0.26462   0.08665   0.00000  Uiso   1.00
O198   O     0.77860   0.30258   0.05211   0.00000  Uiso   1.00
O199   O     0.81675   0.33066   0.48019   0.00000  Uiso   1.00
O200   O     0.73684   0.29886   0.49096   0.00000  Uiso   1.00
O201   O     0.75596   0.11452   0.39086   0.00000  Uiso   1.00
O202   O     0.80666   0.06281   0.37125   0.00000  Uiso   1.00
O203   O     0.74971   0.06055   0.44732   0.00000  Uiso   1.00
O204   O     0.81298   0.26085   0.27013   0.00000  Uiso   1.00
O205   O     0.74078   0.13291   0.23413   0.00000  Uiso   1.00
O206   O     0.93360   0.19272   0.21360   0.00000  Uiso   1.00
O207   O     0.73738   0.18878   0.28213   0.00000  Uiso   1.00
O208   O     0.92158   0.15226   0.27013   0.00000  Uiso   1.00
O209   O     0.80426   0.06944   0.23413   0.00000  Uiso   1.00
O210   O     0.87012   0.25620   0.21360   0.00000  Uiso   1.00
S211   S     0.91865   0.08498   0.07627   0.00000  Uiso   1.00
S212   S     0.88362   0.01075   0.18657   0.00000  Uiso   1.00
S213   S     0.86045   0.25678   0.03241   0.00000  Uiso   1.00
S214   S     0.78430   0.29645   0.00213   0.00000  Uiso   1.00
S215   S     0.78309   0.09058   0.40865   0.00000  Uiso   1.00
Zn216  Zn    0.86005   0.13994   0.28734   0.00000  Uiso   1.00
Zn217  Zn    0.80046   0.12458   0.21875   0.00000  Uiso   1.00
Zn218  Zn    0.87723   0.19775   0.20657   0.00000  Uiso   1.00
Zn219  Zn    0.79560   0.20439   0.28733   0.00000  Uiso   1.00
C220   C     0.05275   0.49296   0.25991   0.00000  Uiso   1.00
C221   C     0.17344   0.49778   0.05888   0.00000  Uiso   1.00
C222   C     0.21656   0.44241   0.05574   0.00000  Uiso   1.00
C223   C     0.28082   0.50715   0.23994   0.00000  Uiso   1.00
C224   C     0.14012   0.52584   0.42044   0.00000  Uiso   1.00
C225   C     0.32672   0.50997   0.23588   0.00000  Uiso   1.00
C226   C     0.00746   0.49036   0.26370   0.00000  Uiso   1.00
C227   C     0.17958   0.65544   0.23379   0.00000  Uiso   1.00
C228   C     0.15282   0.34511   0.26376   0.00000  Uiso   1.00
C229   C     0.15552   0.38926   0.26088   0.00000  Uiso   1.00
C230   C     0.17650   0.61123   0.23965   0.00000  Uiso   1.00
C231   C     0.13523   0.58100   0.48061   0.00000  Uiso   1.00
C232   C     0.18547   0.48144   0.12918   0.00000  Uiso   1.00
C233   C     0.14796   0.51753   0.37112   0.00000  Uiso   1.00
C234   C     0.21317   0.43035   0.01188   0.00000  Uiso   1.00
C235   C     0.19300   0.47405   0.08057   0.00000  Uiso   1.00
C236   C     0.12765   0.56439   0.43951   0.00000  Uiso   1.00
C237   C     0.15867   0.55986   0.00153   0.00000  Uiso   1.00
C238   C     0.16176   0.51670   0.48817   0.00000  Uiso   1.00
C239   C     0.15111   0.49931   0.44745   0.00000  Uiso   1.00
C240   C     0.17646   0.49025   0.01272   0.00000  Uiso   1.00
C241   C     0.19102   0.45266   0.49136   0.00000  Uiso   1.00
C242   C     0.17947   0.43592   0.45219   0.00000  Uiso   1.00
C243   C     0.15387   0.45643   0.43437   0.00000  Uiso   1.00
H244   H     0.18510   0.40439   0.43938   0.00000  Uiso   1.00
H245   H     0.07736   0.64008   0.45962   0.00000  Uiso   1.00
H246   H     0.10161   0.38405   0.46362   0.00000  Uiso   1.00
H247   H     0.01581   0.52806   0.21020   0.00000  Uiso   1.00
H248   H     0.22747   0.40339   0.49395   0.00000  Uiso   1.00
H249   H     0.28036   0.43121   0.13306   0.00000  Uiso   1.00
H250   H     0.31903   0.47214   0.28963   0.00000  Uiso   1.00
H251   H     0.27132   0.64248   0.16832   0.00000  Uiso   1.00
H252   H     0.13018   0.66527   0.29285   0.00000  Uiso   1.00
H253   H     0.15460   0.52115   0.07851   0.00000  Uiso   1.00
H254   H     0.11533   0.58339   0.42052   0.00000  Uiso   1.00
H255   H     0.18903   0.61407   0.10136   0.00000  Uiso   1.00
O256   O     0.16667   0.50000   0.25000   0.00000  Uiso   1.00
O257   O     0.15451   0.45970   0.15458   0.00000  Uiso   1.00
O258   O     0.12940   0.53724   0.34968   0.00000  Uiso   1.00
O259   O     0.20824   0.51092   0.14606   0.00000  Uiso   1.00
O260   O     0.17451   0.49213   0.34968   0.00000  Uiso   1.00
O261   O     0.23990   0.37200   0.07237   0.00000  Uiso   1.00
O262   O     0.29657   0.42853   0.04712   0.00000  Uiso   1.00
O263   O     0.25163   0.43478   0.12987   0.00000  Uiso   1.00
O264   O     0.19194   0.35999   0.15900   0.00000  Uiso   1.00
O265   O     0.24560   0.37996   0.20249   0.00000  Uiso   1.00
O266   O     0.24749   0.64281   0.15401   0.00000  Uiso   1.00
O267   O     0.17930   0.41352   0.28213   0.00000  Uiso   1.00
O268   O     0.23228   0.56858   0.02938   0.00000  Uiso   1.00
O269   O     0.20957   0.63159   0.01327   0.00000  Uiso   1.00
O270   O     0.16740   0.59796   0.08665   0.00000  Uiso   1.00
O271   O     0.11194   0.63591   0.05211   0.00000  Uiso   1.00
O272   O     0.15008   0.66400   0.48019   0.00000  Uiso   1.00
O273   O     0.07017   0.63219   0.49096   0.00000  Uiso   1.00
O274   O     0.08930   0.44785   0.39086   0.00000  Uiso   1.00
O275   O     0.14000   0.39614   0.37125   0.00000  Uiso   1.00
O276   O     0.08304   0.39389   0.44732   0.00000  Uiso   1.00
O277   O     0.14632   0.59418   0.27013   0.00000  Uiso   1.00
O278   O     0.07412   0.46625   0.23413   0.00000  Uiso   1.00
O279   O     0.26693   0.52605   0.21360   0.00000  Uiso   1.00
O280   O     0.07071   0.52211   0.28213   0.00000  Uiso   1.00
O281   O     0.25491   0.48559   0.27013   0.00000  Uiso   1.00
O282   O     0.13760   0.40277   0.23413   0.00000  Uiso   1.00
O283   O     0.20345   0.58953   0.21360   0.00000  Uiso   1.00
S284   S     0.25198   0.41831   0.07627   0.00000  Uiso   1.00
S285   S     0.21695   0.34409   0.18657   0.00000  Uiso   1.00
S286   S     0.19378   0.59011   0.03241   0.00000  Uiso   1.00
S287   S     0.11763   0.62978   0.00213   0.00000  Uiso   1.00
S288   S     0.11642   0.42391   0.40865   0.00000  Uiso   1.00
Zn289  Zn    0.19338   0.47327   0.28734   0.00000  Uiso   1.00
Zn290  Zn    0.13379   0.45791   0.21875   0.00000  Uiso   1.00
Zn291  Zn    0.21056   0.53109   0.20657   0.00000  Uiso   1.00
Zn292  Zn    0.12893   0.53773   0.28733   0.00000  Uiso   1.00
C293   C     0.38608   0.49296   0.25991   0.00000  Uiso   1.00
C294   C     0.50677   0.49778   0.05888   0.00000  Uiso   1.00
C295   C     0.54990   0.44241   0.05574   0.00000  Uiso   1.00
C296   C     0.61415   0.50715   0.23994   0.00000  Uiso   1.00
C297   C     0.47345   0.52584   0.42044   0.00000  Uiso   1.00
C298   C     0.66005   0.50997   0.23588   0.00000  Uiso   1.00
C299   C     0.34079   0.49036   0.26370   0.00000  Uiso   1.00
C300   C     0.51292   0.65544   0.23379   0.00000  Uiso   1.00
C301   C     0.48616   0.34511   0.26376   0.00000  Uiso   1.00
C302   C     0.48885   0.38926   0.26088   0.00000  Uiso   1.00
C303   C     0.50983   0.61123   0.23965   0.00000  Uiso   1.00
C304   C     0.46856   0.58100   0.48061   0.00000  Uiso   1.00
C305   C     0.51880   0.48144   0.12918   0.00000  Uiso   1.00
C306   C     0.48129   0.51753   0.37112   0.00000  Uiso   1.00
C307   C     0.54651   0.43035   0.01188   0.00000  Uiso   1.00
C308   C     0.52634   0.47405   0.08057   0.00000  Uiso   1.00
C309   C     0.46098   0.56439   0.43951   0.00000  Uiso   1.00
C310   C     0.49200   0.55986   0.00153   0.00000  Uiso   1.00
C311   C     0.49509   0.51670   0.48817   0.00000  Uiso   1.00
C312   C     0.48444   0.49931   0.44745   0.00000  Uiso   1.00
C313   C     0.50979   0.49025   0.01272   0.00000  Uiso   1.00
C314   C     0.52436   0.45266   0.49136   0.00000  Uiso   1.00
C315   C     0.51281   0.43592   0.45219   0.00000  Uiso   1.00
C316   C     0.48720   0.45643   0.43437   0.00000  Uiso   1.00
H317   H     0.51843   0.40439   0.43938   0.00000  Uiso   1.00
H318   H     0.41069   0.64008   0.45962   0.00000  Uiso   1.00
H319   H     0.43494   0.38405   0.46362   0.00000  Uiso   1.00
H320   H     0.34915   0.52806   0.21020   0.00000  Uiso   1.00
H321   H     0.56081   0.40339   0.49395   0.00000  Uiso   1.00
H322   H     0.61369   0.43121   0.13306   0.00000  Uiso   1.00
H323   H     0.65236   0.47214   0.28963   0.00000  Uiso   1.00
H324   H     0.60466   0.64248   0.16832   0.00000  Uiso   1.00
H325   H     0.46352   0.66527   0.29285   0.00000  Uiso   1.00
H326   H     0.48793   0.52115   0.07851   0.00000  Uiso   1.00
H327   H     0.44867   0.58339   0.42052   0.00000  Uiso   1.00
H328   H     0.52236   0.61407   0.10136   0.00000  Uiso   1.00
O329   O     0.50000   0.50000   0.25000   0.00000  Uiso   1.00
O330   O     0.48784   0.45970   0.15458   0.00000  Uiso   1.00
O331   O     0.46274   0.53724   0.34968   0.00000  Uiso   1.00
O332   O     0.54157   0.51092   0.14606   0.00000  Uiso   1.00
O333   O     0.50785   0.49213   0.34968   0.00000  Uiso   1.00
O334   O     0.57324   0.37200   0.07237   0.00000  Uiso   1.00
O335   O     0.62990   0.42853   0.04712   0.00000  Uiso   1.00
O336   O     0.58497   0.43478   0.12987   0.00000  Uiso   1.00
O337   O     0.52527   0.35999   0.15900   0.00000  Uiso   1.00
O338   O     0.57893   0.37996   0.20249   0.00000  Uiso   1.00
O339   O     0.58083   0.64281   0.15401   0.00000  Uiso   1.00
O340   O     0.51264   0.41352   0.28213   0.00000  Uiso   1.00
O341   O     0.56561   0.56858   0.02938   0.00000  Uiso   1.00
O342   O     0.54291   0.63159   0.01327   0.00000  Uiso   1.00
O343   O     0.50074   0.59796   0.08665   0.00000  Uiso   1.00
O344   O     0.44527   0.63591   0.05211   0.00000  Uiso   1.00
O345   O     0.48342   0.66400   0.48019   0.00000  Uiso   1.00
O346   O     0.40351   0.63219   0.49096   0.00000  Uiso   1.00
O347   O     0.42263   0.44785   0.39086   0.00000  Uiso   1.00
O348   O     0.47333   0.39614   0.37125   0.00000  Uiso   1.00
O349   O     0.41637   0.39389   0.44732   0.00000  Uiso   1.00
O350   O     0.47965   0.59418   0.27013   0.00000  Uiso   1.00
O351   O     0.40745   0.46625   0.23413   0.00000  Uiso   1.00
O352   O     0.60026   0.52605   0.21360   0.00000  Uiso   1.00
O353   O     0.40405   0.52211   0.28213   0.00000  Uiso   1.00
O354   O     0.58824   0.48559   0.27013   0.00000  Uiso   1.00
O355   O     0.47093   0.40277   0.23413   0.00000  Uiso   1.00
O356   O     0.53678   0.58953   0.21360   0.00000  Uiso   1.00
S357   S     0.58532   0.41831   0.07627   0.00000  Uiso   1.00
S358   S     0.55029   0.34409   0.18657   0.00000  Uiso   1.00
S359   S     0.52712   0.59011   0.03241   0.00000  Uiso   1.00
S360   S     0.45097   0.62978   0.00213   0.00000  Uiso   1.00
S361   S     0.44975   0.42391   0.40865   0.00000  Uiso   1.00
Zn362  Zn    0.52672   0.47327   0.28734   0.00000  Uiso   1.00
Zn363  Zn    0.46713   0.45791   0.21875   0.00000  Uiso   1.00
Zn364  Zn    0.54389   0.53109   0.20657   0.00000  Uiso   1.00
Zn365  Zn    0.46226   0.53773   0.28733   0.00000  Uiso   1.00
C366   C     0.71942   0.49296   0.25991   0.00000  Uiso   1.00
C367   C     0.84011   0.49778   0.05888   0.00000  Uiso   1.00
C368   C     0.88323   0.44241   0.05574   0.00000  Uiso   1.00
C369   C     0.94748   0.50715   0.23994   0.00000  Uiso   1.00
C370   C     0.80679   0.52584   0.42044   0.00000  Uiso   1.00
C371   C     0.99338   0.50997   0.23588   0.00000  Uiso   1.00
C372   C     0.67412   0.49036   0.26370   0.00000  Uiso   1.00
C373   C     0.84625   0.65544   0.23379   0.00000  Uiso   1.00
C374   C     0.81949   0.34511   0.26376   0.00000  Uiso   1.00
C375   C     0.82219   0.38926   0.26088   0.00000  Uiso   1.00
C376   C     0.84317   0.61123   0.23965   0.00000  Uiso   1.00
C377   C     0.80189   0.58100   0.48061   0.00000  Uiso   1.00
C378   C     0.85213   0.48144   0.12918   0.00000  Uiso   1.00
C379   C     0.81463   0.51753   0.37112   0.00000  Uiso   1.00
C380   C     0.87984   0.43035   0.01188   0.00000  Uiso   1.00
C381   C     0.85967   0.47405   0.08057   0.00000  Uiso   1.00
C382   C     0.79431   0.56439   0.43951   0.00000  Uiso   1.00
C383   C     0.82533   0.55986   0.00153   0.00000  Uiso   1.00
C384   C     0.82842   0.51670   0.48817   0.00000  Uiso   1.00
C385   C     0.81778   0.49931   0.44745   0.00000  Uiso   1.00
C386   C     0.84313   0.49025   0.01272   0.00000  Uiso   1.00
C387   C     0.85769   0.45266   0.49136   0.00000  Uiso   1.00
C388   C     0.84614   0.43592   0.45219   0.00000  Uiso   1.00
C389   C     0.82054   0.45643   0.43437   0.00000  Uiso   1.00
H390   H     0.85177   0.40439   0.43938   0.00000  Uiso   1.00
H391   H     0.74402   0.64008   0.45962   0.00000  Uiso   1.00
H392   H     0.76827   0.38405   0.46362   0.00000  Uiso   1.00
H393   H     0.68248   0.52806   0.21020   0.00000  Uiso   1.00
H394   H     0.89414   0.40339   0.49395   0.00000  Uiso   1.00
H395   H     0.94703   0.43121   0.13306   0.00000  Uiso   1.00
H396   H     0.98570   0.47214   0.28963   0.00000  Uiso   1.00
H397   H     0.93799   0.64248   0.16832   0.00000  Uiso   1.00
H398   H     0.79685   0.66527   0.29285   0.00000  Uiso   1.00
H399   H     0.82127   0.52115   0.07851   0.00000  Uiso   1.00
H400   H     0.78200   0.58339   0.42052   0.00000  Uiso   1.00
H401   H     0.85569   0.61407   0.10136   0.00000  Uiso   1.00
O402   O     0.83333   0.50000   0.25000   0.00000  Uiso   1.00
O403   O     0.82118   0.45970   0.15458   0.00000  Uiso   1.00
O404   O     0.79607   0.53724   0.34968   0.00000  Uiso   1.00
O405   O     0.87491   0.51092   0.14606   0.00000  Uiso   1.00
O406   O     0.84118   0.49213   0.34968   0.00000  Uiso   1.00
O407   O     0.90657   0.37200   0.07237   0.00000  Uiso   1.00
O408   O     0.96323   0.42853   0.04712   0.00000  Uiso   1.00
O409   O     0.91830   0.43478   0.12987   0.00000  Uiso   1.00
O410   O     0.85860   0.35999   0.15900   0.00000  Uiso   1.00
O411   O     0.91226   0.37996   0.20249   0.00000  Uiso   1.00
O412   O     0.91416   0.64281   0.15401   0.00000  Uiso   1.00
O413   O     0.84597   0.41352   0.28213   0.00000  Uiso   1.00
O414   O     0.89894   0.56858   0.02938   0.00000  Uiso   1.00
O415   O     0.87624   0.63159   0.01327   0.00000  Uiso   1.00
O416   O     0.83407   0.59796   0.08665   0.00000  Uiso   1.00
O417   O     0.77860   0.63591   0.05211   0.00000  Uiso   1.00
O418   O     0.81675   0.66400   0.48019   0.00000  Uiso   1.00
O419   O     0.73684   0.63219   0.49096   0.00000  Uiso   1.00
O420   O     0.75596   0.44785   0.39086   0.00000  Uiso   1.00
O421   O     0.80666   0.39614   0.37125   0.00000  Uiso   1.00
O422   O     0.74971   0.39389   0.44732   0.00000  Uiso   1.00
O423   O     0.81298   0.59418   0.27013   0.00000  Uiso   1.00
O424   O     0.74078   0.46625   0.23413   0.00000  Uiso   1.00
O425   O     0.93360   0.52605   0.21360   0.00000  Uiso   1.00
O426   O     0.73738   0.52211   0.28213   0.00000  Uiso   1.00
O427   O     0.92158   0.48559   0.27013   0.00000  Uiso   1.00
O428   O     0.80426   0.40277   0.23413   0.00000  Uiso   1.00
O429   O     0.87012   0.58953   0.21360   0.00000  Uiso   1.00
S430   S     0.91865   0.41831   0.07627   0.00000  Uiso   1.00
S431   S     0.88362   0.34409   0.18657   0.00000  Uiso   1.00
S432   S     0.86045   0.59011   0.03241   0.00000  Uiso   1.00
S433   S     0.78430   0.62978   0.00213   0.00000  Uiso   1.00
S434   S     0.78309   0.42391   0.40865   0.00000  Uiso   1.00
Zn435  Zn    0.86005   0.47327   0.28734   0.00000  Uiso   1.00
Zn436  Zn    0.80046   0.45791   0.21875   0.00000  Uiso   1.00
Zn437  Zn    0.87723   0.53109   0.20657   0.00000  Uiso   1.00
Zn438  Zn    0.79560   0.53773   0.28733   0.00000  Uiso   1.00
C439   C     0.05275   0.82629   0.25991   0.00000  Uiso   1.00
C440   C     0.17344   0.83111   0.05888   0.00000  Uiso   1.00
C441   C     0.21656   0.77574   0.05574   0.00000  Uiso   1.00
C442   C     0.28082   0.84048   0.23994   0.00000  Uiso   1.00
C443   C     0.14012   0.85917   0.42044   0.00000  Uiso   1.00
C444   C     0.32672   0.84330   0.23588   0.00000  Uiso   1.00
C445   C     0.00746   0.82370   0.26370   0.00000  Uiso   1.00
C446   C     0.17958   0.98877   0.23379   0.00000  Uiso   1.00
C447   C     0.15282   0.67844   0.26376   0.00000  Uiso   1.00
C448   C     0.15552   0.72260   0.26088   0.00000  Uiso   1.00
C449   C     0.17650   0.94456   0.23965   0.00000  Uiso   1.00
C450   C     0.13523   0.91433   0.48061   0.00000  Uiso   1.00
C451   C     0.18547   0.81477   0.12918   0.00000  Uiso   1.00
C452   C     0.14796   0.85087   0.37112   0.00000  Uiso   1.00
C453   C     0.21317   0.76368   0.01188   0.00000  Uiso   1.00
C454   C     0.19300   0.80738   0.08057   0.00000  Uiso   1.00
C455   C     0.12765   0.89772   0.43951   0.00000  Uiso   1.00
C456   C     0.15867   0.89319   0.00153   0.00000  Uiso   1.00
C457   C     0.16176   0.85003   0.48817   0.00000  Uiso   1.00
C458   C     0.15111   0.83264   0.44745   0.00000  Uiso   1.00
C459   C     0.17646   0.82358   0.01272   0.00000  Uiso   1.00
C460   C     0.19102   0.78599   0.49136   0.00000  Uiso   1.00
C461   C     0.17947   0.76925   0.45219   0.00000  Uiso   1.00
C462   C     0.15387   0.78976   0.43437   0.00000  Uiso   1.00
H463   H     0.18510   0.73773   0.43938   0.00000  Uiso   1.00
H464   H     0.07736   0.97341   0.45962   0.00000  Uiso   1.00
H465   H     0.10161   0.71739   0.46362   0.00000  Uiso   1.00
H466   H     0.01581   0.86139   0.21020   0.00000  Uiso   1.00
H467   H     0.22747   0.73672   0.49395   0.00000  Uiso   1.00
H468   H     0.28036   0.76454   0.13306   0.00000  Uiso   1.00
H469   H     0.31903   0.80547   0.28963   0.00000  Uiso   1.00
H470   H     0.27132   0.97582   0.16832   0.00000  Uiso   1.00
H471   H     0.13018   0.99860   0.29285   0.00000  Uiso   1.00
H472   H     0.15460   0.85448   0.07851   0.00000  Uiso   1.00
H473   H     0.11533   0.91672   0.42052   0.00000  Uiso   1.00
H474   H     0.18903   0.94740   0.10136   0.00000  Uiso   1.00
O475   O     0.16667   0.83333   0.25000   0.00000  Uiso   1.00
O476   O     0.15451   0.79304   0.15458   0.00000  Uiso   1.00
O477   O     0.12940   0.87058   0.34968   0.00000  Uiso   1.00
O478   O     0.20824   0.84425   0.14606   0.00000  Uiso   1.00
O479   O     0.17451   0.82546   0.34968   0.00000  Uiso   1.00
O480   O     0.23990   0.70534   0.07237   0.00000  Uiso   1.00
O481   O     0.29657   0.76186   0.04712   0.00000  Uiso   1.00
O482   O     0.25163   0.76812   0.12987   0.00000  Uiso   1.00
O483   O     0.19194   0.69332   0.15900   0.00000  Uiso   1.00
O484   O     0.24560   0.71329   0.20249   0.00000  Uiso   1.00
O485   O     0.24749   0.97615   0.15401   0.00000  Uiso   1.00
O486   O     0.17930   0.74686   0.28213   0.00000  Uiso   1.00
O487   O     0.23228   0.90191   0.02938   0.00000  Uiso   1.00
O488   O     0.20957   0.96492   0.01327   0.00000  Uiso   1.00
O489   O     0.16740   0.93129   0.08665   0.00000  Uiso   1.00
O490   O     0.11194   0.96925   0.05211   0.00000  Uiso   1.00
O491   O     0.15008   0.99733   0.48019   0.00000  Uiso   1.00
O492   O     0.07017   0.96552   0.49096   0.00000  Uiso   1.00
O493   O     0.08930   0.78119   0.39086   0.00000  Uiso   1.00
O494   O     0.14000   0.72948   0.37125   0.00000  Uiso   1.00
O495   O     0.08304   0.72722   0.44732   0.00000  Uiso   1.00
O496   O     0.14632   0.92751   0.27013   0.00000  Uiso   1.00
O497   O     0.07412   0.79958   0.23413   0.00000  Uiso   1.00
O498   O     0.26693   0.85939   0.21360   0.00000  Uiso   1.00
O499   O     0.07071   0.85544   0.28213   0.00000  Uiso   1.00
O500   O     0.25491   0.81892   0.27013   0.00000  Uiso   1.00
O501   O     0.13760   0.73610   0.23413   0.00000  Uiso   1.00
O502   O     0.20345   0.92286   0.21360   0.00000  Uiso   1.00
S503   S     0.25198   0.75165   0.07627   0.00000  Uiso   1.00
S504   S     0.21695   0.67742   0.18657   0.00000  Uiso   1.00
S505   S     0.19378   0.92345   0.03241   0.00000  Uiso   1.00
S506   S     0.11763   0.96312   0.00213   0.00000  Uiso   1.00
S507   S     0.11642   0.75724   0.40865   0.00000  Uiso   1.00
Zn508  Zn    0.19338   0.80661   0.28734   0.00000  Uiso   1.00
Zn509  Zn    0.13379   0.79124   0.21875   0.00000  Uiso   1.00
Zn510  Zn    0.21056   0.86442   0.20657   0.00000  Uiso   1.00
Zn511  Zn    0.12893   0.87106   0.28733   0.00000  Uiso   1.00
C512   C     0.38608   0.82629   0.25991   0.00000  Uiso   1.00
C513   C     0.50677   0.83111   0.05888   0.00000  Uiso   1.00
C514   C     0.54990   0.77574   0.05574   0.00000  Uiso   1.00
C515   C     0.61415   0.84048   0.23994   0.00000  Uiso   1.00
C516   C     0.47345   0.85917   0.42044   0.00000  Uiso   1.00
C517   C     0.66005   0.84330   0.23588   0.00000  Uiso   1.00
C518   C     0.34079   0.82370   0.26370   0.00000  Uiso   1.00
C519   C     0.51292   0.98877   0.23379   0.00000  Uiso   1.00
C520   C     0.48616   0.67844   0.26376   0.00000  Uiso   1.00
C521   C     0.48885   0.72260   0.26088   0.00000  Uiso   1.00
C522   C     0.50983   0.94456   0.23965   0.00000  Uiso   1.00
C523   C     0.46856   0.91433   0.48061   0.00000  Uiso   1.00
C524   C     0.51880   0.81477   0.12918   0.00000  Uiso   1.00
C525   C     0.48129   0.85087   0.37112   0.00000  Uiso   1.00
C526   C     0.54651   0.76368   0.01188   0.00000  Uiso   1.00
C527   C     0.52634   0.80738   0.08057   0.00000  Uiso   1.00
C528   C     0.46098   0.89772   0.43951   0.00000  Uiso   1.00
C529   C     0.49200   0.89319   0.00153   0.00000  Uiso   1.00
C530   C     0.49509   0.85003   0.48817   0.00000  Uiso   1.00
C531   C     0.48444   0.83264   0.44745   0.00000  Uiso   1.00
C532   C     0.50979   0.82358   0.01272   0.00000  Uiso   1.00
C533   C     0.52436   0.78599   0.49136   0.00000  Uiso   1.00
C534   C     0.51281   0.76925   0.45219   0.00000  Uiso   1.00
C535   C     0.48720   0.78976   0.43437   0.00000  Uiso   1.00
H536   H     0.51843   0.73773   0.43938   0.00000  Uiso   1.00
H537   H     0.41069   0.97341   0.45962   0.00000  Uiso   1.00
H538   H     0.43494   0.71739   0.46362   0.00000  Uiso   1.00
H539   H     0.34915   0.86139   0.21020   0.00000  Uiso   1.00
H540   H     0.56081   0.73672   0.49395   0.00000  Uiso   1.00
H541   H     0.61369   0.76454   0.13306   0.00000  Uiso   1.00
H542   H     0.65236   0.80547   0.28963   0.00000  Uiso   1.00
H543   H     0.60466   0.97582   0.16832   0.00000  Uiso   1.00
H544   H     0.46352   0.99860   0.29285   0.00000  Uiso   1.00
H545   H     0.48793   0.85448   0.07851   0.00000  Uiso   1.00
H546   H     0.44867   0.91672   0.42052   0.00000  Uiso   1.00
H547   H     0.52236   0.94740   0.10136   0.00000  Uiso   1.00
O548   O     0.50000   0.83333   0.25000   0.00000  Uiso   1.00
O549   O     0.48784   0.79304   0.15458   0.00000  Uiso   1.00
O550   O     0.46274   0.87058   0.34968   0.00000  Uiso   1.00
O551   O     0.54157   0.84425   0.14606   0.00000  Uiso   1.00
O552   O     0.50785   0.82546   0.34968   0.00000  Uiso   1.00
O553   O     0.57324   0.70534   0.07237   0.00000  Uiso   1.00
O554   O     0.62990   0.76186   0.04712   0.00000  Uiso   1.00
O555   O     0.58497   0.76812   0.12987   0.00000  Uiso   1.00
O556   O     0.52527   0.69332   0.15900   0.00000  Uiso   1.00
O557   O     0.57893   0.71329   0.20249   0.00000  Uiso   1.00
O558   O     0.58083   0.97615   0.15401   0.00000  Uiso   1.00
O559   O     0.51264   0.74686   0.28213   0.00000  Uiso   1.00
O560   O     0.56561   0.90191   0.02938   0.00000  Uiso   1.00
O561   O     0.54291   0.96492   0.01327   0.00000  Uiso   1.00
O562   O     0.50074   0.93129   0.08665   0.00000  Uiso   1.00
O563   O     0.44527   0.96925   0.05211   0.00000  Uiso   1.00
O564   O     0.48342   0.99733   0.48019   0.00000  Uiso   1.00
O565   O     0.40351   0.96552   0.49096   0.00000  Uiso   1.00
O566   O     0.42263   0.78119   0.39086   0.00000  Uiso   1.00
O567   O     0.47333   0.72948   0.37125   0.00000  Uiso   1.00
O568   O     0.41637   0.72722   0.44732   0.00000  Uiso   1.00
O569   O     0.47965   0.92751   0.27013   0.00000  Uiso   1.00
O570   O     0.40745   0.79958   0.23413   0.00000  Uiso   1.00
O571   O     0.60026   0.85939   0.21360   0.00000  Uiso   1.00
O572   O     0.40405   0.85544   0.28213   0.00000  Uiso   1.00
O573   O     0.58824   0.81892   0.27013   0.00000  Uiso   1.00
O574   O     0.47093   0.73610   0.23413   0.00000  Uiso   1.00
O575   O     0.53678   0.92286   0.21360   0.00000  Uiso   1.00
S576   S     0.58532   0.75165   0.07627   0.00000  Uiso   1.00
S577   S     0.55029   0.67742   0.18657   0.00000  Uiso   1.00
S578   S     0.52712   0.92345   0.03241   0.00000  Uiso   1.00
S579   S     0.45097   0.96312   0.00213   0.00000  Uiso   1.00
S580   S     0.44975   0.75724   0.40865   0.00000  Uiso   1.00
Zn581  Zn    0.52672   0.80661   0.28734   0.00000  Uiso   1.00
Zn582  Zn    0.46713   0.79124   0.21875   0.00000  Uiso   1.00
Zn583  Zn    0.54389   0.86442   0.20657   0.00000  Uiso   1.00
Zn584  Zn    0.46226   0.87106   0.28733   0.00000  Uiso   1.00
C585   C     0.71942   0.82629   0.25991   0.00000  Uiso   1.00
C586   C     0.84011   0.83111   0.05888   0.00000  Uiso   1.00
C587   C     0.88323   0.77574   0.05574   0.00000  Uiso   1.00
C588   C     0.94748   0.84048   0.23994   0.00000  Uiso   1.00
C589   C     0.80679   0.85917   0.42044   0.00000  Uiso   1.00
C590   C     0.99338   0.84330   0.23588   0.00000  Uiso   1.00
C591   C     0.67412   0.82370   0.26370   0.00000  Uiso   1.00
C592   C     0.84625   0.98877   0.23379   0.00000  Uiso   1.00
C593   C     0.81949   0.67844   0.26376   0.00000  Uiso   1.00
C594   C     0.82219   0.72260   0.26088   0.00000  Uiso   1.00
C595   C     0.84317   0.94456   0.23965   0.00000  Uiso   1.00
C596   C     0.80189   0.91433   0.48061   0.00000  Uiso   1.00
C597   C     0.85213   0.81477   0.12918   0.00000  Uiso   1.00
C598   C     0.81463   0.85087   0.37112   0.00000  Uiso   1.00
C599   C     0.87984   0.76368   0.01188   0.00000  Uiso   1.00
C600   C     0.85967   0.80738   0.08057   0.00000  Uiso   1.00
C601   C     0.79431   0.89772   0.43951   0.00000  Uiso   1.00
C602   C     0.82533   0.89319   0.00153   0.00000  Uiso   1.00
C603   C     0.82842   0.85003   0.48817   0.00000  Uiso   1.00
C604   C     0.81778   0.83264   0.44745   0.00000  Uiso   1.00
C605   C     0.84313   0.82358   0.01272   0.00000  Uiso   1.00
C606   C     0.85769   0.78599   0.49136   0.00000  Uiso   1.00
C607   C     0.84614   0.76925   0.45219   0.00000  Uiso   1.00
C608   C     0.82054   0.78976   0.43437   0.00000  Uiso   1.00
H609   H     0.85177   0.73773   0.43938   0.00000  Uiso   1.00
H610   H     0.74402   0.97341   0.45962   0.00000  Uiso   1.00
H611   H     0.76827   0.71739   0.46362   0.00000  Uiso   1.00
H612   H     0.68248   0.86139   0.21020   0.00000  Uiso   1.00
H613   H     0.89414   0.73672   0.49395   0.00000  Uiso   1.00
H614   H     0.94703   0.76454   0.13306   0.00000  Uiso   1.00
H615   H     0.98570   0.80547   0.28963   0.00000  Uiso   1.00
H616   H     0.93799   0.97582   0.16832   0.00000  Uiso   1.00
H617   H     0.79685   0.99860   0.29285   0.00000  Uiso   1.00
H618   H     0.82127   0.85448   0.07851   0.00000  Uiso   1.00
H619   H     0.78200   0.91672   0.42052   0.00000  Uiso   1.00
H620   H     0.85569   0.94740   0.10136   0.00000  Uiso   1.00
O621   O     0.83333   0.83333   0.25000   0.00000  Uiso   1.00
O622   O     0.82118   0.79304   0.15458   0.00000  Uiso   1.00
O623   O     0.79607   0.87058   0.34968   0.00000  Uiso   1.00
O624   O     0.87491   0.84425   0.14606   0.00000  Uiso   1.00
O625   O     0.84118   0.82546   0.34968   0.00000  Uiso   1.00
O626   O     0.90657   0.70534   0.07237   0.00000  Uiso   1.00
O627   O     0.96323   0.76186   0.04712   0.00000  Uiso   1.00
O628   O     0.91830   0.76812   0.12987   0.00000  Uiso   1.00
O629   O     0.85860   0.69332   0.15900   0.00000  Uiso   1.00
O630   O     0.91226   0.71329   0.20249   0.00000  Uiso   1.00
O631   O     0.91416   0.97615   0.15401   0.00000  Uiso   1.00
O632   O     0.84597   0.74686   0.28213   0.00000  Uiso   1.00
O633   O     0.89894   0.90191   0.02938   0.00000  Uiso   1.00
O634   O     0.87624   0.96492   0.01327   0.00000  Uiso   1.00
O635   O     0.83407   0.93129   0.08665   0.00000  Uiso   1.00
O636   O     0.77860   0.96925   0.05211   0.00000  Uiso   1.00
O637   O     0.81675   0.99733   0.48019   0.00000  Uiso   1.00
O638   O     0.73684   0.96552   0.49096   0.00000  Uiso   1.00
O639   O     0.75596   0.78119   0.39086   0.00000  Uiso   1.00
O640   O     0.80666   0.72948   0.37125   0.00000  Uiso   1.00
O641   O     0.74971   0.72722   0.44732   0.00000  Uiso   1.00
O642   O     0.81298   0.92751   0.27013   0.00000  Uiso   1.00
O643   O     0.74078   0.79958   0.23413   0.00000  Uiso   1.00
O644   O     0.93360   0.85939   0.21360   0.00000  Uiso   1.00
O645   O     0.73738   0.85544   0.28213   0.00000  Uiso   1.00
O646   O     0.92158   0.81892   0.27013   0.00000  Uiso   1.00
O647   O     0.80426   0.73610   0.23413   0.00000  Uiso   1.00
O648   O     0.87012   0.92286   0.21360   0.00000  Uiso   1.00
S649   S     0.91865   0.75165   0.07627   0.00000  Uiso   1.00
S650   S     0.88362   0.67742   0.18657   0.00000  Uiso   1.00
S651   S     0.86045   0.92345   0.03241   0.00000  Uiso   1.00
S652   S     0.78430   0.96312   0.00213   0.00000  Uiso   1.00
S653   S     0.78309   0.75724   0.40865   0.00000  Uiso   1.00
Zn654  Zn    0.86005   0.80661   0.28734   0.00000  Uiso   1.00
Zn655  Zn    0.80046   0.79124   0.21875   0.00000  Uiso   1.00
Zn656  Zn    0.87723   0.86442   0.20657   0.00000  Uiso   1.00
Zn657  Zn    0.79560   0.87106   0.28733   0.00000  Uiso   1.00
C658   C     0.05275   0.15963   0.75991   0.00000  Uiso   1.00
C659   C     0.17344   0.16445   0.55888   0.00000  Uiso   1.00
C660   C     0.21656   0.10907   0.55574   0.00000  Uiso   1.00
C661   C     0.28082   0.17381   0.73994   0.00000  Uiso   1.00
C662   C     0.14012   0.19251   0.92044   0.00000  Uiso   1.00
C663   C     0.32672   0.17664   0.73588   0.00000  Uiso   1.00
C664   C     0.00746   0.15703   0.76370   0.00000  Uiso   1.00
C665   C     0.17958   0.32210   0.73379   0.00000  Uiso   1.00
C666   C     0.15282   0.01178   0.76376   0.00000  Uiso   1.00
C667   C     0.15552   0.05593   0.76088   0.00000  Uiso   1.00
C668   C     0.17650   0.27790   0.73965   0.00000  Uiso   1.00
C669   C     0.13523   0.24766   0.98061   0.00000  Uiso   1.00
C670   C     0.18547   0.14810   0.62918   0.00000  Uiso   1.00
C671   C     0.14796   0.18420   0.87112   0.00000  Uiso   1.00
C672   C     0.21317   0.09702   0.51188   0.00000  Uiso   1.00
C673   C     0.19300   0.14072   0.58057   0.00000  Uiso   1.00
C674   C     0.12765   0.23105   0.93951   0.00000  Uiso   1.00
C675   C     0.15867   0.22652   0.50153   0.00000  Uiso   1.00
C676   C     0.16176   0.18337   0.98817   0.00000  Uiso   1.00
C677   C     0.15111   0.16597   0.94745   0.00000  Uiso   1.00
C678   C     0.17646   0.15691   0.51272   0.00000  Uiso   1.00
C679   C     0.19102   0.11933   0.99136   0.00000  Uiso   1.00
C680   C     0.17947   0.10259   0.95219   0.00000  Uiso   1.00
C681   C     0.15387   0.12310   0.93437   0.00000  Uiso   1.00
H682   H     0.18510   0.07106   0.93938   0.00000  Uiso   1.00
H683   H     0.07736   0.30675   0.95962   0.00000  Uiso   1.00
H684   H     0.10161   0.05072   0.96362   0.00000  Uiso   1.00
H685   H     0.01581   0.19472   0.71020   0.00000  Uiso   1.00
H686   H     0.22747   0.07005   0.99395   0.00000  Uiso   1.00
H687   H     0.28036   0.09788   0.63306   0.00000  Uiso   1.00
H688   H     0.31903   0.13881   0.78963   0.00000  Uiso   1.00
H689   H     0.27132   0.30915   0.66832   0.00000  Uiso   1.00
H690   H     0.13018   0.33193   0.79285   0.00000  Uiso   1.00
H691   H     0.15460   0.18781   0.57851   0.00000  Uiso   1.00
H692   H     0.11533   0.25006   0.92052   0.00000  Uiso   1.00
H693   H     0.18903   0.28073   0.60136   0.00000  Uiso   1.00
O694   O     0.16667   0.16667   0.75000   0.00000  Uiso   1.00
O695   O     0.15451   0.12637   0.65458   0.00000  Uiso   1.00
O696   O     0.12940   0.20391   0.84968   0.00000  Uiso   1.00
O697   O     0.20824   0.17759   0.64606   0.00000  Uiso   1.00
O698   O     0.17451   0.15880   0.84968   0.00000  Uiso   1.00
O699   O     0.23990   0.03867   0.57237   0.00000  Uiso   1.00
O700   O     0.29657   0.09520   0.54712   0.00000  Uiso   1.00
O701   O     0.25163   0.10145   0.62987   0.00000  Uiso   1.00
O702   O     0.19194   0.02666   0.65900   0.00000  Uiso   1.00
O703   O     0.24560   0.04662   0.70249   0.00000  Uiso   1.00
O704   O     0.24749   0.30948   0.65401   0.00000  Uiso   1.00
O705   O     0.17930   0.08019   0.78213   0.00000  Uiso   1.00
O706   O     0.23228   0.23525   0.52938   0.00000  Uiso   1.00
O707   O     0.20957   0.29826   0.51327   0.00000  Uiso   1.00
O708   O     0.16740   0.26462   0.58665   0.00000  Uiso   1.00
O709   O     0.11194   0.30258   0.55211   0.00000  Uiso   1.00
O710   O     0.15008   0.33066   0.98019   0.00000  Uiso   1.00
O711   O     0.07017   0.29886   0.99096   0.00000  Uiso   1.00
O712   O     0.08930   0.11452   0.89086   0.00000  Uiso   1.00
O713   O     0.14000   0.06281   0.87125   0.00000  Uiso   1.00
O714   O     0.08304   0.06055   0.94732   0.00000  Uiso   1.00
O715   O     0.14632   0.26085   0.77013   0.00000  Uiso   1.00
O716   O     0.07412   0.13291   0.73413   0.00000  Uiso   1.00
O717   O     0.26693   0.19272   0.71360   0.00000  Uiso   1.00
O718   O     0.07071   0.18878   0.78213   0.00000  Uiso   1.00
O719   O     0.25491   0.15226   0.77013   0.00000  Uiso   1.00
O720   O     0.13760   0.06944   0.73413   0.00000  Uiso   1.00
O721   O     0.20345   0.25620   0.71360   0.00000  Uiso   1.00
S722   S     0.25198   0.08498   0.57627   0.00000  Uiso   1.00
S723   S     0.21695   0.01075   0.68657   0.00000  Uiso   1.00
S724   S     0.19378   0.25678   0.53241   0.00000  Uiso   1.00
S725   S     0.11763   0.29645   0.50213   0.00000  Uiso   1.00
S726   S     0.11642   0.09058   0.90865   0.00000  Uiso   1.00
Zn727  Zn    0.19338   0.13994   0.78734   0.00000  Uiso   1.00
Zn728  Zn    0.13379   0.12458   0.71875   0.00000  Uiso   1.00
Zn729  Zn    0.21056   0.19775   0.70657   0.00000  Uiso   1.00
Zn730  Zn    0.12893   0.20439   0.78733   0.00000  Uiso   1.00
C731   C     0.38608   0.15963   0.75991   0.00000  Uiso   1.00
C732   C     0.50677   0.16445   0.55888   0.00000  Uiso   1.00
C733   C     0.54990   0.10907   0.55574   0.00000  Uiso   1.00
C734   C     0.61415   0.17381   0.73994   0.00000  Uiso   1.00
C735   C     0.47345   0.19251   0.92044   0.00000  Uiso   1.00
C736   C     0.66005   0.17664   0.73588   0.00000  Uiso   1.00
C737   C     0.34079   0.15703   0.76370   0.00000  Uiso   1.00
C738   C     0.51292   0.32210   0.73379   0.00000  Uiso   1.00
C739   C     0.48616   0.01178   0.76376   0.00000  Uiso   1.00
C740   C     0.48885   0.05593   0.76088   0.00000  Uiso   1.00
C741   C     0.50983   0.27790   0.73965   0.00000  Uiso   1.00
C742   C     0.46856   0.24766   0.98061   0.00000  Uiso   1.00
C743   C     0.51880   0.14810   0.62918   0.00000  Uiso   1.00
C744   C     0.48129   0.18420   0.87112   0.00000  Uiso   1.00
C745   C     0.54651   0.09702   0.51188   0.00000  Uiso   1.00
C746   C     0.52634   0.14072   0.58057   0.00000  Uiso   1.00
C747   C     0.46098   0.23105   0.93951   0.00000  Uiso   1.00
C748   C     0.49200   0.22652   0.50153   0.00000  Uiso   1.00
C749   C     0.49509   0.18337   0.98817   0.00000  Uiso   1.00
C750   C     0.48444   0.16597   0.94745   0.00000  Uiso   1.00
C751   C     0.50979   0.15691   0.51272   0.00000  Uiso   1.00
C752   C     0.52436   0.11933   0.99136   0.00000  Uiso   1.00
C753   C     0.51281   0.10259   0.95219   0.00000  Uiso   1.00
C754   C     0.48720   0.12310   0.93437   0.00000  Uiso   1.00
H755   H     0.51843   0.07106   0.93938   0.00000  Uiso   1.00
H756   H     0.41069   0.30675   0.95962   0.00000  Uiso   1.00
H757   H     0.43494   0.05072   0.96362   0.00000  Uiso   1.00
H758   H     0.34915   0.19472   0.71020   0.00000  Uiso   1.00
H759   H     0.56081   0.07005   0.99395   0.00000  Uiso   1.00
H760   H     0.61369   0.09788   0.63306   0.00000  Uiso   1.00
H761   H     0.65236   0.13881   0.78963   0.00000  Uiso   1.00
H762   H     0.60466   0.30915   0.66832   0.00000  Uiso   1.00
H763   H     0.46352   0.33193   0.79285   0.00000  Uiso   1.00
H764   H     0.48793   0.18781   0.57851   0.00000  Uiso   1.00
H765   H     0.44867   0.25006   0.92052   0.00000  Uiso   1.00
H766   H     0.52236   0.28073   0.60136   0.00000  Uiso   1.00
O767   O     0.50000   0.16667   0.75000   0.00000  Uiso   1.00
O768   O     0.48784   0.12637   0.65458   0.00000  Uiso   1.00
O769   O     0.46274   0.20391   0.84968   0.00000  Uiso   1.00
O770   O     0.54157   0.17759   0.64606   0.00000  Uiso   1.00
O771   O     0.50785   0.15880   0.84968   0.00000  Uiso   1.00
O772   O     0.57324   0.03867   0.57237   0.00000  Uiso   1.00
O773   O     0.62990   0.09520   0.54712   0.00000  Uiso   1.00
O774   O     0.58497   0.10145   0.62987   0.00000  Uiso   1.00
O775   O     0.52527   0.02666   0.65900   0.00000  Uiso   1.00
O776   O     0.57893   0.04662   0.70249   0.00000  Uiso   1.00
O777   O     0.58083   0.30948   0.65401   0.00000  Uiso   1.00
O778   O     0.51264   0.08019   0.78213   0.00000  Uiso   1.00
O779   O     0.56561   0.23525   0.52938   0.00000  Uiso   1.00
O780   O     0.54291   0.29826   0.51327   0.00000  Uiso   1.00
O781   O     0.50074   0.26462   0.58665   0.00000  Uiso   1.00
O782   O     0.44527   0.30258   0.55211   0.00000  Uiso   1.00
O783   O     0.48342   0.33066   0.98019   0.00000  Uiso   1.00
O784   O     0.40351   0.29886   0.99096   0.00000  Uiso   1.00
O785   O     0.42263   0.11452   0.89086   0.00000  Uiso   1.00
O786   O     0.47333   0.06281   0.87125   0.00000  Uiso   1.00
O787   O     0.41637   0.06055   0.94732   0.00000  Uiso   1.00
O788   O     0.47965   0.26085   0.77013   0.00000  Uiso   1.00
O789   O     0.40745   0.13291   0.73413   0.00000  Uiso   1.00
O790   O     0.60026   0.19272   0.71360   0.00000  Uiso   1.00
O791   O     0.40405   0.18878   0.78213   0.00000  Uiso   1.00
O792   O     0.58824   0.15226   0.77013   0.00000  Uiso   1.00
O793   O     0.47093   0.06944   0.73413   0.00000  Uiso   1.00
O794   O     0.53678   0.25620   0.71360   0.00000  Uiso   1.00
S795   S     0.58532   0.08498   0.57627   0.00000  Uiso   1.00
S796   S     0.55029   0.01075   0.68657   0.00000  Uiso   1.00
S797   S     0.52712   0.25678   0.53241   0.00000  Uiso   1.00
S798   S     0.45097   0.29645   0.50213   0.00000  Uiso   1.00
S799   S     0.44975   0.09058   0.90865   0.00000  Uiso   1.00
Zn800  Zn    0.52672   0.13994   0.78734   0.00000  Uiso   1.00
Zn801  Zn    0.46713   0.12458   0.71875   0.00000  Uiso   1.00
Zn802  Zn    0.54389   0.19775   0.70657   0.00000  Uiso   1.00
Zn803  Zn    0.46226   0.20439   0.78733   0.00000  Uiso   1.00
C804   C     0.71942   0.15963   0.75991   0.00000  Uiso   1.00
C805   C     0.84011   0.16445   0.55888   0.00000  Uiso   1.00
C806   C     0.88323   0.10907   0.55574   0.00000  Uiso   1.00
C807   C     0.94748   0.17381   0.73994   0.00000  Uiso   1.00
C808   C     0.80679   0.19251   0.92044   0.00000  Uiso   1.00
C809   C     0.99338   0.17664   0.73588   0.00000  Uiso   1.00
C810   C     0.67412   0.15703   0.76370   0.00000  Uiso   1.00
C811   C     0.84625   0.32210   0.73379   0.00000  Uiso   1.00
C812   C     0.81949   0.01178   0.76376   0.00000  Uiso   1.00
C813   C     0.82219   0.05593   0.76088   0.00000  Uiso   1.00
C814   C     0.84317   0.27790   0.73965   0.00000  Uiso   1.00
C815   C     0.80189   0.24766   0.98061   0.00000  Uiso   1.00
C816   C     0.85213   0.14810   0.62918   0.00000  Uiso   1.00
C817   C     0.81463   0.18420   0.87112   0.00000  Uiso   1.00
C818   C     0.87984   0.09702   0.51188   0.00000  Uiso   1.00
C819   C     0.85967   0.14072   0.58057   0.00000  Uiso   1.00
C820   C     0.79431   0.23105   0.93951   0.00000  Uiso   1.00
C821   C     0.82533   0.22652   0.50153   0.00000  Uiso   1.00
C822   C     0.82842   0.18337   0.98817   0.00000  Uiso   1.00
C823   C     0.81778   0.16597   0.94745   0.00000  Uiso   1.00
C824   C     0.84313   0.15691   0.51272   0.00000  Uiso   1.00
C825   C     0.85769   0.11933   0.99136   0.00000  Uiso   1.00
C826   C     0.84614   0.10259   0.95219   0.00000  Uiso   1.00
C827   C     0.82054   0.12310   0.93437   0.00000  Uiso   1.00
H828   H     0.85177   0.07106   0.93938   0.00000  Uiso   1.00
H829   H     0.74402   0.30675   0.95962   0.00000  Uiso   1.00
H830   H     0.76827   0.05072   0.96362   0.00000  Uiso   1.00
H831   H     0.68248   0.19472   0.71020   0.00000  Uiso   1.00
H832   H     0.89414   0.07005   0.99395   0.00000  Uiso   1.00
H833   H     0.94703   0.09788   0.63306   0.00000  Uiso   1.00
H834   H     0.98570   0.13881   0.78963   0.00000  Uiso   1.00
H835   H     0.93799   0.30915   0.66832   0.00000  Uiso   1.00
H836   H     0.79685   0.33193   0.79285   0.00000  Uiso   1.00
H837   H     0.82127   0.18781   0.57851   0.00000  Uiso   1.00
H838   H     0.78200   0.25006   0.92052   0.00000  Uiso   1.00
H839   H     0.85569   0.28073   0.60136   0.00000  Uiso   1.00
O840   O     0.83333   0.16667   0.75000   0.00000  Uiso   1.00
O841   O     0.82118   0.12637   0.65458   0.00000  Uiso   1.00
O842   O     0.79607   0.20391   0.84968   0.00000  Uiso   1.00
O843   O     0.87491   0.17759   0.64606   0.00000  Uiso   1.00
O844   O     0.84118   0.15880   0.84968   0.00000  Uiso   1.00
O845   O     0.90657   0.03867   0.57237   0.00000  Uiso   1.00
O846   O     0.96323   0.09520   0.54712   0.00000  Uiso   1.00
O847   O     0.91830   0.10145   0.62987   0.00000  Uiso   1.00
O848   O     0.85860   0.02666   0.65900   0.00000  Uiso   1.00
O849   O     0.91226   0.04662   0.70249   0.00000  Uiso   1.00
O850   O     0.91416   0.30948   0.65401   0.00000  Uiso   1.00
O851   O     0.84597   0.08019   0.78213   0.00000  Uiso   1.00
O852   O     0.89894   0.23525   0.52938   0.00000  Uiso   1.00
O853   O     0.87624   0.29826   0.51327   0.00000  Uiso   1.00
O854   O     0.83407   0.26462   0.58665   0.00000  Uiso   1.00
O855   O     0.77860   0.30258   0.55211   0.00000  Uiso   1.00
O856   O     0.81675   0.33066   0.98019   0.00000  Uiso   1.00
O857   O     0.73684   0.29886   0.99096   0.00000  Uiso   1.00
O858   O     0.75596   0.11452   0.89086   0.00000  Uiso   1.00
O859   O     0.80666   0.06281   0.87125   0.00000  Uiso   1.00
O860   O     0.74971   0.06055   0.94732   0.00000  Uiso   1.00
O861   O     0.81298   0.26085   0.77013   0.00000  Uiso   1.00
O862   O     0.74078   0.13291   0.73413   0.00000  Uiso   1.00
O863   O     0.93360   0.19272   0.71360   0.00000  Uiso   1.00
O864   O     0.73738   0.18878   0.78213   0.00000  Uiso   1.00
O865   O     0.92158   0.15226   0.77013   0.00000  Uiso   1.00
O866   O     0.80426   0.06944   0.73413   0.00000  Uiso   1.00
O867   O     0.87012   0.25620   0.71360   0.00000  Uiso   1.00
S868   S     0.91865   0.08498   0.57627   0.00000  Uiso   1.00
S869   S     0.88362   0.01075   0.68657   0.00000  Uiso   1.00
S870   S     0.86045   0.25678   0.53241   0.00000  Uiso   1.00
S871   S     0.78430   0.29645   0.50213   0.00000  Uiso   1.00
S872   S     0.78309   0.09058   0.90865   0.00000  Uiso   1.00
Zn873  Zn    0.86005   0.13994   0.78734   0.00000  Uiso   1.00
Zn874  Zn    0.80046   0.12458   0.71875   0.00000  Uiso   1.00
Zn875  Zn    0.87723   0.19775   0.70657   0.00000  Uiso   1.00
Zn876  Zn    0.79560   0.20439   0.78733   0.00000  Uiso   1.00
C877   C     0.05275   0.49296   0.75991   0.00000  Uiso   1.00
C878   C     0.17344   0.49778   0.55888   0.00000  Uiso   1.00
C879   C     0.21656   0.44241   0.55574   0.00000  Uiso   1.00
C880   C     0.28082   0.50715   0.73994   0.00000  Uiso   1.00
C881   C     0.14012   0.52584   0.92044   0.00000  Uiso   1.00
C882   C     0.32672   0.50997   0.73588   0.00000  Uiso   1.00
C883   C     0.00746   0.49036   0.76370   0.00000  Uiso   1.00
C884   C     0.17958   0.65544   0.73379   0.00000  Uiso   1.00
C885   C     0.15282   0.34511   0.76376   0.00000  Uiso   1.00
C886   C     0.15552   0.38926   0.76088   0.00000  Uiso   1.00
C887   C     0.17650   0.61123   0.73965   0.00000  Uiso   1.00
C888   C     0.13523   0.58100   0.98061   0.00000  Uiso   1.00
C889   C     0.18547   0.48144   0.62918   0.00000  Uiso   1.00
C890   C     0.14796   0.51753   0.87112   0.00000  Uiso   1.00
C891   C     0.21317   0.43035   0.51188   0.00000  Uiso   1.00
C892   C     0.19300   0.47405   0.58057   0.00000  Uiso   1.00
C893   C     0.12765   0.56439   0.93951   0.00000  Uiso   1.00
C894   C     0.15867   0.55986   0.50153   0.00000  Uiso   1.00
C895   C     0.16176   0.51670   0.98817   0.00000  Uiso   1.00
C896   C     0.15111   0.49931   0.94745   0.00000  Uiso   1.00
C897   C     0.17646   0.49025   0.51272   0.00000  Uiso   1.00
C898   C     0.19102   0.45266   0.99136   0.00000  Uiso   1.00
C899   C     0.17947   0.43592   0.95219   0.00000  Uiso   1.00
C900   C     0.15387   0.45643   0.93437   0.00000  Uiso   1.00
H901   H     0.18510   0.40439   0.93938   0.00000  Uiso   1.00
H902   H     0.07736   0.64008   0.95962   0.00000  Uiso   1.00
H903   H     0.10161   0.38405   0.96362   0.00000  Uiso   1.00
H904   H     0.01581   0.52806   0.71020   0.00000  Uiso   1.00
H905   H     0.22747   0.40339   0.99395   0.00000  Uiso   1.00
H906   H     0.28036   0.43121   0.63306   0.00000  Uiso   1.00
H907   H     0.31903   0.47214   0.78963   0.00000  Uiso   1.00
H908   H     0.27132   0.64248   0.66832   0.00000  Uiso   1.00
H909   H     0.13018   0.66527   0.79285   0.00000  Uiso   1.00
H910   H     0.15460   0.52115   0.57851   0.00000  Uiso   1.00
H911   H     0.11533   0.58339   0.92052   0.00000  Uiso   1.00
H912   H     0.18903   0.61407   0.60136   0.00000  Uiso   1.00
O913   O     0.16667   0.50000   0.75000   0.00000  Uiso   1.00
O914   O     0.15451   0.45970   0.65458   0.00000  Uiso   1.00
O915   O     0.12940   0.53724   0.84968   0.00000  Uiso   1.00
O916   O     0.20824   0.51092   0.64606   0.00000  Uiso   1.00
O917   O     0.17451   0.49213   0.84968   0.00000  Uiso   1.00
O918   O     0.23990   0.37200   0.57237   0.00000  Uiso   1.00
O919   O     0.29657   0.42853   0.54712   0.00000  Uiso   1.00
O920   O     0.25163   0.43478   0.62987   0.00000  Uiso   1.00
O921   O     0.19194   0.35999   0.65900   0.00000  Uiso   1.00
O922   O     0.24560   0.37996   0.70249   0.00000  Uiso   1.00
O923   O     0.24749   0.64281   0.65401   0.00000  Uiso   1.00
O924   O     0.17930   0.41352   0.78213   0.00000  Uiso   1.00
O925   O     0.23228   0.56858   0.52938   0.00000  Uiso   1.00
O926   O     0.20957   0.63159   0.51327   0.00000  Uiso   1.00
O927   O     0.16740   0.59796   0.58665   0.00000  Uiso   1.00
O928   O     0.11194   0.63591   0.55211   0.00000  Uiso   1.00
O929   O     0.15008   0.66400   0.98019   0.00000  Uiso   1.00
O930   O     0.07017   0.63219   0.99096   0.00000  Uiso   1.00
O931   O     0.08930   0.44785   0.89086   0.00000  Uiso   1.00
O932   O     0.14000   0.39614   0.87125   0.00000  Uiso   1.00
O933   O     0.08304   0.39389   0.94732   0.00000  Uiso   1.00
O934   O     0.14632   0.59418   0.77013   0.00000  Uiso   1.00
O935   O     0.07412   0.46625   0.73413   0.00000  Uiso   1.00
O936   O     0.26693   0.52605   0.71360   0.00000  Uiso   1.00
O937   O     0.07071   0.52211   0.78213   0.00000  Uiso   1.00
O938   O     0.25491   0.48559   0.77013   0.00000  Uiso   1.00
O939   O     0.13760   0.40277   0.73413   0.00000  Uiso   1.00
O940   O     0.20345   0.58953   0.71360   0.00000  Uiso   1.00
S941   S     0.25198   0.41831   0.57627   0.00000  Uiso   1.00
S942   S     0.21695   0.34409   0.68657   0.00000  Uiso   1.00
S943   S     0.19378   0.59011   0.53241   0.00000  Uiso   1.00
S944   S     0.11763   0.62978   0.50213   0.00000  Uiso   1.00
S945   S     0.11642   0.42391   0.90865   0.00000  Uiso   1.00
Zn946  Zn    0.19338   0.47327   0.78734   0.00000  Uiso   1.00
Zn947  Zn    0.13379   0.45791   0.71875   0.00000  Uiso   1.00
Zn948  Zn    0.21056   0.53109   0.70657   0.00000  Uiso   1.00
Zn949  Zn    0.12893   0.53773   0.78733   0.00000  Uiso   1.00
C950   C     0.38608   0.49296   0.75991   0.00000  Uiso   1.00
C951   C     0.50677   0.49778   0.55888   0.00000  Uiso   1.00
C952   C     0.54990   0.44241   0.55574   0.00000  Uiso   1.00
C953   C     0.61415   0.50715   0.73994   0.00000  Uiso   1.00
C954   C     0.47345   0.52584   0.92044   0.00000  Uiso   1.00
C955   C     0.66005   0.50997   0.73588   0.00000  Uiso   1.00
C956   C     0.34079   0.49036   0.76370   0.00000  Uiso   1.00
C957   C     0.51292   0.65544   0.73379   0.00000  Uiso   1.00
C958   C     0.48616   0.34511   0.76376   0.00000  Uiso   1.00
C959   C     0.48885   0.38926   0.76088   0.00000  Uiso   1.00
C960   C     0.50983   0.61123   0.73965   0.00000  Uiso   1.00
C961   C     0.46856   0.58100   0.98061   0.00000  Uiso   1.00
C962   C     0.51880   0.48144   0.62918   0.00000  Uiso   1.00
C963   C     0.48129   0.51753   0.87112   0.00000  Uiso   1.00
C964   C     0.54651   0.43035   0.51188   0.00000  Uiso   1.00
C965   C     0.52634   0.47405   0.58057   0.00000  Uiso   1.00
C966   C     0.46098   0.56439   0.93951   0.00000  Uiso   1.00
C967   C     0.49200   0.55986   0.50153   0.00000  Uiso   1.00
C968   C     0.49509   0.51670   0.98817   0.00000  Uiso   1.00
C969   C     0.48444   0.49931   0.94745   0.00000  Uiso   1.00
C970   C     0.50979   0.49025   0.51272   0.00000  Uiso   1.00
C971   C     0.52436   0.45266   0.99136   0.00000  Uiso   1.00
C972   C     0.51281   0.43592   0.95219   0.00000  Uiso   1.00
C973   C     0.48720   0.45643   0.93437   0.00000  Uiso   1.00
H974   H     0.51843   0.40439   0.93938   0.00000  Uiso   1.00
H975   H     0.41069   0.64008   0.95962   0.00000  Uiso   1.00
H976   H     0.43494   0.38405   0.96362   0.00000  Uiso   1.00
H977   H     0.34915   0.52806   0.71020   0.00000  Uiso   1.00
H978   H     0.56081   0.40339   0.99395   0.00000  Uiso   1.00
H979   H     0.61369   0.43121   0.63306   0.00000  Uiso   1.00
H980   H     0.65236   0.47214   0.78963   0.00000  Uiso   1.00
H981   H     0.60466   0.64248   0.66832   0.00000  Uiso   1.00
H982   H     0.46352   0.66527   0.79285   0.00000  Uiso   1.00
H983   H     0.48793   0.52115   0.57851   0.00000  Uiso   1.00
H984   H     0.44867   0.58339   0.92052   0.00000  Uiso   1.00
H985   H     0.52236   0.61407   0.60136   0.00000  Uiso   1.00
O986   O     0.50000   0.50000   0.75000   0.00000  Uiso   1.00
O987   O     0.48784   0.45970   0.65458   0.00000  Uiso   1.00
O988   O     0.46274   0.53724   0.84968   0.00000  Uiso   1.00
O989   O     0.54157   0.51092   0.64606   0.00000  Uiso   1.00
O990   O     0.50785   0.49213   0.84968   0.00000  Uiso   1.00
O991   O     0.57324   0.37200   0.57237   0.00000  Uiso   1.00
O992   O     0.62990   0.42853   0.54712   0.00000  Uiso   1.00
O993   O     0.58497   0.43478   0.62987   0.00000  Uiso   1.00
O994   O     0.52527   0.35999   0.65900   0.00000  Uiso   1.00
O995   O     0.57893   0.37996   0.70249   0.00000  Uiso   1.00
O996   O     0.58083   0.64281   0.65401   0.00000  Uiso   1.00
O997   O     0.51264   0.41352   0.78213   0.00000  Uiso   1.00
O998   O     0.56561   0.56858   0.52938   0.00000  Uiso   1.00
O999   O     0.54291   0.63159   0.51327   0.00000  Uiso   1.00
O1000  O     0.50074   0.59796   0.58665   0.00000  Uiso   1.00
O1001  O     0.44527   0.63591   0.55211   0.00000  Uiso   1.00
O1002  O     0.48342   0.66400   0.98019   0.00000  Uiso   1.00
O1003  O     0.40351   0.63219   0.99096   0.00000  Uiso   1.00
O1004  O     0.42263   0.44785   0.89086   0.00000  Uiso   1.00
O1005  O     0.47333   0.39614   0.87125   0.00000  Uiso   1.00
O1006  O     0.41637   0.39389   0.94732   0.00000  Uiso   1.00
O1007  O     0.47965   0.59418   0.77013   0.00000  Uiso   1.00
O1008  O     0.40745   0.46625   0.73413   0.00000  Uiso   1.00
O1009  O     0.60026   0.52605   0.71360   0.00000  Uiso   1.00
O1010  O     0.40405   0.52211   0.78213   0.00000  Uiso   1.00
O1011  O     0.58824   0.48559   0.77013   0.00000  Uiso   1.00
O1012  O     0.47093   0.40277   0.73413   0.00000  Uiso   1.00
O1013  O     0.53678   0.58953   0.71360   0.00000  Uiso   1.00
S1014  S     0.58532   0.41831   0.57627   0.00000  Uiso   1.00
S1015  S     0.55029   0.34409   0.68657   0.00000  Uiso   1.00
S1016  S     0.52712   0.59011   0.53241   0.00000  Uiso   1.00
S1017  S     0.45097   0.62978   0.50213   0.00000  Uiso   1.00
S1018  S     0.44975   0.42391   0.90865   0.00000  Uiso   1.00
Zn1019 Zn    0.52672   0.47327   0.78734   0.00000  Uiso   1.00
Zn1020 Zn    0.46713   0.45791   0.71875   0.00000  Uiso   1.00
Zn1021 Zn    0.54389   0.53109   0.70657   0.00000  Uiso   1.00
Zn1022 Zn    0.46226   0.53773   0.78733   0.00000  Uiso   1.00
C1023  C     0.71942   0.49296   0.75991   0.00000  Uiso   1.00
C1024  C     0.84011   0.49778   0.55888   0.00000  Uiso   1.00
C1025  C     0.88323   0.44241   0.55574   0.00000  Uiso   1.00
C1026  C     0.94748   0.50715   0.73994   0.00000  Uiso   1.00
C1027  C     0.80679   0.52584   0.92044   0.00000  Uiso   1.00
C1028  C     0.99338   0.50997   0.73588   0.00000  Uiso   1.00
C1029  C     0.67412   0.49036   0.76370   0.00000  Uiso   1.00
C1030  C     0.84625   0.65544   0.73379   0.00000  Uiso   1.00
C1031  C     0.81949   0.34511   0.76376   0.00000  Uiso   1.00
C1032  C     0.82219   0.38926   0.76088   0.00000  Uiso   1.00
C1033  C     0.84317   0.61123   0.73965   0.00000  Uiso   1.00
C1034  C     0.80189   0.58100   0.98061   0.00000  Uiso   1.00
C1035  C     0.85213   0.48144   0.62918   0.00000  Uiso   1.00
C1036  C     0.81463   0.51753   0.87112   0.00000  Uiso   1.00
C1037  C     0.87984   0.43035   0.51188   0.00000  Uiso   1.00
C1038  C     0.85967   0.47405   0.58057   0.00000  Uiso   1.00
C1039  C     0.79431   0.56439   0.93951   0.00000  Uiso   1.00
C1040  C     0.82533   0.55986   0.50153   0.00000  Uiso   1.00
C1041  C     0.82842   0.51670   0.98817   0.00000  Uiso   1.00
C1042  C     0.81778   0.49931   0.94745   0.00000  Uiso   1.00
C1043  C     0.84313   0.49025   0.51272   0.00000  Uiso   1.00
C1044  C     0.85769   0.45266   0.99136   0.00000  Uiso   1.00
C1045  C     0.84614   0.43592   0.95219   0.00000  Uiso   1.00
C1046  C     0.82054   0.45643   0.93437   0.00000  Uiso   1.00
H1047  H     0.85177   0.40439   0.93938   0.00000  Uiso   1.00
H1048  H     0.74402   0.64008   0.95962   0.00000  Uiso   1.00
H1049  H     0.76827   0.38405   0.96362   0.00000  Uiso   1.00
H1050  H     0.68248   0.52806   0.71020   0.00000  Uiso   1.00
H1051  H     0.89414   0.40339   0.99395   0.00000  Uiso   1.00
H1052  H     0.94703   0.43121   0.63306   0.00000  Uiso   1.00
H1053  H     0.98570   0.47214   0.78963   0.00000  Uiso   1.00
H1054  H     0.93799   0.64248   0.66832   0.00000  Uiso   1.00
H1055  H     0.79685   0.66527   0.79285   0.00000  Uiso   1.00
H1056  H     0.82127   0.52115   0.57851   0.00000  Uiso   1.00
H1057  H     0.78200   0.58339   0.92052   0.00000  Uiso   1.00
H1058  H     0.85569   0.61407   0.60136   0.00000  Uiso   1.00
O1059  O     0.83333   0.50000   0.75000   0.00000  Uiso   1.00
O1060  O     0.82118   0.45970   0.65458   0.00000  Uiso   1.00
O1061  O     0.79607   0.53724   0.84968   0.00000  Uiso   1.00
O1062  O     0.87491   0.51092   0.64606   0.00000  Uiso   1.00
O1063  O     0.84118   0.49213   0.84968   0.00000  Uiso   1.00
O1064  O     0.90657   0.37200   0.57237   0.00000  Uiso   1.00
O1065  O     0.96323   0.42853   0.54712   0.00000  Uiso   1.00
O1066  O     0.91830   0.43478   0.62987   0.00000  Uiso   1.00
O1067  O     0.85860   0.35999   0.65900   0.00000  Uiso   1.00
O1068  O     0.91226   0.37996   0.70249   0.00000  Uiso   1.00
O1069  O     0.91416   0.64281   0.65401   0.00000  Uiso   1.00
O1070  O     0.84597   0.41352   0.78213   0.00000  Uiso   1.00
O1071  O     0.89894   0.56858   0.52938   0.00000  Uiso   1.00
O1072  O     0.87624   0.63159   0.51327   0.00000  Uiso   1.00
O1073  O     0.83407   0.59796   0.58665   0.00000  Uiso   1.00
O1074  O     0.77860   0.63591   0.55211   0.00000  Uiso   1.00
O1075  O     0.81675   0.66400   0.98019   0.00000  Uiso   1.00
O1076  O     0.73684   0.63219   0.99096   0.00000  Uiso   1.00
O1077  O     0.75596   0.44785   0.89086   0.00000  Uiso   1.00
O1078  O     0.80666   0.39614   0.87125   0.00000  Uiso   1.00
O1079  O     0.74971   0.39389   0.94732   0.00000  Uiso   1.00
O1080  O     0.81298   0.59418   0.77013   0.00000  Uiso   1.00
O1081  O     0.74078   0.46625   0.73413   0.00000  Uiso   1.00
O1082  O     0.93360   0.52605   0.71360   0.00000  Uiso   1.00
O1083  O     0.73738   0.52211   0.78213   0.00000  Uiso   1.00
O1084  O     0.92158   0.48559   0.77013   0.00000  Uiso   1.00
O1085  O     0.80426   0.40277   0.73413   0.00000  Uiso   1.00
O1086  O     0.87012   0.58953   0.71360   0.00000  Uiso   1.00
S1087  S     0.91865   0.41831   0.57627   0.00000  Uiso   1.00
S1088  S     0.88362   0.34409   0.68657   0.00000  Uiso   1.00
S1089  S     0.86045   0.59011   0.53241   0.00000  Uiso   1.00
S1090  S     0.78430   0.62978   0.50213   0.00000  Uiso   1.00
S1091  S     0.78309   0.42391   0.90865   0.00000  Uiso   1.00
Zn1092 Zn    0.86005   0.47327   0.78734   0.00000  Uiso   1.00
Zn1093 Zn    0.80046   0.45791   0.71875   0.00000  Uiso   1.00
Zn1094 Zn    0.87723   0.53109   0.70657   0.00000  Uiso   1.00
Zn1095 Zn    0.79560   0.53773   0.78733   0.00000  Uiso   1.00
C1096  C     0.05275   0.82629   0.75991   0.00000  Uiso   1.00
C1097  C     0.17344   0.83111   0.55888   0.00000  Uiso   1.00
C1098  C     0.21656   0.77574   0.55574   0.00000  Uiso   1.00
C1099  C     0.28082   0.84048   0.73994   0.00000  Uiso   1.00
C1100  C     0.14012   0.85917   0.92044   0.00000  Uiso   1.00
C1101  C     0.32672   0.84330   0.73588   0.00000  Uiso   1.00
C1102  C     0.00746   0.82370   0.76370   0.00000  Uiso   1.00
C1103  C     0.17958   0.98877   0.73379   0.00000  Uiso   1.00
C1104  C     0.15282   0.67844   0.76376   0.00000  Uiso   1.00
C1105  C     0.15552   0.72260   0.76088   0.00000  Uiso   1.00
C1106  C     0.17650   0.94456   0.73965   0.00000  Uiso   1.00
C1107  C     0.13523   0.91433   0.98061   0.00000  Uiso   1.00
C1108  C     0.18547   0.81477   0.62918   0.00000  Uiso   1.00
C1109  C     0.14796   0.85087   0.87112   0.00000  Uiso   1.00
C1110  C     0.21317   0.76368   0.51188   0.00000  Uiso   1.00
C1111  C     0.19300   0.80738   0.58057   0.00000  Uiso   1.00
C1112  C     0.12765   0.89772   0.93951   0.00000  Uiso   1.00
C1113  C     0.15867   0.89319   0.50153   0.00000  Uiso   1.00
C1114  C     0.16176   0.85003   0.98817   0.00000  Uiso   1.00
C1115  C     0.15111   0.83264   0.94745   0.00000  Uiso   1.00
C1116  C     0.17646   0.82358   0.51272   0.00000  Uiso   1.00
C1117  C     0.19102   0.78599   0.99136   0.00000  Uiso   1.00
C1118  C     0.17947   0.76925   0.95219   0.00000  Uiso   1.00
C1119  C     0.15387   0.78976   0.93437   0.00000  Uiso   1.00
H1120  H     0.18510   0.73773   0.93938   0.00000  Uiso   1.00
H1121  H     0.07736   0.97341   0.95962   0.00000  Uiso   1.00
H1122  H     0.10161   0.71739   0.96362   0.00000  Uiso   1.00
H1123  H     0.01581   0.86139   0.71020   0.00000  Uiso   1.00
H1124  H     0.22747   0.73672   0.99395   0.00000  Uiso   1.00
H1125  H     0.28036   0.76454   0.63306   0.00000  Uiso   1.00
H1126  H     0.31903   0.80547   0.78963   0.00000  Uiso   1.00
H1127  H     0.27132   0.97582   0.66832   0.00000  Uiso   1.00
H1128  H     0.13018   0.99860   0.79285   0.00000  Uiso   1.00
H1129  H     0.15460   0.85448   0.57851   0.00000  Uiso   1.00
H1130  H     0.11533   0.91672   0.92052   0.00000  Uiso   1.00
H1131  H     0.18903   0.94740   0.60136   0.00000  Uiso   1.00
O1132  O     0.16667   0.83333   0.75000   0.00000  Uiso   1.00
O1133  O     0.15451   0.79304   0.65458   0.00000  Uiso   1.00
O1134  O     0.12940   0.87058   0.84968   0.00000  Uiso   1.00
O1135  O     0.20824   0.84425   0.64606   0.00000  Uiso   1.00
O1136  O     0.17451   0.82546   0.84968   0.00000  Uiso   1.00
O1137  O     0.23990   0.70534   0.57237   0.00000  Uiso   1.00
O1138  O     0.29657   0.76186   0.54712   0.00000  Uiso   1.00
O1139  O     0.25163   0.76812   0.62987   0.00000  Uiso   1.00
O1140  O     0.19194   0.69332   0.65900   0.00000  Uiso   1.00
O1141  O     0.24560   0.71329   0.70249   0.00000  Uiso   1.00
O1142  O     0.24749   0.97615   0.65401   0.00000  Uiso   1.00
O1143  O     0.17930   0.74686   0.78213   0.00000  Uiso   1.00
O1144  O     0.23228   0.90191   0.52938   0.00000  Uiso   1.00
O1145  O     0.20957   0.96492   0.51327   0.00000  Uiso   1.00
O1146  O     0.16740   0.93129   0.58665   0.00000  Uiso   1.00
O1147  O     0.11194   0.96925   0.55211   0.00000  Uiso   1.00
O1148  O     0.15008   0.99733   0.98019   0.00000  Uiso   1.00
O1149  O     0.07017   0.96552   0.99096   0.00000  Uiso   1.00
O1150  O     0.08930   0.78119   0.89086   0.00000  Uiso   1.00
O1151  O     0.14000   0.72948   0.87125   0.00000  Uiso   1.00
O1152  O     0.08304   0.72722   0.94732   0.00000  Uiso   1.00
O1153  O     0.14632   0.92751   0.77013   0.00000  Uiso   1.00
O1154  O     0.07412   0.79958   0.73413   0.00000  Uiso   1.00
O1155  O     0.26693   0.85939   0.71360   0.00000  Uiso   1.00
O1156  O     0.07071   0.85544   0.78213   0.00000  Uiso   1.00
O1157  O     0.25491   0.81892   0.77013   0.00000  Uiso   1.00
O1158  O     0.13760   0.73610   0.73413   0.00000  Uiso   1.00
O1159  O     0.20345   0.92286   0.71360   0.00000  Uiso   1.00
S1160  S     0.25198   0.75165   0.57627   0.00000  Uiso   1.00
S1161  S     0.21695   0.67742   0.68657   0.00000  Uiso   1.00
S1162  S     0.19378   0.92345   0.53241   0.00000  Uiso   1.00
S1163  S     0.11763   0.96312   0.50213   0.00000  Uiso   1.00
S1164  S     0.11642   0.75724   0.90865   0.00000  Uiso   1.00
Zn1165 Zn    0.19338   0.80661   0.78734   0.00000  Uiso   1.00
Zn1166 Zn    0.13379   0.79124   0.71875   0.00000  Uiso   1.00
Zn1167 Zn    0.21056   0.86442   0.70657   0.00000  Uiso   1.00
Zn1168 Zn    0.12893   0.87106   0.78733   0.00000  Uiso   1.00
C1169  C     0.38608   0.82629   0.75991   0.00000  Uiso   1.00
C1170  C     0.50677   0.83111   0.55888   0.00000  Uiso   1.00
C1171  C     0.54990   0.77574   0.55574   0.00000  Uiso   1.00
C1172  C     0.61415   0.84048   0.73994   0.00000  Uiso   1.00
C1173  C     0.47345   0.85917   0.92044   0.00000  Uiso   1.00
C1174  C     0.66005   0.84330   0.73588   0.00000  Uiso   1.00
C1175  C     0.34079   0.82370   0.76370   0.00000  Uiso   1.00
C1176  C     0.51292   0.98877   0.73379   0.00000  Uiso   1.00
C1177  C     0.48616   0.67844   0.76376   0.00000  Uiso   1.00
C1178  C     0.48885   0.72260   0.76088   0.00000  Uiso   1.00
C1179  C     0.50983   0.94456   0.73965   0.00000  Uiso   1.00
C1180  C     0.46856   0.91433   0.98061   0.00000  Uiso   1.00
C1181  C     0.51880   0.81477   0.62918   0.00000  Uiso   1.00
C1182  C     0.48129   0.85087   0.87112   0.00000  Uiso   1.00
C1183  C     0.54651   0.76368   0.51188   0.00000  Uiso   1.00
C1184  C     0.52634   0.80738   0.58057   0.00000  Uiso   1.00
C1185  C     0.46098   0.89772   0.93951   0.00000  Uiso   1.00
C1186  C     0.49200   0.89319   0.50153   0.00000  Uiso   1.00
C1187  C     0.49509   0.85003   0.98817   0.00000  Uiso   1.00
C1188  C     0.48444   0.83264   0.94745   0.00000  Uiso   1.00
C1189  C     0.50979   0.82358   0.51272   0.00000  Uiso   1.00
C1190  C     0.52436   0.78599   0.99136   0.00000  Uiso   1.00
C1191  C     0.51281   0.76925   0.95219   0.00000  Uiso   1.00
C1192  C     0.48720   0.78976   0.93437   0.00000  Uiso   1.00
H1193  H     0.51843   0.73773   0.93938   0.00000  Uiso   1.00
H1194  H     0.41069   0.97341   0.95962   0.00000  Uiso   1.00
H1195  H     0.43494   0.71739   0.96362   0.00000  Uiso   1.00
H1196  H     0.34915   0.86139   0.71020   0.00000  Uiso   1.00
H1197  H     0.56081   0.73672   0.99395   0.00000  Uiso   1.00
H1198  H     0.61369   0.76454   0.63306   0.00000  Uiso   1.00
H1199  H     0.65236   0.80547   0.78963   0.00000  Uiso   1.00
H1200  H     0.60466   0.97582   0.66832   0.00000  Uiso   1.00
H1201  H     0.46352   0.99860   0.79285   0.00000  Uiso   1.00
H1202  H     0.48793   0.85448   0.57851   0.00000  Uiso   1.00
H1203  H     0.44867   0.91672   0.92052   0.00000  Uiso   1.00
H1204  H     0.52236   0.94740   0.60136   0.00000  Uiso   1.00
O1205  O     0.50000   0.83333   0.75000   0.00000  Uiso   1.00
O1206  O     0.48784   0.79304   0.65458   0.00000  Uiso   1.00
O1207  O     0.46274   0.87058   0.84968   0.00000  Uiso   1.00
O1208  O     0.54157   0.84425   0.64606   0.00000  Uiso   1.00
O1209  O     0.50785   0.82546   0.84968   0.00000  Uiso   1.00
O1210  O     0.57324   0.70534   0.57237   0.00000  Uiso   1.00
O1211  O     0.62990   0.76186   0.54712   0.00000  Uiso   1.00
O1212  O     0.58497   0.76812   0.62987   0.00000  Uiso   1.00
O1213  O     0.52527   0.69332   0.65900   0.00000  Uiso   1.00
O1214  O     0.57893   0.71329   0.70249   0.00000  Uiso   1.00
O1215  O     0.58083   0.97615   0.65401   0.00000  Uiso   1.00
O1216  O     0.51264   0.74686   0.78213   0.00000  Uiso   1.00
O1217  O     0.56561   0.90191   0.52938   0.00000  Uiso   1.00
O1218  O     0.54291   0.96492   0.51327   0.00000  Uiso   1.00
O1219  O     0.50074   0.93129   0.58665   0.00000  Uiso   1.00
O1220  O     0.44527   0.96925   0.55211   0.00000  Uiso   1.00
O1221  O     0.48342   0.99733   0.98019   0.00000  Uiso   1.00
O1222  O     0.40351   0.96552   0.99096   0.00000  Uiso   1.00
O1223  O     0.42263   0.78119   0.89086   0.00000  Uiso   1.00
O1224  O     0.47333   0.72948   0.87125   0.00000  Uiso   1.00
O1225  O     0.41637   0.72722   0.94732   0.00000  Uiso   1.00
O1226  O     0.47965   0.92751   0.77013   0.00000  Uiso   1.00
O1227  O     0.40745   0.79958   0.73413   0.00000  Uiso   1.00
O1228  O     0.60026   0.85939   0.71360   0.00000  Uiso   1.00
O1229  O     0.40405   0.85544   0.78213   0.00000  Uiso   1.00
O1230  O     0.58824   0.81892   0.77013   0.00000  Uiso   1.00
O1231  O     0.47093   0.73610   0.73413   0.00000  Uiso   1.00
O1232  O     0.53678   0.92286   0.71360   0.00000  Uiso   1.00
S1233  S     0.58532   0.75165   0.57627   0.00000  Uiso   1.00
S1234  S     0.55029   0.67742   0.68657   0.00000  Uiso   1.00
S1235  S     0.52712   0.92345   0.53241   0.00000  Uiso   1.00
S1236  S     0.45097   0.96312   0.50213   0.00000  Uiso   1.00
S1237  S     0.44975   0.75724   0.90865   0.00000  Uiso   1.00
Zn1238 Zn    0.52672   0.80661   0.78734   0.00000  Uiso   1.00
Zn1239 Zn    0.46713   0.79124   0.71875   0.00000  Uiso   1.00
Zn1240 Zn    0.54389   0.86442   0.70657   0.00000  Uiso   1.00
Zn1241 Zn    0.46226   0.87106   0.78733   0.00000  Uiso   1.00
C1242  C     0.71942   0.82629   0.75991   0.00000  Uiso   1.00
C1243  C     0.84011   0.83111   0.55888   0.00000  Uiso   1.00
C1244  C     0.88323   0.77574   0.55574   0.00000  Uiso   1.00
C1245  C     0.94748   0.84048   0.73994   0.00000  Uiso   1.00
C1246  C     0.80679   0.85917   0.92044   0.00000  Uiso   1.00
C1247  C     0.99338   0.84330   0.73588   0.00000  Uiso   1.00
C1248  C     0.67412   0.82370   0.76370   0.00000  Uiso   1.00
C1249  C     0.84625   0.98877   0.73379   0.00000  Uiso   1.00
C1250  C     0.81949   0.67844   0.76376   0.00000  Uiso   1.00
C1251  C     0.82219   0.72260   0.76088   0.00000  Uiso   1.00
C1252  C     0.84317   0.94456   0.73965   0.00000  Uiso   1.00
C1253  C     0.80189   0.91433   0.98061   0.00000  Uiso   1.00
C1254  C     0.85213   0.81477   0.62918   0.00000  Uiso   1.00
C1255  C     0.81463   0.85087   0.87112   0.00000  Uiso   1.00
C1256  C     0.87984   0.76368   0.51188   0.00000  Uiso   1.00
C1257  C     0.85967   0.80738   0.58057   0.00000  Uiso   1.00
C1258  C     0.79431   0.89772   0.93951   0.00000  Uiso   1.00
C1259  C     0.82533   0.89319   0.50153   0.00000  Uiso   1.00
C1260  C     0.82842   0.85003   0.98817   0.00000  Uiso   1.00
C1261  C     0.81778   0.83264   0.94745   0.00000  Uiso   1.00
C1262  C     0.84313   0.82358   0.51272   0.00000  Uiso   1.00
C1263  C     0.85769   0.78599   0.99136   0.00000  Uiso   1.00
C1264  C     0.84614   0.76925   0.95219   0.00000  Uiso   1.00
C1265  C     0.82054   0.78976   0.93437   0.00000  Uiso   1.00
H1266  H     0.85177   0.73773   0.93938   0.00000  Uiso   1.00
H1267  H     0.74402   0.97341   0.95962   0.00000  Uiso   1.00
H1268  H     0.76827   0.71739   0.96362   0.00000  Uiso   1.00
H1269  H     0.68248   0.86139   0.71020   0.00000  Uiso   1.00
H1270  H     0.89414   0.73672   0.99395   0.00000  Uiso   1.00
H1271  H     0.94703   0.76454   0.63306   0.00000  Uiso   1.00
H1272  H     0.98570   0.80547   0.78963   0.00000  Uiso   1.00
H1273  H     0.93799   0.97582   0.66832   0.00000  Uiso   1.00
H1274  H     0.79685   0.99860   0.79285   0.00000  Uiso   1.00
H1275  H     0.82127   0.85448   0.57851   0.00000  Uiso   1.00
H1276  H     0.78200   0.91672   0.92052   0.00000  Uiso   1.00
H1277  H     0.85569   0.94740   0.60136   0.00000  Uiso   1.00
O1278  O     0.83333   0.83333   0.75000   0.00000  Uiso   1.00
O1279  O     0.82118   0.79304   0.65458   0.00000  Uiso   1.00
O1280  O     0.79607   0.87058   0.84968   0.00000  Uiso   1.00
O1281  O     0.87491   0.84425   0.64606   0.00000  Uiso   1.00
O1282  O     0.84118   0.82546   0.84968   0.00000  Uiso   1.00
O1283  O     0.90657   0.70534   0.57237   0.00000  Uiso   1.00
O1284  O     0.96323   0.76186   0.54712   0.00000  Uiso   1.00
O1285  O     0.91830   0.76812   0.62987   0.00000  Uiso   1.00
O1286  O     0.85860   0.69332   0.65900   0.00000  Uiso   1.00
O1287  O     0.91226   0.71329   0.70249   0.00000  Uiso   1.00
O1288  O     0.91416   0.97615   0.65401   0.00000  Uiso   1.00
O1289  O     0.84597   0.74686   0.78213   0.00000  Uiso   1.00
O1290  O     0.89894   0.90191   0.52938   0.00000  Uiso   1.00
O1291  O     0.87624   0.96492   0.51327   0.00000  Uiso   1.00
O1292  O     0.83407   0.93129   0.58665   0.00000  Uiso   1.00
O1293  O     0.77860   0.96925   0.55211   0.00000  Uiso   1.00
O1294  O     0.81675   0.99733   0.98019   0.00000  Uiso   1.00
O1295  O     0.73684   0.96552   0.99096   0.00000  Uiso   1.00
O1296  O     0.75596   0.78119   0.89086   0.00000  Uiso   1.00
O1297  O     0.80666   0.72948   0.87125   0.00000  Uiso   1.00
O1298  O     0.74971   0.72722   0.94732   0.00000  Uiso   1.00
O1299  O     0.81298   0.92751   0.77013   0.00000  Uiso   1.00
O1300  O     0.74078   0.79958   0.73413   0.00000  Uiso   1.00
O1301  O     0.93360   0.85939   0.71360   0.00000  Uiso   1.00
O1302  O     0.73738   0.85544   0.78213   0.00000  Uiso   1.00
O1303  O     0.92158   0.81892   0.77013   0.00000  Uiso   1.00
O1304  O     0.80426   0.73610   0.73413   0.00000  Uiso   1.00
O1305  O     0.87012   0.92286   0.71360   0.00000  Uiso   1.00
S1306  S     0.91865   0.75165   0.57627   0.00000  Uiso   1.00
S1307  S     0.88362   0.67742   0.68657   0.00000  Uiso   1.00
S1308  S     0.86045   0.92345   0.53241   0.00000  Uiso   1.00
S1309  S     0.78430   0.96312   0.50213   0.00000  Uiso   1.00
S1310  S     0.78309   0.75724   0.90865   0.00000  Uiso   1.00
Zn1311 Zn    0.86005   0.80661   0.78734   0.00000  Uiso   1.00
Zn1312 Zn    0.80046   0.79124   0.71875   0.00000  Uiso   1.00
Zn1313 Zn    0.87723   0.86442   0.70657   0.00000  Uiso   1.00
Zn1314 Zn    0.79560   0.87106   0.78733   0.00000  Uiso   1.00
loop_
_geom_bond_atom_site_label_1
_geom_bond_atom_site_label_2
_geom_bond_distance
_geom_bond_site_symmetry_2
_ccdc_geom_bond_type
C1     C7      1.437   .     S
C1     O59     1.270   .     A
C1     O61     1.270   .     A
C2     C16     1.396   .     A
C2     C21     1.401   .     A
C2     H34     1.080   .     S
C3     S65     1.767   .     S
C3     C15     1.397   .     A
C3     C16     1.412   .     A
C4     O60     1.281   .     A
C4     O62     1.278   .     A
C4     C6      1.455   .     S
C5     C20     1.411   .     A
C5     C17     1.398   .     A
C5     C14     1.480   .     S
C6     C80     1.335   .     S
C6     H101    1.088   .     S
C7     C152    1.335   1_455 S
C7     H177    1.086   1_455 S
C8     C11     1.459   .     S
C8     C228    1.340   .     S
C8     S285    1.779   .     S
C9     C10     1.442   .     S
C9     C446    1.340   1_545 S
C9     H471    1.086   1_545 S
C10    O48     1.273   .     A
C10    O63     1.278   .     A
C11    O58     1.276   .     A
C11    O64     1.267   .     A
C12    C17     1.393   .     A
C12    C675    1.413   .     S
C12    S725    1.772   .     S
C13    O38     1.276   .     A
C13    C16     1.457   .     S
C13    O40     1.273   .     A
C14    O41     1.290   .     A
C14    O39     1.282   .     A
C15    C679    1.399   1_554 S
C15    H686    1.084   1_554 S
C17    H35     1.083   .     S
C18    S67     1.792   .     S
C18    C669    1.413   1_554 S
C18    C676    1.433   1_554 S
C19    C20     1.427   .     A
C19    C675    1.433   .     S
C19    C678    1.420   .     S
C20    C24     1.421   .     A
C21    C676    1.420   1_554 S
C21    C679    1.412   1_554 S
C22    C23     1.391   .     A
C22    C678    1.412   .     S
C22    C672    1.399   .     S
C23    C24     1.393   .     A
C23    H25     1.084   .     S
C24    S69     1.780   .     S
H26    O54     0.990   .     S
H27    O57     0.989   .     S
H28    C152    1.088   1_455 S
H29    C672    1.084   .     S
H30    O44     0.990   .     S
H31    C80     1.086   .     S
H32    O47     0.991   .     S
H33    C228    1.086   .     S
H36    O51     0.990   .     S
O37    Zn70    1.959   .     S
O37    Zn72    1.932   .     S
O37    Zn73    1.935   .     S
O37    Zn71    1.939   .     S
O38    Zn71    1.926   .     S
O39    Zn73    1.935   .     S
O40    Zn72    1.930   .     S
O41    Zn70    1.923   .     S
O42    S65     1.502   .     D
O43    S65     1.504   .     D
O44    S65     1.682   .     S
O45    S66     1.501   .     D
O46    S66     1.504   .     D
O47    S285    1.683   .     S
O48    Zn70    1.932   .     S
O49    S67     1.504   .     D
O50    S67     1.502   .     D
O51    S67     1.682   .     S
O52    S68     1.502   .     D
O53    S725    1.503   .     S
O54    S725    1.683   .     S
O55    S69     1.502   .     D
O56    S69     1.501   .     D
O57    S69     1.682   .     S
O58    Zn73    1.935   .     S
O59    Zn71    1.927   .     S
O60    Zn72    1.936   .     S
O61    Zn73    1.929   .     S
O62    Zn70    1.922   .     S
O63    Zn71    1.942   .     S
O64    Zn72    1.937   .     S
S66    O485    1.683   1_545 S
S66    C446    1.779   1_545 S
S68    O710    1.503   1_554 S
S68    O711    1.683   1_554 S
S68    C669    1.772   1_554 S
C74    C80     1.437   .     S
C74    O132    1.270   .     A
C74    O134    1.270   .     A
C75    C89     1.396   .     A
C75    C94     1.401   .     A
C75    H107    1.080   .     S
C76    S138    1.767   .     S
C76    C88     1.397   .     A
C76    C89     1.412   .     A
C77    O133    1.281   .     A
C77    O135    1.278   .     A
C77    C79     1.455   .     S
C78    C93     1.411   .     A
C78    C90     1.398   .     A
C78    C87     1.480   .     S
C79    C153    1.335   .     S
C79    H174    1.088   .     S
C81    C84     1.459   .     S
C81    C301    1.340   .     S
C81    S358    1.779   .     S
C82    C83     1.442   .     S
C82    C519    1.340   1_545 S
C82    H544    1.086   1_545 S
C83    O121    1.273   .     A
C83    O136    1.278   .     A
C84    O131    1.276   .     A
C84    O137    1.267   .     A
C85    C90     1.393   .     A
C85    C748    1.413   .     S
C85    S798    1.772   .     S
C86    O111    1.276   .     A
C86    C89     1.457   .     S
C86    O113    1.273   .     A
C87    O114    1.290   .     A
C87    O112    1.282   .     A
C88    C752    1.399   1_554 S
C88    H759    1.084   1_554 S
C90    H108    1.083   .     S
C91    S140    1.792   .     S
C91    C742    1.413   1_554 S
C91    C749    1.433   1_554 S
C92    C93     1.427   .     A
C92    C748    1.433   .     S
C92    C751    1.420   .     S
C93    C97     1.421   .     A
C94    C749    1.420   1_554 S
C94    C752    1.412   1_554 S
C95    C96     1.391   .     A
C95    C751    1.412   .     S
C95    C745    1.399   .     S
C96    C97     1.393   .     A
C96    H98     1.084   .     S
C97    S142    1.780   .     S
H99    O127    0.990   .     S
H100   O130    0.989   .     S
H102   C745    1.084   .     S
H103   O117    0.990   .     S
H104   C153    1.086   .     S
H105   O120    0.991   .     S
H106   C301    1.086   .     S
H109   O124    0.990   .     S
O110   Zn143   1.959   .     S
O110   Zn145   1.932   .     S
O110   Zn146   1.935   .     S
O110   Zn144   1.939   .     S
O111   Zn144   1.926   .     S
O112   Zn146   1.935   .     S
O113   Zn145   1.930   .     S
O114   Zn143   1.923   .     S
O115   S138    1.502   .     D
O116   S138    1.504   .     D
O117   S138    1.682   .     S
O118   S139    1.501   .     D
O119   S139    1.504   .     D
O120   S358    1.683   .     S
O121   Zn143   1.932   .     S
O122   S140    1.504   .     D
O123   S140    1.502   .     D
O124   S140    1.682   .     S
O125   S141    1.502   .     D
O126   S798    1.503   .     S
O127   S798    1.683   .     S
O128   S142    1.502   .     D
O129   S142    1.501   .     D
O130   S142    1.682   .     S
O131   Zn146   1.935   .     S
O132   Zn144   1.927   .     S
O133   Zn145   1.936   .     S
O134   Zn146   1.929   .     S
O135   Zn143   1.922   .     S
O136   Zn144   1.942   .     S
O137   Zn145   1.937   .     S
S139   O558    1.683   1_545 S
S139   C519    1.779   1_545 S
S141   O783    1.503   1_554 S
S141   O784    1.683   1_554 S
S141   C742    1.772   1_554 S
C147   C153    1.437   .     S
C147   O205    1.270   .     A
C147   O207    1.270   .     A
C148   C162    1.396   .     A
C148   C167    1.401   .     A
C148   H180    1.080   .     S
C149   S211    1.767   .     S
C149   C161    1.397   .     A
C149   C162    1.412   .     A
C150   O206    1.281   .     A
C150   O208    1.278   .     A
C150   C152    1.455   .     S
C151   C166    1.411   .     A
C151   C163    1.398   .     A
C151   C160    1.480   .     S
C152   C7      1.335   1_655 S
C152   H28     1.088   1_655 S
C154   C157    1.459   .     S
C154   C374    1.340   .     S
C154   S431    1.779   .     S
C155   C156    1.442   .     S
C155   C592    1.340   1_545 S
C155   H617    1.086   1_545 S
C156   O194    1.273   .     A
C156   O209    1.278   .     A
C157   O204    1.276   .     A
C157   O210    1.267   .     A
C158   C163    1.393   .     A
C158   C821    1.413   .     S
C158   S871    1.772   .     S
C159   O184    1.276   .     A
C159   C162    1.457   .     S
C159   O186    1.273   .     A
C160   O187    1.290   .     A
C160   O185    1.282   .     A
C161   C825    1.399   1_554 S
C161   H832    1.084   1_554 S
C163   H181    1.083   .     S
C164   S213    1.792   .     S
C164   C815    1.413   1_554 S
C164   C822    1.433   1_554 S
C165   C166    1.427   .     A
C165   C821    1.433   .     S
C165   C824    1.420   .     S
C166   C170    1.421   .     A
C167   C822    1.420   1_554 S
C167   C825    1.412   1_554 S
C168   C169    1.391   .     A
C168   C824    1.412   .     S
C168   C818    1.399   .     S
C169   C170    1.393   .     A
C169   H171    1.084   .     S
C170   S215    1.780   .     S
H172   O200    0.990   .     S
H173   O203    0.989   .     S
H175   C818    1.084   .     S
H176   O190    0.990   .     S
H177   C7      1.086   1_655 S
H178   O193    0.991   .     S
H179   C374    1.086   .     S
H182   O197    0.990   .     S
O183   Zn216   1.959   .     S
O183   Zn218   1.932   .     S
O183   Zn219   1.935   .     S
O183   Zn217   1.939   .     S
O184   Zn217   1.926   .     S
O185   Zn219   1.935   .     S
O186   Zn218   1.930   .     S
O187   Zn216   1.923   .     S
O188   S211    1.502   .     D
O189   S211    1.504   .     D
O190   S211    1.682   .     S
O191   S212    1.501   .     D
O192   S212    1.504   .     D
O193   S431    1.683   .     S
O194   Zn216   1.932   .     S
O195   S213    1.504   .     D
O196   S213    1.502   .     D
O197   S213    1.682   .     S
O198   S214    1.502   .     D
O199   S871    1.503   .     S
O200   S871    1.683   .     S
O201   S215    1.502   .     D
O202   S215    1.501   .     D
O203   S215    1.682   .     S
O204   Zn219   1.935   .     S
O205   Zn217   1.927   .     S
O206   Zn218   1.936   .     S
O207   Zn219   1.929   .     S
O208   Zn216   1.922   .     S
O209   Zn217   1.942   .     S
O210   Zn218   1.937   .     S
S212   O631    1.683   1_545 S
S212   C592    1.779   1_545 S
S214   O856    1.503   1_554 S
S214   O857    1.683   1_554 S
S214   C815    1.772   1_554 S
C220   C226    1.437   .     S
C220   O278    1.270   .     A
C220   O280    1.270   .     A
C221   C235    1.396   .     A
C221   C240    1.401   .     A
C221   H253    1.080   .     S
C222   S284    1.767   .     S
C222   C234    1.397   .     A
C222   C235    1.412   .     A
C223   O279    1.281   .     A
C223   O281    1.278   .     A
C223   C225    1.455   .     S
C224   C239    1.411   .     A
C224   C236    1.398   .     A
C224   C233    1.480   .     S
C225   C299    1.335   .     S
C225   H320    1.088   .     S
C226   C371    1.335   1_455 S
C226   H396    1.086   1_455 S
C227   C230    1.459   .     S
C227   C447    1.340   .     S
C227   S504    1.779   .     S
C228   C229    1.442   .     S
C229   O267    1.273   .     A
C229   O282    1.278   .     A
C230   O277    1.276   .     A
C230   O283    1.267   .     A
C231   C236    1.393   .     A
C231   C894    1.413   .     S
C231   S944    1.772   .     S
C232   O257    1.276   .     A
C232   C235    1.457   .     S
C232   O259    1.273   .     A
C233   O260    1.290   .     A
C233   O258    1.282   .     A
C234   C898    1.399   1_554 S
C234   H905    1.084   1_554 S
C236   H254    1.083   .     S
C237   S286    1.792   .     S
C237   C888    1.413   1_554 S
C237   C895    1.433   1_554 S
C238   C239    1.427   .     A
C238   C894    1.433   .     S
C238   C897    1.420   .     S
C239   C243    1.421   .     A
C240   C895    1.420   1_554 S
C240   C898    1.412   1_554 S
C241   C242    1.391   .     A
C241   C897    1.412   .     S
C241   C891    1.399   .     S
C242   C243    1.393   .     A
C242   H244    1.084   .     S
C243   S288    1.780   .     S
H245   O273    0.990   .     S
H246   O276    0.989   .     S
H247   C371    1.088   1_455 S
H248   C891    1.084   .     S
H249   O263    0.990   .     S
H250   C299    1.086   .     S
H251   O266    0.991   .     S
H252   C447    1.086   .     S
H255   O270    0.990   .     S
O256   Zn289   1.959   .     S
O256   Zn291   1.932   .     S
O256   Zn292   1.935   .     S
O256   Zn290   1.939   .     S
O257   Zn290   1.926   .     S
O258   Zn292   1.935   .     S
O259   Zn291   1.930   .     S
O260   Zn289   1.923   .     S
O261   S284    1.502   .     D
O262   S284    1.504   .     D
O263   S284    1.682   .     S
O264   S285    1.501   .     D
O265   S285    1.504   .     D
O266   S504    1.683   .     S
O267   Zn289   1.932   .     S
O268   S286    1.504   .     D
O269   S286    1.502   .     D
O270   S286    1.682   .     S
O271   S287    1.502   .     D
O272   S944    1.503   .     S
O273   S944    1.683   .     S
O274   S288    1.502   .     D
O275   S288    1.501   .     D
O276   S288    1.682   .     S
O277   Zn292   1.935   .     S
O278   Zn290   1.927   .     S
O279   Zn291   1.936   .     S
O280   Zn292   1.929   .     S
O281   Zn289   1.922   .     S
O282   Zn290   1.942   .     S
O283   Zn291   1.937   .     S
S287   O929    1.503   1_554 S
S287   O930    1.683   1_554 S
S287   C888    1.772   1_554 S
C293   C299    1.437   .     S
C293   O351    1.270   .     A
C293   O353    1.270   .     A
C294   C308    1.396   .     A
C294   C313    1.401   .     A
C294   H326    1.080   .     S
C295   S357    1.767   .     S
C295   C307    1.397   .     A
C295   C308    1.412   .     A
C296   O352    1.281   .     A
C296   O354    1.278   .     A
C296   C298    1.455   .     S
C297   C312    1.411   .     A
C297   C309    1.398   .     A
C297   C306    1.480   .     S
C298   C372    1.335   .     S
C298   H393    1.088   .     S
C300   C303    1.459   .     S
C300   C520    1.340   .     S
C300   S577    1.779   .     S
C301   C302    1.442   .     S
C302   O340    1.273   .     A
C302   O355    1.278   .     A
C303   O350    1.276   .     A
C303   O356    1.267   .     A
C304   C309    1.393   .     A
C304   C967    1.413   .     S
C304   S1017   1.772   .     S
C305   O330    1.276   .     A
C305   C308    1.457   .     S
C305   O332    1.273   .     A
C306   O333    1.290   .     A
C306   O331    1.282   .     A
C307   C971    1.399   1_554 S
C307   H978    1.084   1_554 S
C309   H327    1.083   .     S
C310   S359    1.792   .     S
C310   C961    1.413   1_554 S
C310   C968    1.433   1_554 S
C311   C312    1.427   .     A
C311   C967    1.433   .     S
C311   C970    1.420   .     S
C312   C316    1.421   .     A
C313   C968    1.420   1_554 S
C313   C971    1.412   1_554 S
C314   C315    1.391   .     A
C314   C970    1.412   .     S
C314   C964    1.399   .     S
C315   C316    1.393   .     A
C315   H317    1.084   .     S
C316   S361    1.780   .     S
H318   O346    0.990   .     S
H319   O349    0.989   .     S
H321   C964    1.084   .     S
H322   O336    0.990   .     S
H323   C372    1.086   .     S
H324   O339    0.991   .     S
H325   C520    1.086   .     S
H328   O343    0.990   .     S
O329   Zn362   1.959   .     S
O329   Zn364   1.932   .     S
O329   Zn365   1.935   .     S
O329   Zn363   1.939   .     S
O330   Zn363   1.926   .     S
O331   Zn365   1.935   .     S
O332   Zn364   1.930   .     S
O333   Zn362   1.923   .     S
O334   S357    1.502   .     D
O335   S357    1.504   .     D
O336   S357    1.682   .     S
O337   S358    1.501   .     D
O338   S358    1.504   .     D
O339   S577    1.683   .     S
O340   Zn362   1.932   .     S
O341   S359    1.504   .     D
O342   S359    1.502   .     D
O343   S359    1.682   .     S
O344   S360    1.502   .     D
O345   S1017   1.503   .     S
O346   S1017   1.683   .     S
O347   S361    1.502   .     D
O348   S361    1.501   .     D
O349   S361    1.682   .     S
O350   Zn365   1.935   .     S
O351   Zn363   1.927   .     S
O352   Zn364   1.936   .     S
O353   Zn365   1.929   .     S
O354   Zn362   1.922   .     S
O355   Zn363   1.942   .     S
O356   Zn364   1.937   .     S
S360   O1002   1.503   1_554 S
S360   O1003   1.683   1_554 S
S360   C961    1.772   1_554 S
C366   C372    1.437   .     S
C366   O424    1.270   .     A
C366   O426    1.270   .     A
C367   C381    1.396   .     A
C367   C386    1.401   .     A
C367   H399    1.080   .     S
C368   S430    1.767   .     S
C368   C380    1.397   .     A
C368   C381    1.412   .     A
C369   O425    1.281   .     A
C369   O427    1.278   .     A
C369   C371    1.455   .     S
C370   C385    1.411   .     A
C370   C382    1.398   .     A
C370   C379    1.480   .     S
C371   C226    1.335   1_655 S
C371   H247    1.088   1_655 S
C373   C376    1.459   .     S
C373   C593    1.340   .     S
C373   S650    1.779   .     S
C374   C375    1.442   .     S
C375   O413    1.273   .     A
C375   O428    1.278   .     A
C376   O423    1.276   .     A
C376   O429    1.267   .     A
C377   C382    1.393   .     A
C377   C1040   1.413   .     S
C377   S1090   1.772   .     S
C378   O403    1.276   .     A
C378   C381    1.457   .     S
C378   O405    1.273   .     A
C379   O406    1.290   .     A
C379   O404    1.282   .     A
C380   C1044   1.399   1_554 S
C380   H1051   1.084   1_554 S
C382   H400    1.083   .     S
C383   S432    1.792   .     S
C383   C1034   1.413   1_554 S
C383   C1041   1.433   1_554 S
C384   C385    1.427   .     A
C384   C1040   1.433   .     S
C384   C1043   1.420   .     S
C385   C389    1.421   .     A
C386   C1041   1.420   1_554 S
C386   C1044   1.412   1_554 S
C387   C388    1.391   .     A
C387   C1043   1.412   .     S
C387   C1037   1.399   .     S
C388   C389    1.393   .     A
C388   H390    1.084   .     S
C389   S434    1.780   .     S
H391   O419    0.990   .     S
H392   O422    0.989   .     S
H394   C1037   1.084   .     S
H395   O409    0.990   .     S
H396   C226    1.086   1_655 S
H397   O412    0.991   .     S
H398   C593    1.086   .     S
H401   O416    0.990   .     S
O402   Zn435   1.959   .     S
O402   Zn437   1.932   .     S
O402   Zn438   1.935   .     S
O402   Zn436   1.939   .     S
O403   Zn436   1.926   .     S
O404   Zn438   1.935   .     S
O405   Zn437   1.930   .     S
O406   Zn435   1.923   .     S
O407   S430    1.502   .     D
O408   S430    1.504   .     D
O409   S430    1.682   .     S
O410   S431    1.501   .     D
O411   S431    1.504   .     D
O412   S650    1.683   .     S
O413   Zn435   1.932   .     S
O414   S432    1.504   .     D
O415   S432    1.502   .     D
O416   S432    1.682   .     S
O417   S433    1.502   .     D
O418   S1090   1.503   .     S
O419   S1090   1.683   .     S
O420   S434    1.502   .     D
O421   S434    1.501   .     D
O422   S434    1.682   .     S
O423   Zn438   1.935   .     S
O424   Zn436   1.927   .     S
O425   Zn437   1.936   .     S
O426   Zn438   1.929   .     S
O427   Zn435   1.922   .     S
O428   Zn436   1.942   .     S
O429   Zn437   1.937   .     S
S433   O1075   1.503   1_554 S
S433   O1076   1.683   1_554 S
S433   C1034   1.772   1_554 S
C439   C445    1.437   .     S
C439   O497    1.270   .     A
C439   O499    1.270   .     A
C440   C454    1.396   .     A
C440   C459    1.401   .     A
C440   H472    1.080   .     S
C441   S503    1.767   .     S
C441   C453    1.397   .     A
C441   C454    1.412   .     A
C442   O498    1.281   .     A
C442   O500    1.278   .     A
C442   C444    1.455   .     S
C443   C458    1.411   .     A
C443   C455    1.398   .     A
C443   C452    1.480   .     S
C444   C518    1.335   .     S
C444   H539    1.088   .     S
C445   C590    1.335   1_455 S
C445   H615    1.086   1_455 S
C446   C449    1.459   .     S
C446   C9      1.340   1_565 S
C446   S66     1.779   1_565 S
C447   C448    1.442   .     S
C448   O486    1.273   .     A
C448   O501    1.278   .     A
C449   O496    1.276   .     A
C449   O502    1.267   .     A
C450   C455    1.393   .     A
C450   C1113   1.413   .     S
C450   S1163   1.772   .     S
C451   O476    1.276   .     A
C451   C454    1.457   .     S
C451   O478    1.273   .     A
C452   O479    1.290   .     A
C452   O477    1.282   .     A
C453   C1117   1.399   1_554 S
C453   H1124   1.084   1_554 S
C455   H473    1.083   .     S
C456   S505    1.792   .     S
C456   C1107   1.413   1_554 S
C456   C1114   1.433   1_554 S
C457   C458    1.427   .     A
C457   C1113   1.433   .     S
C457   C1116   1.420   .     S
C458   C462    1.421   .     A
C459   C1114   1.420   1_554 S
C459   C1117   1.412   1_554 S
C460   C461    1.391   .     A
C460   C1116   1.412   .     S
C460   C1110   1.399   .     S
C461   C462    1.393   .     A
C461   H463    1.084   .     S
C462   S507    1.780   .     S
H464   O492    0.990   .     S
H465   O495    0.989   .     S
H466   C590    1.088   1_455 S
H467   C1110   1.084   .     S
H468   O482    0.990   .     S
H469   C518    1.086   .     S
H470   O485    0.991   .     S
H471   C9      1.086   1_565 S
H474   O489    0.990   .     S
O475   Zn508   1.959   .     S
O475   Zn510   1.932   .     S
O475   Zn511   1.935   .     S
O475   Zn509   1.939   .     S
O476   Zn509   1.926   .     S
O477   Zn511   1.935   .     S
O478   Zn510   1.930   .     S
O479   Zn508   1.923   .     S
O480   S503    1.502   .     D
O481   S503    1.504   .     D
O482   S503    1.682   .     S
O483   S504    1.501   .     D
O484   S504    1.504   .     D
O485   S66     1.683   1_565 S
O486   Zn508   1.932   .     S
O487   S505    1.504   .     D
O488   S505    1.502   .     D
O489   S505    1.682   .     S
O490   S506    1.502   .     D
O491   S1163   1.503   .     S
O492   S1163   1.683   .     S
O493   S507    1.502   .     D
O494   S507    1.501   .     D
O495   S507    1.682   .     S
O496   Zn511   1.935   .     S
O497   Zn509   1.927   .     S
O498   Zn510   1.936   .     S
O499   Zn511   1.929   .     S
O500   Zn508   1.922   .     S
O501   Zn509   1.942   .     S
O502   Zn510   1.937   .     S
S506   O1148   1.503   1_554 S
S506   O1149   1.683   1_554 S
S506   C1107   1.772   1_554 S
C512   C518    1.437   .     S
C512   O570    1.270   .     A
C512   O572    1.270   .     A
C513   C527    1.396   .     A
C513   C532    1.401   .     A
C513   H545    1.080   .     S
C514   S576    1.767   .     S
C514   C526    1.397   .     A
C514   C527    1.412   .     A
C515   O571    1.281   .     A
C515   O573    1.278   .     A
C515   C517    1.455   .     S
C516   C531    1.411   .     A
C516   C528    1.398   .     A
C516   C525    1.480   .     S
C517   C591    1.335   .     S
C517   H612    1.088   .     S
C519   C522    1.459   .     S
C519   C82     1.340   1_565 S
C519   S139    1.779   1_565 S
C520   C521    1.442   .     S
C521   O559    1.273   .     A
C521   O574    1.278   .     A
C522   O569    1.276   .     A
C522   O575    1.267   .     A
C523   C528    1.393   .     A
C523   C1186   1.413   .     S
C523   S1236   1.772   .     S
C524   O549    1.276   .     A
C524   C527    1.457   .     S
C524   O551    1.273   .     A
C525   O552    1.290   .     A
C525   O550    1.282   .     A
C526   C1190   1.399   1_554 S
C526   H1197   1.084   1_554 S
C528   H546    1.083   .     S
C529   S578    1.792   .     S
C529   C1180   1.413   1_554 S
C529   C1187   1.433   1_554 S
C530   C531    1.427   .     A
C530   C1186   1.433   .     S
C530   C1189   1.420   .     S
C531   C535    1.421   .     A
C532   C1187   1.420   1_554 S
C532   C1190   1.412   1_554 S
C533   C534    1.391   .     A
C533   C1189   1.412   .     S
C533   C1183   1.399   .     S
C534   C535    1.393   .     A
C534   H536    1.084   .     S
C535   S580    1.780   .     S
H537   O565    0.990   .     S
H538   O568    0.989   .     S
H540   C1183   1.084   .     S
H541   O555    0.990   .     S
H542   C591    1.086   .     S
H543   O558    0.991   .     S
H544   C82     1.086   1_565 S
H547   O562    0.990   .     S
O548   Zn581   1.959   .     S
O548   Zn583   1.932   .     S
O548   Zn584   1.935   .     S
O548   Zn582   1.939   .     S
O549   Zn582   1.926   .     S
O550   Zn584   1.935   .     S
O551   Zn583   1.930   .     S
O552   Zn581   1.923   .     S
O553   S576    1.502   .     D
O554   S576    1.504   .     D
O555   S576    1.682   .     S
O556   S577    1.501   .     D
O557   S577    1.504   .     D
O558   S139    1.683   1_565 S
O559   Zn581   1.932   .     S
O560   S578    1.504   .     D
O561   S578    1.502   .     D
O562   S578    1.682   .     S
O563   S579    1.502   .     D
O564   S1236   1.503   .     S
O565   S1236   1.683   .     S
O566   S580    1.502   .     D
O567   S580    1.501   .     D
O568   S580    1.682   .     S
O569   Zn584   1.935   .     S
O570   Zn582   1.927   .     S
O571   Zn583   1.936   .     S
O572   Zn584   1.929   .     S
O573   Zn581   1.922   .     S
O574   Zn582   1.942   .     S
O575   Zn583   1.937   .     S
S579   O1221   1.503   1_554 S
S579   O1222   1.683   1_554 S
S579   C1180   1.772   1_554 S
C585   C591    1.437   .     S
C585   O643    1.270   .     A
C585   O645    1.270   .     A
C586   C600    1.396   .     A
C586   C605    1.401   .     A
C586   H618    1.080   .     S
C587   S649    1.767   .     S
C587   C599    1.397   .     A
C587   C600    1.412   .     A
C588   O644    1.281   .     A
C588   O646    1.278   .     A
C588   C590    1.455   .     S
C589   C604    1.411   .     A
C589   C601    1.398   .     A
C589   C598    1.480   .     S
C590   C445    1.335   1_655 S
C590   H466    1.088   1_655 S
C592   C595    1.459   .     S
C592   C155    1.340   1_565 S
C592   S212    1.779   1_565 S
C593   C594    1.442   .     S
C594   O632    1.273   .     A
C594   O647    1.278   .     A
C595   O642    1.276   .     A
C595   O648    1.267   .     A
C596   C601    1.393   .     A
C596   C1259   1.413   .     S
C596   S1309   1.772   .     S
C597   O622    1.276   .     A
C597   C600    1.457   .     S
C597   O624    1.273   .     A
C598   O625    1.290   .     A
C598   O623    1.282   .     A
C599   C1263   1.399   1_554 S
C599   H1270   1.084   1_554 S
C601   H619    1.083   .     S
C602   S651    1.792   .     S
C602   C1253   1.413   1_554 S
C602   C1260   1.433   1_554 S
C603   C604    1.427   .     A
C603   C1259   1.433   .     S
C603   C1262   1.420   .     S
C604   C608    1.421   .     A
C605   C1260   1.420   1_554 S
C605   C1263   1.412   1_554 S
C606   C607    1.391   .     A
C606   C1262   1.412   .     S
C606   C1256   1.399   .     S
C607   C608    1.393   .     A
C607   H609    1.084   .     S
C608   S653    1.780   .     S
H610   O638    0.990   .     S
H611   O641    0.989   .     S
H613   C1256   1.084   .     S
H614   O628    0.990   .     S
H615   C445    1.086   1_655 S
H616   O631    0.991   .     S
H617   C155    1.086   1_565 S
H620   O635    0.990   .     S
O621   Zn654   1.959   .     S
O621   Zn656   1.932   .     S
O621   Zn657   1.935   .     S
O621   Zn655   1.939   .     S
O622   Zn655   1.926   .     S
O623   Zn657   1.935   .     S
O624   Zn656   1.930   .     S
O625   Zn654   1.923   .     S
O626   S649    1.502   .     D
O627   S649    1.504   .     D
O628   S649    1.682   .     S
O629   S650    1.501   .     D
O630   S650    1.504   .     D
O631   S212    1.683   1_565 S
O632   Zn654   1.932   .     S
O633   S651    1.504   .     D
O634   S651    1.502   .     D
O635   S651    1.682   .     S
O636   S652    1.502   .     D
O637   S1309   1.503   .     S
O638   S1309   1.683   .     S
O639   S653    1.502   .     D
O640   S653    1.501   .     D
O641   S653    1.682   .     S
O642   Zn657   1.935   .     S
O643   Zn655   1.927   .     S
O644   Zn656   1.936   .     S
O645   Zn657   1.929   .     S
O646   Zn654   1.922   .     S
O647   Zn655   1.942   .     S
O648   Zn656   1.937   .     S
S652   O1294   1.503   1_554 S
S652   O1295   1.683   1_554 S
S652   C1253   1.772   1_554 S
C658   C664    1.437   .     S
C658   O716    1.270   .     A
C658   O718    1.270   .     A
C659   C673    1.396   .     A
C659   C678    1.401   .     A
C659   H691    1.080   .     S
C660   S722    1.767   .     S
C660   C672    1.397   .     A
C660   C673    1.412   .     A
C661   O717    1.281   .     A
C661   O719    1.278   .     A
C661   C663    1.455   .     S
C662   C677    1.411   .     A
C662   C674    1.398   .     A
C662   C671    1.480   .     S
C663   C737    1.335   .     S
C663   H758    1.088   .     S
C664   C809    1.335   1_455 S
C664   H834    1.086   1_455 S
C665   C668    1.459   .     S
C665   C885    1.340   .     S
C665   S942    1.779   .     S
C666   C667    1.442   .     S
C666   C1103   1.340   1_545 S
C666   H1128   1.086   1_545 S
C667   O705    1.273   .     A
C667   O720    1.278   .     A
C668   O715    1.276   .     A
C668   O721    1.267   .     A
C669   C674    1.393   .     A
C669   C18     1.413   1_556 S
C669   S68     1.772   1_556 S
C670   O695    1.276   .     A
C670   C673    1.457   .     S
C670   O697    1.273   .     A
C671   O698    1.290   .     A
C671   O696    1.282   .     A
C674   H692    1.083   .     S
C675   S724    1.792   .     S
C676   C677    1.427   .     A
C676   C18     1.433   1_556 S
C676   C21     1.420   1_556 S
C677   C681    1.421   .     A
C679   C680    1.391   .     A
C679   C21     1.412   1_556 S
C679   C15     1.399   1_556 S
C680   C681    1.393   .     A
C680   H682    1.084   .     S
C681   S726    1.780   .     S
H683   O711    0.990   .     S
H684   O714    0.989   .     S
H685   C809    1.088   1_455 S
H686   C15     1.084   1_556 S
H687   O701    0.990   .     S
H688   C737    1.086   .     S
H689   O704    0.991   .     S
H690   C885    1.086   .     S
H693   O708    0.990   .     S
O694   Zn727   1.959   .     S
O694   Zn729   1.932   .     S
O694   Zn730   1.935   .     S
O694   Zn728   1.939   .     S
O695   Zn728   1.926   .     S
O696   Zn730   1.935   .     S
O697   Zn729   1.930   .     S
O698   Zn727   1.923   .     S
O699   S722    1.502   .     D
O700   S722    1.504   .     D
O701   S722    1.682   .     S
O702   S723    1.501   .     D
O703   S723    1.504   .     D
O704   S942    1.683   .     S
O705   Zn727   1.932   .     S
O706   S724    1.504   .     D
O707   S724    1.502   .     D
O708   S724    1.682   .     S
O709   S725    1.502   .     D
O710   S68     1.503   1_556 S
O711   S68     1.683   1_556 S
O712   S726    1.502   .     D
O713   S726    1.501   .     D
O714   S726    1.682   .     S
O715   Zn730   1.935   .     S
O716   Zn728   1.927   .     S
O717   Zn729   1.936   .     S
O718   Zn730   1.929   .     S
O719   Zn727   1.922   .     S
O720   Zn728   1.942   .     S
O721   Zn729   1.937   .     S
S723   O1142   1.683   1_545 S
S723   C1103   1.779   1_545 S
C731   C737    1.437   .     S
C731   O789    1.270   .     A
C731   O791    1.270   .     A
C732   C746    1.396   .     A
C732   C751    1.401   .     A
C732   H764    1.080   .     S
C733   S795    1.767   .     S
C733   C745    1.397   .     A
C733   C746    1.412   .     A
C734   O790    1.281   .     A
C734   O792    1.278   .     A
C734   C736    1.455   .     S
C735   C750    1.411   .     A
C735   C747    1.398   .     A
C735   C744    1.480   .     S
C736   C810    1.335   .     S
C736   H831    1.088   .     S
C738   C741    1.459   .     S
C738   C958    1.340   .     S
C738   S1015   1.779   .     S
C739   C740    1.442   .     S
C739   C1176   1.340   1_545 S
C739   H1201   1.086   1_545 S
C740   O778    1.273   .     A
C740   O793    1.278   .     A
C741   O788    1.276   .     A
C741   O794    1.267   .     A
C742   C747    1.393   .     A
C742   C91     1.413   1_556 S
C742   S141    1.772   1_556 S
C743   O768    1.276   .     A
C743   C746    1.457   .     S
C743   O770    1.273   .     A
C744   O771    1.290   .     A
C744   O769    1.282   .     A
C747   H765    1.083   .     S
C748   S797    1.792   .     S
C749   C750    1.427   .     A
C749   C91     1.433   1_556 S
C749   C94     1.420   1_556 S
C750   C754    1.421   .     A
C752   C753    1.391   .     A
C752   C94     1.412   1_556 S
C752   C88     1.399   1_556 S
C753   C754    1.393   .     A
C753   H755    1.084   .     S
C754   S799    1.780   .     S
H756   O784    0.990   .     S
H757   O787    0.989   .     S
H759   C88     1.084   1_556 S
H760   O774    0.990   .     S
H761   C810    1.086   .     S
H762   O777    0.991   .     S
H763   C958    1.086   .     S
H766   O781    0.990   .     S
O767   Zn800   1.959   .     S
O767   Zn802   1.932   .     S
O767   Zn803   1.935   .     S
O767   Zn801   1.939   .     S
O768   Zn801   1.926   .     S
O769   Zn803   1.935   .     S
O770   Zn802   1.930   .     S
O771   Zn800   1.923   .     S
O772   S795    1.502   .     D
O773   S795    1.504   .     D
O774   S795    1.682   .     S
O775   S796    1.501   .     D
O776   S796    1.504   .     D
O777   S1015   1.683   .     S
O778   Zn800   1.932   .     S
O779   S797    1.504   .     D
O780   S797    1.502   .     D
O781   S797    1.682   .     S
O782   S798    1.502   .     D
O783   S141    1.503   1_556 S
O784   S141    1.683   1_556 S
O785   S799    1.502   .     D
O786   S799    1.501   .     D
O787   S799    1.682   .     S
O788   Zn803   1.935   .     S
O789   Zn801   1.927   .     S
O790   Zn802   1.936   .     S
O791   Zn803   1.929   .     S
O792   Zn800   1.922   .     S
O793   Zn801   1.942   .     S
O794   Zn802   1.937   .     S
S796   O1215   1.683   1_545 S
S796   C1176   1.779   1_545 S
C804   C810    1.437   .     S
C804   O862    1.270   .     A
C804   O864    1.270   .     A
C805   C819    1.396   .     A
C805   C824    1.401   .     A
C805   H837    1.080   .     S
C806   S868    1.767   .     S
C806   C818    1.397   .     A
C806   C819    1.412   .     A
C807   O863    1.281   .     A
C807   O865    1.278   .     A
C807   C809    1.455   .     S
C808   C823    1.411   .     A
C808   C820    1.398   .     A
C808   C817    1.480   .     S
C809   C664    1.335   1_655 S
C809   H685    1.088   1_655 S
C811   C814    1.459   .     S
C811   C1031   1.340   .     S
C811   S1088   1.779   .     S
C812   C813    1.442   .     S
C812   C1249   1.340   1_545 S
C812   H1274   1.086   1_545 S
C813   O851    1.273   .     A
C813   O866    1.278   .     A
C814   O861    1.276   .     A
C814   O867    1.267   .     A
C815   C820    1.393   .     A
C815   C164    1.413   1_556 S
C815   S214    1.772   1_556 S
C816   O841    1.276   .     A
C816   C819    1.457   .     S
C816   O843    1.273   .     A
C817   O844    1.290   .     A
C817   O842    1.282   .     A
C820   H838    1.083   .     S
C821   S870    1.792   .     S
C822   C823    1.427   .     A
C822   C164    1.433   1_556 S
C822   C167    1.420   1_556 S
C823   C827    1.421   .     A
C825   C826    1.391   .     A
C825   C167    1.412   1_556 S
C825   C161    1.399   1_556 S
C826   C827    1.393   .     A
C826   H828    1.084   .     S
C827   S872    1.780   .     S
H829   O857    0.990   .     S
H830   O860    0.989   .     S
H832   C161    1.084   1_556 S
H833   O847    0.990   .     S
H834   C664    1.086   1_655 S
H835   O850    0.991   .     S
H836   C1031   1.086   .     S
H839   O854    0.990   .     S
O840   Zn873   1.959   .     S
O840   Zn875   1.932   .     S
O840   Zn876   1.935   .     S
O840   Zn874   1.939   .     S
O841   Zn874   1.926   .     S
O842   Zn876   1.935   .     S
O843   Zn875   1.930   .     S
O844   Zn873   1.923   .     S
O845   S868    1.502   .     D
O846   S868    1.504   .     D
O847   S868    1.682   .     S
O848   S869    1.501   .     D
O849   S869    1.504   .     D
O850   S1088   1.683   .     S
O851   Zn873   1.932   .     S
O852   S870    1.504   .     D
O853   S870    1.502   .     D
O854   S870    1.682   .     S
O855   S871    1.502   .     D
O856   S214    1.503   1_556 S
O857   S214    1.683   1_556 S
O858   S872    1.502   .     D
O859   S872    1.501   .     D
O860   S872    1.682   .     S
O861   Zn876   1.935   .     S
O862   Zn874   1.927   .     S
O863   Zn875   1.936   .     S
O864   Zn876   1.929   .     S
O865   Zn873   1.922   .     S
O866   Zn874   1.942   .     S
O867   Zn875   1.937   .     S
S869   O1288   1.683   1_545 S
S869   C1249   1.779   1_545 S
C877   C883    1.437   .     S
C877   O935    1.270   .     A
C877   O937    1.270   .     A
C878   C892    1.396   .     A
C878   C897    1.401   .     A
C878   H910    1.080   .     S
C879   S941    1.767   .     S
C879   C891    1.397   .     A
C879   C892    1.412   .     A
C880   O936    1.281   .     A
C880   O938    1.278   .     A
C880   C882    1.455   .     S
C881   C896    1.411   .     A
C881   C893    1.398   .     A
C881   C890    1.480   .     S
C882   C956    1.335   .     S
C882   H977    1.088   .     S
C883   C1028   1.335   1_455 S
C883   H1053   1.086   1_455 S
C884   C887    1.459   .     S
C884   C1104   1.340   .     S
C884   S1161   1.779   .     S
C885   C886    1.442   .     S
C886   O924    1.273   .     A
C886   O939    1.278   .     A
C887   O934    1.276   .     A
C887   O940    1.267   .     A
C888   C893    1.393   .     A
C888   C237    1.413   1_556 S
C888   S287    1.772   1_556 S
C889   O914    1.276   .     A
C889   C892    1.457   .     S
C889   O916    1.273   .     A
C890   O917    1.290   .     A
C890   O915    1.282   .     A
C893   H911    1.083   .     S
C894   S943    1.792   .     S
C895   C896    1.427   .     A
C895   C237    1.433   1_556 S
C895   C240    1.420   1_556 S
C896   C900    1.421   .     A
C898   C899    1.391   .     A
C898   C240    1.412   1_556 S
C898   C234    1.399   1_556 S
C899   C900    1.393   .     A
C899   H901    1.084   .     S
C900   S945    1.780   .     S
H902   O930    0.990   .     S
H903   O933    0.989   .     S
H904   C1028   1.088   1_455 S
H905   C234    1.084   1_556 S
H906   O920    0.990   .     S
H907   C956    1.086   .     S
H908   O923    0.991   .     S
H909   C1104   1.086   .     S
H912   O927    0.990   .     S
O913   Zn946   1.959   .     S
O913   Zn948   1.932   .     S
O913   Zn949   1.935   .     S
O913   Zn947   1.939   .     S
O914   Zn947   1.926   .     S
O915   Zn949   1.935   .     S
O916   Zn948   1.930   .     S
O917   Zn946   1.923   .     S
O918   S941    1.502   .     D
O919   S941    1.504   .     D
O920   S941    1.682   .     S
O921   S942    1.501   .     D
O922   S942    1.504   .     D
O923   S1161   1.683   .     S
O924   Zn946   1.932   .     S
O925   S943    1.504   .     D
O926   S943    1.502   .     D
O927   S943    1.682   .     S
O928   S944    1.502   .     D
O929   S287    1.503   1_556 S
O930   S287    1.683   1_556 S
O931   S945    1.502   .     D
O932   S945    1.501   .     D
O933   S945    1.682   .     S
O934   Zn949   1.935   .     S
O935   Zn947   1.927   .     S
O936   Zn948   1.936   .     S
O937   Zn949   1.929   .     S
O938   Zn946   1.922   .     S
O939   Zn947   1.942   .     S
O940   Zn948   1.937   .     S
C950   C956    1.437   .     S
C950   O1008   1.270   .     A
C950   O1010   1.270   .     A
C951   C965    1.396   .     A
C951   C970    1.401   .     A
C951   H983    1.080   .     S
C952   S1014   1.767   .     S
C952   C964    1.397   .     A
C952   C965    1.412   .     A
C953   O1009   1.281   .     A
C953   O1011   1.278   .     A
C953   C955    1.455   .     S
C954   C969    1.411   .     A
C954   C966    1.398   .     A
C954   C963    1.480   .     S
C955   C1029   1.335   .     S
C955   H1050   1.088   .     S
C957   C960    1.459   .     S
C957   C1177   1.340   .     S
C957   S1234   1.779   .     S
C958   C959    1.442   .     S
C959   O997    1.273   .     A
C959   O1012   1.278   .     A
C960   O1007   1.276   .     A
C960   O1013   1.267   .     A
C961   C966    1.393   .     A
C961   C310    1.413   1_556 S
C961   S360    1.772   1_556 S
C962   O987    1.276   .     A
C962   C965    1.457   .     S
C962   O989    1.273   .     A
C963   O990    1.290   .     A
C963   O988    1.282   .     A
C966   H984    1.083   .     S
C967   S1016   1.792   .     S
C968   C969    1.427   .     A
C968   C310    1.433   1_556 S
C968   C313    1.420   1_556 S
C969   C973    1.421   .     A
C971   C972    1.391   .     A
C971   C313    1.412   1_556 S
C971   C307    1.399   1_556 S
C972   C973    1.393   .     A
C972   H974    1.084   .     S
C973   S1018   1.780   .     S
H975   O1003   0.990   .     S
H976   O1006   0.989   .     S
H978   C307    1.084   1_556 S
H979   O993    0.990   .     S
H980   C1029   1.086   .     S
H981   O996    0.991   .     S
H982   C1177   1.086   .     S
H985   O1000   0.990   .     S
O986   Zn1019  1.959   .     S
O986   Zn1021  1.932   .     S
O986   Zn1022  1.935   .     S
O986   Zn1020  1.939   .     S
O987   Zn1020  1.926   .     S
O988   Zn1022  1.935   .     S
O989   Zn1021  1.930   .     S
O990   Zn1019  1.923   .     S
O991   S1014   1.502   .     D
O992   S1014   1.504   .     D
O993   S1014   1.682   .     S
O994   S1015   1.501   .     D
O995   S1015   1.504   .     D
O996   S1234   1.683   .     S
O997   Zn1019  1.932   .     S
O998   S1016   1.504   .     D
O999   S1016   1.502   .     D
O1000  S1016   1.682   .     S
O1001  S1017   1.502   .     D
O1002  S360    1.503   1_556 S
O1003  S360    1.683   1_556 S
O1004  S1018   1.502   .     D
O1005  S1018   1.501   .     D
O1006  S1018   1.682   .     S
O1007  Zn1022  1.935   .     S
O1008  Zn1020  1.927   .     S
O1009  Zn1021  1.936   .     S
O1010  Zn1022  1.929   .     S
O1011  Zn1019  1.922   .     S
O1012  Zn1020  1.942   .     S
O1013  Zn1021  1.937   .     S
C1023  C1029   1.437   .     S
C1023  O1081   1.270   .     A
C1023  O1083   1.270   .     A
C1024  C1038   1.396   .     A
C1024  C1043   1.401   .     A
C1024  H1056   1.080   .     S
C1025  S1087   1.767   .     S
C1025  C1037   1.397   .     A
C1025  C1038   1.412   .     A
C1026  O1082   1.281   .     A
C1026  O1084   1.278   .     A
C1026  C1028   1.455   .     S
C1027  C1042   1.411   .     A
C1027  C1039   1.398   .     A
C1027  C1036   1.480   .     S
C1028  C883    1.335   1_655 S
C1028  H904    1.088   1_655 S
C1030  C1033   1.459   .     S
C1030  C1250   1.340   .     S
C1030  S1307   1.779   .     S
C1031  C1032   1.442   .     S
C1032  O1070   1.273   .     A
C1032  O1085   1.278   .     A
C1033  O1080   1.276   .     A
C1033  O1086   1.267   .     A
C1034  C1039   1.393   .     A
C1034  C383    1.413   1_556 S
C1034  S433    1.772   1_556 S
C1035  O1060   1.276   .     A
C1035  C1038   1.457   .     S
C1035  O1062   1.273   .     A
C1036  O1063   1.290   .     A
C1036  O1061   1.282   .     A
C1039  H1057   1.083   .     S
C1040  S1089   1.792   .     S
C1041  C1042   1.427   .     A
C1041  C383    1.433   1_556 S
C1041  C386    1.420   1_556 S
C1042  C1046   1.421   .     A
C1044  C1045   1.391   .     A
C1044  C386    1.412   1_556 S
C1044  C380    1.399   1_556 S
C1045  C1046   1.393   .     A
C1045  H1047   1.084   .     S
C1046  S1091   1.780   .     S
H1048  O1076   0.990   .     S
H1049  O1079   0.989   .     S
H1051  C380    1.084   1_556 S
H1052  O1066   0.990   .     S
H1053  C883    1.086   1_655 S
H1054  O1069   0.991   .     S
H1055  C1250   1.086   .     S
H1058  O1073   0.990   .     S
O1059  Zn1092  1.959   .     S
O1059  Zn1094  1.932   .     S
O1059  Zn1095  1.935   .     S
O1059  Zn1093  1.939   .     S
O1060  Zn1093  1.926   .     S
O1061  Zn1095  1.935   .     S
O1062  Zn1094  1.930   .     S
O1063  Zn1092  1.923   .     S
O1064  S1087   1.502   .     D
O1065  S1087   1.504   .     D
O1066  S1087   1.682   .     S
O1067  S1088   1.501   .     D
O1068  S1088   1.504   .     D
O1069  S1307   1.683   .     S
O1070  Zn1092  1.932   .     S
O1071  S1089   1.504   .     D
O1072  S1089   1.502   .     D
O1073  S1089   1.682   .     S
O1074  S1090   1.502   .     D
O1075  S433    1.503   1_556 S
O1076  S433    1.683   1_556 S
O1077  S1091   1.502   .     D
O1078  S1091   1.501   .     D
O1079  S1091   1.682   .     S
O1080  Zn1095  1.935   .     S
O1081  Zn1093  1.927   .     S
O1082  Zn1094  1.936   .     S
O1083  Zn1095  1.929   .     S
O1084  Zn1092  1.922   .     S
O1085  Zn1093  1.942   .     S
O1086  Zn1094  1.937   .     S
C1096  C1102   1.437   .     S
C1096  O1154   1.270   .     A
C1096  O1156   1.270   .     A
C1097  C1111   1.396   .     A
C1097  C1116   1.401   .     A
C1097  H1129   1.080   .     S
C1098  S1160   1.767   .     S
C1098  C1110   1.397   .     A
C1098  C1111   1.412   .     A
C1099  O1155   1.281   .     A
C1099  O1157   1.278   .     A
C1099  C1101   1.455   .     S
C1100  C1115   1.411   .     A
C1100  C1112   1.398   .     A
C1100  C1109   1.480   .     S
C1101  C1175   1.335   .     S
C1101  H1196   1.088   .     S
C1102  C1247   1.335   1_455 S
C1102  H1272   1.086   1_455 S
C1103  C1106   1.459   .     S
C1103  C666    1.340   1_565 S
C1103  S723    1.779   1_565 S
C1104  C1105   1.442   .     S
C1105  O1143   1.273   .     A
C1105  O1158   1.278   .     A
C1106  O1153   1.276   .     A
C1106  O1159   1.267   .     A
C1107  C1112   1.393   .     A
C1107  C456    1.413   1_556 S
C1107  S506    1.772   1_556 S
C1108  O1133   1.276   .     A
C1108  C1111   1.457   .     S
C1108  O1135   1.273   .     A
C1109  O1136   1.290   .     A
C1109  O1134   1.282   .     A
C1112  H1130   1.083   .     S
C1113  S1162   1.792   .     S
C1114  C1115   1.427   .     A
C1114  C456    1.433   1_556 S
C1114  C459    1.420   1_556 S
C1115  C1119   1.421   .     A
C1117  C1118   1.391   .     A
C1117  C459    1.412   1_556 S
C1117  C453    1.399   1_556 S
C1118  C1119   1.393   .     A
C1118  H1120   1.084   .     S
C1119  S1164   1.780   .     S
H1121  O1149   0.990   .     S
H1122  O1152   0.989   .     S
H1123  C1247   1.088   1_455 S
H1124  C453    1.084   1_556 S
H1125  O1139   0.990   .     S
H1126  C1175   1.086   .     S
H1127  O1142   0.991   .     S
H1128  C666    1.086   1_565 S
H1131  O1146   0.990   .     S
O1132  Zn1165  1.959   .     S
O1132  Zn1167  1.932   .     S
O1132  Zn1168  1.935   .     S
O1132  Zn1166  1.939   .     S
O1133  Zn1166  1.926   .     S
O1134  Zn1168  1.935   .     S
O1135  Zn1167  1.930   .     S
O1136  Zn1165  1.923   .     S
O1137  S1160   1.502   .     D
O1138  S1160   1.504   .     D
O1139  S1160   1.682   .     S
O1140  S1161   1.501   .     D
O1141  S1161   1.504   .     D
O1142  S723    1.683   1_565 S
O1143  Zn1165  1.932   .     S
O1144  S1162   1.504   .     D
O1145  S1162   1.502   .     D
O1146  S1162   1.682   .     S
O1147  S1163   1.502   .     D
O1148  S506    1.503   1_556 S
O1149  S506    1.683   1_556 S
O1150  S1164   1.502   .     D
O1151  S1164   1.501   .     D
O1152  S1164   1.682   .     S
O1153  Zn1168  1.935   .     S
O1154  Zn1166  1.927   .     S
O1155  Zn1167  1.936   .     S
O1156  Zn1168  1.929   .     S
O1157  Zn1165  1.922   .     S
O1158  Zn1166  1.942   .     S
O1159  Zn1167  1.937   .     S
C1169  C1175   1.437   .     S
C1169  O1227   1.270   .     A
C1169  O1229   1.270   .     A
C1170  C1184   1.396   .     A
C1170  C1189   1.401   .     A
C1170  H1202   1.080   .     S
C1171  S1233   1.767   .     S
C1171  C1183   1.397   .     A
C1171  C1184   1.412   .     A
C1172  O1228   1.281   .     A
C1172  O1230   1.278   .     A
C1172  C1174   1.455   .     S
C1173  C1188   1.411   .     A
C1173  C1185   1.398   .     A
C1173  C1182   1.480   .     S
C1174  C1248   1.335   .     S
C1174  H1269   1.088   .     S
C1176  C1179   1.459   .     S
C1176  C739    1.340   1_565 S
C1176  S796    1.779   1_565 S
C1177  C1178   1.442   .     S
C1178  O1216   1.273   .     A
C1178  O1231   1.278   .     A
C1179  O1226   1.276   .     A
C1179  O1232   1.267   .     A
C1180  C1185   1.393   .     A
C1180  C529    1.413   1_556 S
C1180  S579    1.772   1_556 S
C1181  O1206   1.276   .     A
C1181  C1184   1.457   .     S
C1181  O1208   1.273   .     A
C1182  O1209   1.290   .     A
C1182  O1207   1.282   .     A
C1185  H1203   1.083   .     S
C1186  S1235   1.792   .     S
C1187  C1188   1.427   .     A
C1187  C529    1.433   1_556 S
C1187  C532    1.420   1_556 S
C1188  C1192   1.421   .     A
C1190  C1191   1.391   .     A
C1190  C532    1.412   1_556 S
C1190  C526    1.399   1_556 S
C1191  C1192   1.393   .     A
C1191  H1193   1.084   .     S
C1192  S1237   1.780   .     S
H1194  O1222   0.990   .     S
H1195  O1225   0.989   .     S
H1197  C526    1.084   1_556 S
H1198  O1212   0.990   .     S
H1199  C1248   1.086   .     S
H1200  O1215   0.991   .     S
H1201  C739    1.086   1_565 S
H1204  O1219   0.990   .     S
O1205  Zn1238  1.959   .     S
O1205  Zn1240  1.932   .     S
O1205  Zn1241  1.935   .     S
O1205  Zn1239  1.939   .     S
O1206  Zn1239  1.926   .     S
O1207  Zn1241  1.935   .     S
O1208  Zn1240  1.930   .     S
O1209  Zn1238  1.923   .     S
O1210  S1233   1.502   .     D
O1211  S1233   1.504   .     D
O1212  S1233   1.682   .     S
O1213  S1234   1.501   .     D
O1214  S1234   1.504   .     D
O1215  S796    1.683   1_565 S
O1216  Zn1238  1.932   .     S
O1217  S1235   1.504   .     D
O1218  S1235   1.502   .     D
O1219  S1235   1.682   .     S
O1220  S1236   1.502   .     D
O1221  S579    1.503   1_556 S
O1222  S579    1.683   1_556 S
O1223  S1237   1.502   .     D
O1224  S1237   1.501   .     D
O1225  S1237   1.682   .     S
O1226  Zn1241  1.935   .     S
O1227  Zn1239  1.927   .     S
O1228  Zn1240  1.936   .     S
O1229  Zn1241  1.929   .     S
O1230  Zn1238  1.922   .     S
O1231  Zn1239  1.942   .     S
O1232  Zn1240  1.937   .     S
C1242  C1248   1.437   .     S
C1242  O1300   1.270   .     A
C1242  O1302   1.270   .     A
C1243  C1257   1.396   .     A
C1243  C1262   1.401   .     A
C1243  H1275   1.080   .     S
C1244  S1306   1.767   .     S
C1244  C1256   1.397   .     A
C1244  C1257   1.412   .     A
C1245  O1301   1.281   .     A
C1245  O1303   1.278   .     A
C1245  C1247   1.455   .     S
C1246  C1261   1.411   .     A
C1246  C1258   1.398   .     A
C1246  C1255   1.480   .     S
C1247  C1102   1.335   1_655 S
C1247  H1123   1.088   1_655 S
C1249  C1252   1.459   .     S
C1249  C812    1.340   1_565 S
C1249  S869    1.779   1_565 S
C1250  C1251   1.442   .     S
C1251  O1289   1.273   .     A
C1251  O1304   1.278   .     A
C1252  O1299   1.276   .     A
C1252  O1305   1.267   .     A
C1253  C1258   1.393   .     A
C1253  C602    1.413   1_556 S
C1253  S652    1.772   1_556 S
C1254  O1279   1.276   .     A
C1254  C1257   1.457   .     S
C1254  O1281   1.273   .     A
C1255  O1282   1.290   .     A
C1255  O1280   1.282   .     A
C1258  H1276   1.083   .     S
C1259  S1308   1.792   .     S
C1260  C1261   1.427   .     A
C1260  C602    1.433   1_556 S
C1260  C605    1.420   1_556 S
C1261  C1265   1.421   .     A
C1263  C1264   1.391   .     A
C1263  C605    1.412   1_556 S
C1263  C599    1.399   1_556 S
C1264  C1265   1.393   .     A
C1264  H1266   1.084   .     S
C1265  S1310   1.780   .     S
H1267  O1295   0.990   .     S
H1268  O1298   0.989   .     S
H1270  C599    1.084   1_556 S
H1271  O1285   0.990   .     S
H1272  C1102   1.086   1_655 S
H1273  O1288   0.991   .     S
H1274  C812    1.086   1_565 S
H1277  O1292   0.990   .     S
O1278  Zn1311  1.959   .     S
O1278  Zn1313  1.932   .     S
O1278  Zn1314  1.935   .     S
O1278  Zn1312  1.939   .     S
O1279  Zn1312  1.926   .     S
O1280  Zn1314  1.935   .     S
O1281  Zn1313  1.930   .     S
O1282  Zn1311  1.923   .     S
O1283  S1306   1.502   .     D
O1284  S1306   1.504   .     D
O1285  S1306   1.682   .     S
O1286  S1307   1.501   .     D
O1287  S1307   1.504   .     D
O1288  S869    1.683   1_565 S
O1289  Zn1311  1.932   .     S
O1290  S1308   1.504   .     D
O1291  S1308   1.502   .     D
O1292  S1308   1.682   .     S
O1293  S1309   1.502   .     D
O1294  S652    1.503   1_556 S
O1295  S652    1.683   1_556 S
O1296  S1310   1.502   .     D
O1297  S1310   1.501   .     D
O1298  S1310   1.682   .     S
O1299  Zn1314  1.935   .     S
O1300  Zn1312  1.927   .     S
O1301  Zn1313  1.936   .     S
O1302  Zn1314  1.929   .     S
O1303  Zn1311  1.922   .     S
O1304  Zn1312  1.942   .     S
O1305  Zn1313  1.937   .     S
