data_str_m1_o10_o18_pcu_sym.189
_audit_creation_date              2020-01-03
_audit_creation_method            'Materials Studio'
_symmetry_space_group_name_H-M    'P1'
_symmetry_Int_Tables_number       1
_symmetry_cell_setting            triclinic
loop_
_symmetry_equiv_pos_as_xyz
  x,y,z
_cell_length_a                    32.5762
_cell_length_b                    32.6561
_cell_length_c                    35.4281
_cell_angle_alpha                 98.5957
_cell_angle_beta                  73.3470
_cell_angle_gamma                 98.5744
loop_
_atom_site_label
_atom_site_type_symbol
_atom_site_fract_x
_atom_site_fract_y
_atom_site_fract_z
_atom_site_U_iso_or_equiv
_atom_site_adp_type
_atom_site_occupancy
C1     C     0.05267   0.15972   0.25875   0.00000  Uiso   1.00
C2     C     0.17475   0.11149   0.46380   0.00000  Uiso   1.00
C3     C     0.19761   0.09135   0.48225   0.00000  Uiso   1.00
C4     C     0.28098   0.17351   0.24144   0.00000  Uiso   1.00
C5     C     0.19928   0.10674   0.02144   0.00000  Uiso   1.00
C6     C     0.17249   0.13801   0.04282   0.00000  Uiso   1.00
C7     C     0.22642   0.09157   0.04018   0.00000  Uiso   1.00
C8     C     0.22208   0.10314   0.08096   0.00000  Uiso   1.00
C9     C     0.17460   0.15372   0.08145   0.00000  Uiso   1.00
C10    C     0.32659   0.17828   0.24039   0.00000  Uiso   1.00
C11    C     0.00705   0.15597   0.26270   0.00000  Uiso   1.00
C12    C     0.11138   0.22815   0.42276   0.00000  Uiso   1.00
C13    C     0.18105   0.32242   0.24070   0.00000  Uiso   1.00
C14    C     0.14994   0.01250   0.26221   0.00000  Uiso   1.00
C15    C     0.15631   0.05617   0.25837   0.00000  Uiso   1.00
C16    C     0.17672   0.27765   0.24171   0.00000  Uiso   1.00
C17    C     0.18790   0.14520   0.14394   0.00000  Uiso   1.00
C18    C     0.14630   0.18863   0.35647   0.00000  Uiso   1.00
C19    C     0.13670   0.19672   0.40058   0.00000  Uiso   1.00
C20    C     0.19657   0.13487   0.10115   0.00000  Uiso   1.00
C21    C     0.09532   0.22904   0.46436   0.00000  Uiso   1.00
C22    C     0.01458   0.20248   0.05327   0.00000  Uiso   1.00
C23    C     0.15488   0.17367   0.42092   0.00000  Uiso   1.00
C24    C     0.29794   0.08110   0.01354   0.00000  Uiso   1.00
C25    C     0.31369   0.10090   0.47460   0.00000  Uiso   1.00
C26    C     0.02936   0.11115   0.46272   0.00000  Uiso   1.00
C27    C     0.02521   0.24953   0.23553   0.00000  Uiso   1.00
C28    C     0.32064   0.12098   0.31928   0.00000  Uiso   1.00
C29    C     0.01059   0.08281   0.31677   0.00000  Uiso   1.00
C30    C     0.02172   0.08100   0.35542   0.00000  Uiso   1.00
C31    C     0.10501   0.33010   0.32623   0.00000  Uiso   1.00
C32    C     0.27344   0.10279   0.11985   0.00000  Uiso   1.00
C33    C     0.23135   0.04903   0.41952   0.00000  Uiso   1.00
C34    C     0.13800   0.17239   0.46251   0.00000  Uiso   1.00
C35    C     0.03513   0.26463   0.47566   0.00000  Uiso   1.00
C36    C     0.03322   0.30985   0.46999   0.00000  Uiso   1.00
C37    C     0.00032   0.31281   0.44767   0.00000  Uiso   1.00
C38    C     0.14612   0.29373   0.39925   0.00000  Uiso   1.00
C39    C     0.22896   0.18249   0.40599   0.00000  Uiso   1.00
C40    C     0.24977   0.20652   0.36999   0.00000  Uiso   1.00
C41    C     0.29070   0.23383   0.37439   0.00000  Uiso   1.00
C42    C     0.06749   0.12731   0.09223   0.00000  Uiso   1.00
C43    C     0.10781   0.20042   0.48443   0.00000  Uiso   1.00
C44    C     0.15339   0.14637   0.48309   0.00000  Uiso   1.00
C45    C     0.14556   0.15412   0.02451   0.00000  Uiso   1.00
C46    C     0.10978   0.17584   0.04610   0.00000  Uiso   1.00
C47    C     0.09169   0.19990   0.02616   0.00000  Uiso   1.00
H48    H     0.21058   0.00357   0.22190   0.00000  Uiso   1.00
H49    H     0.30426   0.07907   0.45063   0.00000  Uiso   1.00
H50    H     0.29832   0.12991   0.47799   0.00000  Uiso   1.00
H51    H     0.04044   0.12954   0.48762   0.00000  Uiso   1.00
H52    H     0.03939   0.12955   0.43699   0.00000  Uiso   1.00
H53    H     0.04520   0.08202   0.45425   0.00000  Uiso   1.00
H54    H     0.01798   0.20591   0.18854   0.00000  Uiso   1.00
H55    H     0.05085   0.26932   0.21607   0.00000  Uiso   1.00
H56    H     0.03338   0.25064   0.26406   0.00000  Uiso   1.00
H57    H     0.32733   0.26239   0.24121   0.00000  Uiso   1.00
H58    H     0.28867   0.11673   0.34124   0.00000  Uiso   1.00
H59    H     0.15833   0.18026   0.09730   0.00000  Uiso   1.00
H60    H     0.00474   0.14979   0.33120   0.00000  Uiso   1.00
H61    H     0.32281   0.05408   0.31047   0.00000  Uiso   1.00
H62    H     0.04082   0.08371   0.29232   0.00000  Uiso   1.00
H63    H     0.04590   0.10757   0.36038   0.00000  Uiso   1.00
H64    H     0.03531   0.05146   0.35398   0.00000  Uiso   1.00
H65    H     0.32573   0.08216   0.38071   0.00000  Uiso   1.00
H66    H     0.08345   0.00747   0.27967   0.00000  Uiso   1.00
H67    H     0.07313   0.31429   0.34124   0.00000  Uiso   1.00
H68    H     0.10812   0.02960   0.33991   0.00000  Uiso   1.00
H69    H     0.13054   0.31377   0.33050   0.00000  Uiso   1.00
H70    H     0.17174   0.09843   0.43478   0.00000  Uiso   1.00
H71    H     0.21903   0.05993   0.11921   0.00000  Uiso   1.00
H72    H     0.30146   0.08464   0.11234   0.00000  Uiso   1.00
H73    H     0.26030   0.10692   0.15262   0.00000  Uiso   1.00
H74    H     0.28474   0.13395   0.10932   0.00000  Uiso   1.00
H75    H     0.20427   0.02801   0.47564   0.00000  Uiso   1.00
H76    H     0.20342   0.03814   0.40718   0.00000  Uiso   1.00
H77    H     0.25425   0.02509   0.40978   0.00000  Uiso   1.00
H78    H     0.24809   0.07858   0.40782   0.00000  Uiso   1.00
H79    H     0.00705   0.25558   0.00042   0.00000  Uiso   1.00
H80    H     0.03112   0.24327   0.44895   0.00000  Uiso   1.00
H81    H     0.06266   0.24190   0.07320   0.00000  Uiso   1.00
H82    H     0.02469   0.32854   0.49947   0.00000  Uiso   1.00
H83    H     0.06527   0.32360   0.45308   0.00000  Uiso   1.00
H84    H     0.01026   0.29631   0.41730   0.00000  Uiso   1.00
H85    H     0.33223   0.01256   0.44495   0.00000  Uiso   1.00
H86    H     0.30114   0.29906   0.46363   0.00000  Uiso   1.00
H87    H     0.09264   0.25874   0.38320   0.00000  Uiso   1.00
H88    H     0.17128   0.28288   0.37256   0.00000  Uiso   1.00
H89    H     0.15921   0.29874   0.42554   0.00000  Uiso   1.00
H90    H     0.13744   0.32408   0.39531   0.00000  Uiso   1.00
H91    H     0.25250   0.16259   0.40889   0.00000  Uiso   1.00
H92    H     0.32396   0.22478   0.06785   0.00000  Uiso   1.00
H93    H     0.22233   0.20473   0.43368   0.00000  Uiso   1.00
H94    H     0.25777   0.18420   0.34278   0.00000  Uiso   1.00
H95    H     0.22684   0.22681   0.36667   0.00000  Uiso   1.00
H96    H     0.28242   0.25809   0.39996   0.00000  Uiso   1.00
H97    H     0.30598   0.24938   0.34714   0.00000  Uiso   1.00
H98    H     0.31405   0.21484   0.37906   0.00000  Uiso   1.00
H99    H     0.07092   0.19189   0.10386   0.00000  Uiso   1.00
H100   H     0.05164   0.12542   0.12426   0.00000  Uiso   1.00
H101   H     0.09116   0.10412   0.08208   0.00000  Uiso   1.00
H102   H     0.04270   0.11923   0.07557   0.00000  Uiso   1.00
H103   H     0.00950   0.17716   0.07223   0.00000  Uiso   1.00
H104   H     0.00906   0.18934   0.02416   0.00000  Uiso   1.00
H105   H     0.31788   0.05586   0.01202   0.00000  Uiso   1.00
H106   H     0.30361   0.10470   0.03816   0.00000  Uiso   1.00
N107   N     0.05765   0.22398   0.04805   0.00000  Uiso   1.00
N108   N     0.02263   0.20725   0.21632   0.00000  Uiso   1.00
N109   N     0.10878   0.32862   0.28441   0.00000  Uiso   1.00
N110   N     0.24094   0.08018   0.10160   0.00000  Uiso   1.00
N111   N     0.21727   0.05483   0.46243   0.00000  Uiso   1.00
N112   N     0.10815   0.26361   0.40529   0.00000  Uiso   1.00
N113   N     0.08870   0.16906   0.08644   0.00000  Uiso   1.00
O114   O     0.16667   0.16667   0.25000   0.00000  Uiso   1.00
O115   O     0.15693   0.12393   0.16625   0.00000  Uiso   1.00
O116   O     0.12687   0.20646   0.33749   0.00000  Uiso   1.00
O117   O     0.21088   0.17493   0.15877   0.00000  Uiso   1.00
O118   O     0.17198   0.16135   0.33749   0.00000  Uiso   1.00
O119   O     0.25454   0.06278   0.01963   0.00000  Uiso   1.00
O120   O     0.31332   0.12378   0.28221   0.00000  Uiso   1.00
O121   O     0.07354   0.26222   0.48617   0.00000  Uiso   1.00
O122   O     0.19216   0.15580   0.40025   0.00000  Uiso   1.00
O123   O     0.17849   0.08101   0.27821   0.00000  Uiso   1.00
O124   O     0.14581   0.26136   0.26767   0.00000  Uiso   1.00
O125   O     0.07452   0.13251   0.23607   0.00000  Uiso   1.00
O126   O     0.26785   0.19179   0.21806   0.00000  Uiso   1.00
O127   O     0.06990   0.18960   0.27820   0.00000  Uiso   1.00
O128   O     0.25440   0.15277   0.26768   0.00000  Uiso   1.00
O129   O     0.13800   0.06903   0.23607   0.00000  Uiso   1.00
O130   O     0.20437   0.25527   0.21806   0.00000  Uiso   1.00
Zn131  Zn    0.19244   0.14090   0.28278   0.00000  Uiso   1.00
Zn132  Zn    0.13459   0.12378   0.22258   0.00000  Uiso   1.00
Zn133  Zn    0.21166   0.19664   0.21188   0.00000  Uiso   1.00
Zn134  Zn    0.12798   0.20535   0.28277   0.00000  Uiso   1.00
C135   C     0.38600   0.15972   0.25875   0.00000  Uiso   1.00
C136   C     0.50808   0.11149   0.46380   0.00000  Uiso   1.00
C137   C     0.53094   0.09135   0.48225   0.00000  Uiso   1.00
C138   C     0.61431   0.17351   0.24144   0.00000  Uiso   1.00
C139   C     0.53262   0.10674   0.02144   0.00000  Uiso   1.00
C140   C     0.50583   0.13801   0.04282   0.00000  Uiso   1.00
C141   C     0.55976   0.09157   0.04018   0.00000  Uiso   1.00
C142   C     0.55542   0.10314   0.08096   0.00000  Uiso   1.00
C143   C     0.50793   0.15372   0.08145   0.00000  Uiso   1.00
C144   C     0.65992   0.17828   0.24039   0.00000  Uiso   1.00
C145   C     0.34038   0.15597   0.26270   0.00000  Uiso   1.00
C146   C     0.44472   0.22815   0.42276   0.00000  Uiso   1.00
C147   C     0.51439   0.32242   0.24070   0.00000  Uiso   1.00
C148   C     0.48327   0.01250   0.26221   0.00000  Uiso   1.00
C149   C     0.48965   0.05617   0.25837   0.00000  Uiso   1.00
C150   C     0.51005   0.27765   0.24171   0.00000  Uiso   1.00
C151   C     0.52124   0.14520   0.14394   0.00000  Uiso   1.00
C152   C     0.47963   0.18863   0.35647   0.00000  Uiso   1.00
C153   C     0.47003   0.19672   0.40058   0.00000  Uiso   1.00
C154   C     0.52991   0.13487   0.10115   0.00000  Uiso   1.00
C155   C     0.42865   0.22904   0.46436   0.00000  Uiso   1.00
C156   C     0.34792   0.20248   0.05327   0.00000  Uiso   1.00
C157   C     0.48821   0.17367   0.42092   0.00000  Uiso   1.00
C158   C     0.63127   0.08110   0.01354   0.00000  Uiso   1.00
C159   C     0.64702   0.10090   0.47460   0.00000  Uiso   1.00
C160   C     0.36269   0.11115   0.46272   0.00000  Uiso   1.00
C161   C     0.35855   0.24953   0.23553   0.00000  Uiso   1.00
C162   C     0.65397   0.12098   0.31928   0.00000  Uiso   1.00
C163   C     0.34392   0.08281   0.31677   0.00000  Uiso   1.00
C164   C     0.35505   0.08100   0.35542   0.00000  Uiso   1.00
C165   C     0.43834   0.33010   0.32623   0.00000  Uiso   1.00
C166   C     0.60677   0.10279   0.11985   0.00000  Uiso   1.00
C167   C     0.56468   0.04903   0.41952   0.00000  Uiso   1.00
C168   C     0.47133   0.17239   0.46251   0.00000  Uiso   1.00
C169   C     0.36846   0.26463   0.47566   0.00000  Uiso   1.00
C170   C     0.36655   0.30985   0.46999   0.00000  Uiso   1.00
C171   C     0.33365   0.31281   0.44767   0.00000  Uiso   1.00
C172   C     0.47946   0.29373   0.39925   0.00000  Uiso   1.00
C173   C     0.56230   0.18249   0.40599   0.00000  Uiso   1.00
C174   C     0.58310   0.20652   0.36999   0.00000  Uiso   1.00
C175   C     0.62403   0.23383   0.37439   0.00000  Uiso   1.00
C176   C     0.40082   0.12731   0.09223   0.00000  Uiso   1.00
C177   C     0.44115   0.20042   0.48443   0.00000  Uiso   1.00
C178   C     0.48672   0.14637   0.48309   0.00000  Uiso   1.00
C179   C     0.47889   0.15412   0.02451   0.00000  Uiso   1.00
C180   C     0.44312   0.17584   0.04610   0.00000  Uiso   1.00
C181   C     0.42502   0.19990   0.02616   0.00000  Uiso   1.00
H182   H     0.54391   0.00357   0.22190   0.00000  Uiso   1.00
H183   H     0.63760   0.07907   0.45063   0.00000  Uiso   1.00
H184   H     0.63165   0.12991   0.47799   0.00000  Uiso   1.00
H185   H     0.37377   0.12954   0.48762   0.00000  Uiso   1.00
H186   H     0.37272   0.12955   0.43699   0.00000  Uiso   1.00
H187   H     0.37853   0.08202   0.45425   0.00000  Uiso   1.00
H188   H     0.35131   0.20591   0.18854   0.00000  Uiso   1.00
H189   H     0.38418   0.26932   0.21607   0.00000  Uiso   1.00
H190   H     0.36671   0.25064   0.26406   0.00000  Uiso   1.00
H191   H     0.66067   0.26239   0.24121   0.00000  Uiso   1.00
H192   H     0.62200   0.11673   0.34124   0.00000  Uiso   1.00
H193   H     0.49166   0.18026   0.09730   0.00000  Uiso   1.00
H194   H     0.33807   0.14979   0.33120   0.00000  Uiso   1.00
H195   H     0.65614   0.05408   0.31047   0.00000  Uiso   1.00
H196   H     0.37415   0.08371   0.29232   0.00000  Uiso   1.00
H197   H     0.37923   0.10757   0.36038   0.00000  Uiso   1.00
H198   H     0.36864   0.05146   0.35398   0.00000  Uiso   1.00
H199   H     0.65907   0.08216   0.38071   0.00000  Uiso   1.00
H200   H     0.41678   0.00747   0.27967   0.00000  Uiso   1.00
H201   H     0.40646   0.31429   0.34124   0.00000  Uiso   1.00
H202   H     0.44145   0.02960   0.33991   0.00000  Uiso   1.00
H203   H     0.46387   0.31377   0.33050   0.00000  Uiso   1.00
H204   H     0.50507   0.09843   0.43478   0.00000  Uiso   1.00
H205   H     0.55236   0.05993   0.11921   0.00000  Uiso   1.00
H206   H     0.63479   0.08464   0.11234   0.00000  Uiso   1.00
H207   H     0.59363   0.10692   0.15262   0.00000  Uiso   1.00
H208   H     0.61807   0.13395   0.10932   0.00000  Uiso   1.00
H209   H     0.53760   0.02801   0.47564   0.00000  Uiso   1.00
H210   H     0.53676   0.03814   0.40718   0.00000  Uiso   1.00
H211   H     0.58759   0.02509   0.40978   0.00000  Uiso   1.00
H212   H     0.58142   0.07858   0.40782   0.00000  Uiso   1.00
H213   H     0.34038   0.25558   0.00042   0.00000  Uiso   1.00
H214   H     0.36446   0.24327   0.44895   0.00000  Uiso   1.00
H215   H     0.39599   0.24190   0.07320   0.00000  Uiso   1.00
H216   H     0.35803   0.32854   0.49947   0.00000  Uiso   1.00
H217   H     0.39860   0.32360   0.45308   0.00000  Uiso   1.00
H218   H     0.34359   0.29631   0.41730   0.00000  Uiso   1.00
H219   H     0.66556   0.01256   0.44495   0.00000  Uiso   1.00
H220   H     0.63447   0.29906   0.46363   0.00000  Uiso   1.00
H221   H     0.42597   0.25874   0.38320   0.00000  Uiso   1.00
H222   H     0.50461   0.28288   0.37256   0.00000  Uiso   1.00
H223   H     0.49254   0.29874   0.42554   0.00000  Uiso   1.00
H224   H     0.47077   0.32408   0.39531   0.00000  Uiso   1.00
H225   H     0.58583   0.16259   0.40889   0.00000  Uiso   1.00
H226   H     0.65729   0.22478   0.06785   0.00000  Uiso   1.00
H227   H     0.55566   0.20473   0.43368   0.00000  Uiso   1.00
H228   H     0.59110   0.18420   0.34278   0.00000  Uiso   1.00
H229   H     0.56017   0.22681   0.36667   0.00000  Uiso   1.00
H230   H     0.61575   0.25809   0.39996   0.00000  Uiso   1.00
H231   H     0.63931   0.24938   0.34714   0.00000  Uiso   1.00
H232   H     0.64738   0.21484   0.37906   0.00000  Uiso   1.00
H233   H     0.40426   0.19189   0.10386   0.00000  Uiso   1.00
H234   H     0.38497   0.12542   0.12426   0.00000  Uiso   1.00
H235   H     0.42449   0.10412   0.08208   0.00000  Uiso   1.00
H236   H     0.37604   0.11923   0.07557   0.00000  Uiso   1.00
H237   H     0.34283   0.17716   0.07223   0.00000  Uiso   1.00
H238   H     0.34239   0.18934   0.02416   0.00000  Uiso   1.00
H239   H     0.65121   0.05586   0.01202   0.00000  Uiso   1.00
H240   H     0.63694   0.10470   0.03816   0.00000  Uiso   1.00
N241   N     0.39099   0.22398   0.04805   0.00000  Uiso   1.00
N242   N     0.35596   0.20725   0.21632   0.00000  Uiso   1.00
N243   N     0.44211   0.32862   0.28441   0.00000  Uiso   1.00
N244   N     0.57427   0.08018   0.10160   0.00000  Uiso   1.00
N245   N     0.55060   0.05483   0.46243   0.00000  Uiso   1.00
N246   N     0.44149   0.26361   0.40529   0.00000  Uiso   1.00
N247   N     0.42204   0.16906   0.08644   0.00000  Uiso   1.00
O248   O     0.50000   0.16667   0.25000   0.00000  Uiso   1.00
O249   O     0.49027   0.12393   0.16625   0.00000  Uiso   1.00
O250   O     0.46020   0.20646   0.33749   0.00000  Uiso   1.00
O251   O     0.54421   0.17493   0.15877   0.00000  Uiso   1.00
O252   O     0.50532   0.16135   0.33749   0.00000  Uiso   1.00
O253   O     0.58787   0.06278   0.01963   0.00000  Uiso   1.00
O254   O     0.64666   0.12378   0.28221   0.00000  Uiso   1.00
O255   O     0.40688   0.26222   0.48617   0.00000  Uiso   1.00
O256   O     0.52549   0.15580   0.40025   0.00000  Uiso   1.00
O257   O     0.51182   0.08101   0.27821   0.00000  Uiso   1.00
O258   O     0.47914   0.26136   0.26767   0.00000  Uiso   1.00
O259   O     0.40785   0.13251   0.23607   0.00000  Uiso   1.00
O260   O     0.60119   0.19179   0.21806   0.00000  Uiso   1.00
O261   O     0.40323   0.18960   0.27820   0.00000  Uiso   1.00
O262   O     0.58773   0.15277   0.26768   0.00000  Uiso   1.00
O263   O     0.47133   0.06903   0.23607   0.00000  Uiso   1.00
O264   O     0.53771   0.25527   0.21806   0.00000  Uiso   1.00
Zn265  Zn    0.52577   0.14090   0.28278   0.00000  Uiso   1.00
Zn266  Zn    0.46792   0.12378   0.22258   0.00000  Uiso   1.00
Zn267  Zn    0.54500   0.19664   0.21188   0.00000  Uiso   1.00
Zn268  Zn    0.46131   0.20535   0.28277   0.00000  Uiso   1.00
C269   C     0.71933   0.15972   0.25875   0.00000  Uiso   1.00
C270   C     0.84141   0.11149   0.46380   0.00000  Uiso   1.00
C271   C     0.86427   0.09135   0.48225   0.00000  Uiso   1.00
C272   C     0.94764   0.17351   0.24144   0.00000  Uiso   1.00
C273   C     0.86595   0.10674   0.02144   0.00000  Uiso   1.00
C274   C     0.83916   0.13801   0.04282   0.00000  Uiso   1.00
C275   C     0.89309   0.09157   0.04018   0.00000  Uiso   1.00
C276   C     0.88875   0.10314   0.08096   0.00000  Uiso   1.00
C277   C     0.84126   0.15372   0.08145   0.00000  Uiso   1.00
C278   C     0.99326   0.17828   0.24039   0.00000  Uiso   1.00
C279   C     0.67371   0.15597   0.26270   0.00000  Uiso   1.00
C280   C     0.77805   0.22815   0.42276   0.00000  Uiso   1.00
C281   C     0.84772   0.32242   0.24070   0.00000  Uiso   1.00
C282   C     0.81660   0.01250   0.26221   0.00000  Uiso   1.00
C283   C     0.82298   0.05617   0.25837   0.00000  Uiso   1.00
C284   C     0.84338   0.27765   0.24171   0.00000  Uiso   1.00
C285   C     0.85457   0.14520   0.14394   0.00000  Uiso   1.00
C286   C     0.81296   0.18863   0.35647   0.00000  Uiso   1.00
C287   C     0.80337   0.19672   0.40058   0.00000  Uiso   1.00
C288   C     0.86324   0.13487   0.10115   0.00000  Uiso   1.00
C289   C     0.76199   0.22904   0.46436   0.00000  Uiso   1.00
C290   C     0.68125   0.20248   0.05327   0.00000  Uiso   1.00
C291   C     0.82155   0.17367   0.42092   0.00000  Uiso   1.00
C292   C     0.96461   0.08110   0.01354   0.00000  Uiso   1.00
C293   C     0.98036   0.10090   0.47460   0.00000  Uiso   1.00
C294   C     0.69603   0.11115   0.46272   0.00000  Uiso   1.00
C295   C     0.69188   0.24953   0.23553   0.00000  Uiso   1.00
C296   C     0.98731   0.12098   0.31928   0.00000  Uiso   1.00
C297   C     0.67725   0.08281   0.31677   0.00000  Uiso   1.00
C298   C     0.68839   0.08100   0.35542   0.00000  Uiso   1.00
C299   C     0.77167   0.33010   0.32623   0.00000  Uiso   1.00
C300   C     0.94011   0.10279   0.11985   0.00000  Uiso   1.00
C301   C     0.89802   0.04903   0.41952   0.00000  Uiso   1.00
C302   C     0.80466   0.17239   0.46251   0.00000  Uiso   1.00
C303   C     0.70180   0.26463   0.47566   0.00000  Uiso   1.00
C304   C     0.69989   0.30985   0.46999   0.00000  Uiso   1.00
C305   C     0.66698   0.31281   0.44767   0.00000  Uiso   1.00
C306   C     0.81279   0.29373   0.39925   0.00000  Uiso   1.00
C307   C     0.89563   0.18249   0.40599   0.00000  Uiso   1.00
C308   C     0.91644   0.20652   0.36999   0.00000  Uiso   1.00
C309   C     0.95736   0.23383   0.37439   0.00000  Uiso   1.00
C310   C     0.73416   0.12731   0.09223   0.00000  Uiso   1.00
C311   C     0.77448   0.20042   0.48443   0.00000  Uiso   1.00
C312   C     0.82005   0.14637   0.48309   0.00000  Uiso   1.00
C313   C     0.81222   0.15412   0.02451   0.00000  Uiso   1.00
C314   C     0.77645   0.17584   0.04610   0.00000  Uiso   1.00
C315   C     0.75835   0.19990   0.02616   0.00000  Uiso   1.00
H316   H     0.87724   0.00357   0.22190   0.00000  Uiso   1.00
H317   H     0.97093   0.07907   0.45063   0.00000  Uiso   1.00
H318   H     0.96499   0.12991   0.47799   0.00000  Uiso   1.00
H319   H     0.70711   0.12954   0.48762   0.00000  Uiso   1.00
H320   H     0.70606   0.12955   0.43699   0.00000  Uiso   1.00
H321   H     0.71186   0.08202   0.45425   0.00000  Uiso   1.00
H322   H     0.68465   0.20591   0.18854   0.00000  Uiso   1.00
H323   H     0.71752   0.26932   0.21607   0.00000  Uiso   1.00
H324   H     0.70004   0.25064   0.26406   0.00000  Uiso   1.00
H325   H     0.99400   0.26239   0.24121   0.00000  Uiso   1.00
H326   H     0.95533   0.11673   0.34124   0.00000  Uiso   1.00
H327   H     0.82500   0.18026   0.09730   0.00000  Uiso   1.00
H328   H     0.67140   0.14979   0.33120   0.00000  Uiso   1.00
H329   H     0.98947   0.05408   0.31047   0.00000  Uiso   1.00
H330   H     0.70748   0.08371   0.29232   0.00000  Uiso   1.00
H331   H     0.71256   0.10757   0.36038   0.00000  Uiso   1.00
H332   H     0.70197   0.05146   0.35398   0.00000  Uiso   1.00
H333   H     0.99240   0.08216   0.38071   0.00000  Uiso   1.00
H334   H     0.75011   0.00747   0.27967   0.00000  Uiso   1.00
H335   H     0.73980   0.31429   0.34124   0.00000  Uiso   1.00
H336   H     0.77479   0.02960   0.33991   0.00000  Uiso   1.00
H337   H     0.79720   0.31377   0.33050   0.00000  Uiso   1.00
H338   H     0.83840   0.09843   0.43478   0.00000  Uiso   1.00
H339   H     0.88569   0.05993   0.11921   0.00000  Uiso   1.00
H340   H     0.96813   0.08464   0.11234   0.00000  Uiso   1.00
H341   H     0.92696   0.10692   0.15262   0.00000  Uiso   1.00
H342   H     0.95141   0.13395   0.10932   0.00000  Uiso   1.00
H343   H     0.87094   0.02801   0.47564   0.00000  Uiso   1.00
H344   H     0.87009   0.03814   0.40718   0.00000  Uiso   1.00
H345   H     0.92092   0.02509   0.40978   0.00000  Uiso   1.00
H346   H     0.91476   0.07858   0.40782   0.00000  Uiso   1.00
H347   H     0.67372   0.25558   0.00042   0.00000  Uiso   1.00
H348   H     0.69779   0.24327   0.44895   0.00000  Uiso   1.00
H349   H     0.72933   0.24190   0.07320   0.00000  Uiso   1.00
H350   H     0.69136   0.32854   0.49947   0.00000  Uiso   1.00
H351   H     0.73193   0.32360   0.45308   0.00000  Uiso   1.00
H352   H     0.67693   0.29631   0.41730   0.00000  Uiso   1.00
H353   H     0.99889   0.01256   0.44495   0.00000  Uiso   1.00
H354   H     0.96781   0.29906   0.46363   0.00000  Uiso   1.00
H355   H     0.75931   0.25874   0.38320   0.00000  Uiso   1.00
H356   H     0.83794   0.28288   0.37256   0.00000  Uiso   1.00
H357   H     0.82587   0.29874   0.42554   0.00000  Uiso   1.00
H358   H     0.80410   0.32408   0.39531   0.00000  Uiso   1.00
H359   H     0.91917   0.16259   0.40889   0.00000  Uiso   1.00
H360   H     0.99062   0.22478   0.06785   0.00000  Uiso   1.00
H361   H     0.88899   0.20473   0.43368   0.00000  Uiso   1.00
H362   H     0.92444   0.18420   0.34278   0.00000  Uiso   1.00
H363   H     0.89351   0.22681   0.36667   0.00000  Uiso   1.00
H364   H     0.94909   0.25809   0.39996   0.00000  Uiso   1.00
H365   H     0.97265   0.24938   0.34714   0.00000  Uiso   1.00
H366   H     0.98072   0.21484   0.37906   0.00000  Uiso   1.00
H367   H     0.73759   0.19189   0.10386   0.00000  Uiso   1.00
H368   H     0.71831   0.12542   0.12426   0.00000  Uiso   1.00
H369   H     0.75782   0.10412   0.08208   0.00000  Uiso   1.00
H370   H     0.70937   0.11923   0.07557   0.00000  Uiso   1.00
H371   H     0.67616   0.17716   0.07223   0.00000  Uiso   1.00
H372   H     0.67572   0.18934   0.02416   0.00000  Uiso   1.00
H373   H     0.98454   0.05586   0.01202   0.00000  Uiso   1.00
H374   H     0.97028   0.10470   0.03816   0.00000  Uiso   1.00
N375   N     0.72432   0.22398   0.04805   0.00000  Uiso   1.00
N376   N     0.68930   0.20725   0.21632   0.00000  Uiso   1.00
N377   N     0.77545   0.32862   0.28441   0.00000  Uiso   1.00
N378   N     0.90760   0.08018   0.10160   0.00000  Uiso   1.00
N379   N     0.88394   0.05483   0.46243   0.00000  Uiso   1.00
N380   N     0.77482   0.26361   0.40529   0.00000  Uiso   1.00
N381   N     0.75537   0.16906   0.08644   0.00000  Uiso   1.00
O382   O     0.83333   0.16667   0.25000   0.00000  Uiso   1.00
O383   O     0.82360   0.12393   0.16625   0.00000  Uiso   1.00
O384   O     0.79354   0.20646   0.33749   0.00000  Uiso   1.00
O385   O     0.87755   0.17493   0.15877   0.00000  Uiso   1.00
O386   O     0.83865   0.16135   0.33749   0.00000  Uiso   1.00
O387   O     0.92121   0.06278   0.01963   0.00000  Uiso   1.00
O388   O     0.97999   0.12378   0.28221   0.00000  Uiso   1.00
O389   O     0.74021   0.26222   0.48617   0.00000  Uiso   1.00
O390   O     0.85882   0.15580   0.40025   0.00000  Uiso   1.00
O391   O     0.84515   0.08101   0.27821   0.00000  Uiso   1.00
O392   O     0.81247   0.26136   0.26767   0.00000  Uiso   1.00
O393   O     0.74119   0.13251   0.23607   0.00000  Uiso   1.00
O394   O     0.93452   0.19179   0.21806   0.00000  Uiso   1.00
O395   O     0.73656   0.18960   0.27820   0.00000  Uiso   1.00
O396   O     0.92106   0.15277   0.26768   0.00000  Uiso   1.00
O397   O     0.80467   0.06903   0.23607   0.00000  Uiso   1.00
O398   O     0.87104   0.25527   0.21806   0.00000  Uiso   1.00
Zn399  Zn    0.85910   0.14090   0.28278   0.00000  Uiso   1.00
Zn400  Zn    0.80125   0.12378   0.22258   0.00000  Uiso   1.00
Zn401  Zn    0.87833   0.19664   0.21188   0.00000  Uiso   1.00
Zn402  Zn    0.79465   0.20535   0.28277   0.00000  Uiso   1.00
C403   C     0.05267   0.49306   0.25875   0.00000  Uiso   1.00
C404   C     0.17475   0.44482   0.46380   0.00000  Uiso   1.00
C405   C     0.19761   0.42469   0.48225   0.00000  Uiso   1.00
C406   C     0.28098   0.50684   0.24144   0.00000  Uiso   1.00
C407   C     0.19928   0.44008   0.02144   0.00000  Uiso   1.00
C408   C     0.17249   0.47135   0.04282   0.00000  Uiso   1.00
C409   C     0.22642   0.42491   0.04018   0.00000  Uiso   1.00
C410   C     0.22208   0.43648   0.08096   0.00000  Uiso   1.00
C411   C     0.17460   0.48705   0.08145   0.00000  Uiso   1.00
C412   C     0.32659   0.51161   0.24039   0.00000  Uiso   1.00
C413   C     0.00705   0.48930   0.26270   0.00000  Uiso   1.00
C414   C     0.11138   0.56149   0.42276   0.00000  Uiso   1.00
C415   C     0.18105   0.65576   0.24070   0.00000  Uiso   1.00
C416   C     0.14994   0.34584   0.26221   0.00000  Uiso   1.00
C417   C     0.15631   0.38950   0.25837   0.00000  Uiso   1.00
C418   C     0.17672   0.61098   0.24171   0.00000  Uiso   1.00
C419   C     0.18790   0.47853   0.14394   0.00000  Uiso   1.00
C420   C     0.14630   0.52197   0.35647   0.00000  Uiso   1.00
C421   C     0.13670   0.53006   0.40058   0.00000  Uiso   1.00
C422   C     0.19657   0.46820   0.10115   0.00000  Uiso   1.00
C423   C     0.09532   0.56238   0.46436   0.00000  Uiso   1.00
C424   C     0.01458   0.53581   0.05327   0.00000  Uiso   1.00
C425   C     0.15488   0.50700   0.42092   0.00000  Uiso   1.00
C426   C     0.29794   0.41443   0.01354   0.00000  Uiso   1.00
C427   C     0.31369   0.43423   0.47460   0.00000  Uiso   1.00
C428   C     0.02936   0.44449   0.46272   0.00000  Uiso   1.00
C429   C     0.02521   0.58286   0.23553   0.00000  Uiso   1.00
C430   C     0.32064   0.45431   0.31928   0.00000  Uiso   1.00
C431   C     0.01059   0.41614   0.31677   0.00000  Uiso   1.00
C432   C     0.02172   0.41433   0.35542   0.00000  Uiso   1.00
C433   C     0.10501   0.66343   0.32623   0.00000  Uiso   1.00
C434   C     0.27344   0.43612   0.11985   0.00000  Uiso   1.00
C435   C     0.23135   0.38236   0.41952   0.00000  Uiso   1.00
C436   C     0.13800   0.50572   0.46251   0.00000  Uiso   1.00
C437   C     0.03513   0.59796   0.47566   0.00000  Uiso   1.00
C438   C     0.03322   0.64319   0.46999   0.00000  Uiso   1.00
C439   C     0.00032   0.64615   0.44767   0.00000  Uiso   1.00
C440   C     0.14612   0.62706   0.39925   0.00000  Uiso   1.00
C441   C     0.22896   0.51583   0.40599   0.00000  Uiso   1.00
C442   C     0.24977   0.53985   0.36999   0.00000  Uiso   1.00
C443   C     0.29070   0.56716   0.37439   0.00000  Uiso   1.00
C444   C     0.06749   0.46064   0.09223   0.00000  Uiso   1.00
C445   C     0.10781   0.53375   0.48443   0.00000  Uiso   1.00
C446   C     0.15339   0.47970   0.48309   0.00000  Uiso   1.00
C447   C     0.14556   0.48746   0.02451   0.00000  Uiso   1.00
C448   C     0.10978   0.50917   0.04610   0.00000  Uiso   1.00
C449   C     0.09169   0.53323   0.02616   0.00000  Uiso   1.00
H450   H     0.21058   0.33691   0.22190   0.00000  Uiso   1.00
H451   H     0.30426   0.41241   0.45063   0.00000  Uiso   1.00
H452   H     0.29832   0.46324   0.47799   0.00000  Uiso   1.00
H453   H     0.04044   0.46287   0.48762   0.00000  Uiso   1.00
H454   H     0.03939   0.46288   0.43699   0.00000  Uiso   1.00
H455   H     0.04520   0.41536   0.45425   0.00000  Uiso   1.00
H456   H     0.01798   0.53924   0.18854   0.00000  Uiso   1.00
H457   H     0.05085   0.60265   0.21607   0.00000  Uiso   1.00
H458   H     0.03338   0.58397   0.26406   0.00000  Uiso   1.00
H459   H     0.32733   0.59572   0.24121   0.00000  Uiso   1.00
H460   H     0.28867   0.45006   0.34124   0.00000  Uiso   1.00
H461   H     0.15833   0.51359   0.09730   0.00000  Uiso   1.00
H462   H     0.00474   0.48312   0.33120   0.00000  Uiso   1.00
H463   H     0.32281   0.38742   0.31047   0.00000  Uiso   1.00
H464   H     0.04082   0.41704   0.29232   0.00000  Uiso   1.00
H465   H     0.04590   0.44091   0.36038   0.00000  Uiso   1.00
H466   H     0.03531   0.38479   0.35398   0.00000  Uiso   1.00
H467   H     0.32573   0.41549   0.38071   0.00000  Uiso   1.00
H468   H     0.08345   0.34080   0.27967   0.00000  Uiso   1.00
H469   H     0.07313   0.64762   0.34124   0.00000  Uiso   1.00
H470   H     0.10812   0.36294   0.33991   0.00000  Uiso   1.00
H471   H     0.13054   0.64710   0.33050   0.00000  Uiso   1.00
H472   H     0.17174   0.43177   0.43478   0.00000  Uiso   1.00
H473   H     0.21903   0.39326   0.11921   0.00000  Uiso   1.00
H474   H     0.30146   0.41797   0.11234   0.00000  Uiso   1.00
H475   H     0.26030   0.44026   0.15262   0.00000  Uiso   1.00
H476   H     0.28474   0.46728   0.10932   0.00000  Uiso   1.00
H477   H     0.20427   0.36135   0.47564   0.00000  Uiso   1.00
H478   H     0.20342   0.37147   0.40718   0.00000  Uiso   1.00
H479   H     0.25425   0.35842   0.40978   0.00000  Uiso   1.00
H480   H     0.24809   0.41192   0.40782   0.00000  Uiso   1.00
H481   H     0.00705   0.58891   0.00042   0.00000  Uiso   1.00
H482   H     0.03112   0.57660   0.44895   0.00000  Uiso   1.00
H483   H     0.06266   0.57523   0.07320   0.00000  Uiso   1.00
H484   H     0.02469   0.66187   0.49947   0.00000  Uiso   1.00
H485   H     0.06527   0.65693   0.45308   0.00000  Uiso   1.00
H486   H     0.01026   0.62965   0.41730   0.00000  Uiso   1.00
H487   H     0.33223   0.34589   0.44495   0.00000  Uiso   1.00
H488   H     0.30114   0.63239   0.46363   0.00000  Uiso   1.00
H489   H     0.09264   0.59207   0.38320   0.00000  Uiso   1.00
H490   H     0.17128   0.61621   0.37256   0.00000  Uiso   1.00
H491   H     0.15921   0.63207   0.42554   0.00000  Uiso   1.00
H492   H     0.13744   0.65741   0.39531   0.00000  Uiso   1.00
H493   H     0.25250   0.49592   0.40889   0.00000  Uiso   1.00
H494   H     0.32396   0.55812   0.06785   0.00000  Uiso   1.00
H495   H     0.22233   0.53806   0.43368   0.00000  Uiso   1.00
H496   H     0.25777   0.51753   0.34278   0.00000  Uiso   1.00
H497   H     0.22684   0.56015   0.36667   0.00000  Uiso   1.00
H498   H     0.28242   0.59142   0.39996   0.00000  Uiso   1.00
H499   H     0.30598   0.58271   0.34714   0.00000  Uiso   1.00
H500   H     0.31405   0.54817   0.37906   0.00000  Uiso   1.00
H501   H     0.07092   0.52522   0.10386   0.00000  Uiso   1.00
H502   H     0.05164   0.45875   0.12426   0.00000  Uiso   1.00
H503   H     0.09116   0.43745   0.08208   0.00000  Uiso   1.00
H504   H     0.04270   0.45256   0.07557   0.00000  Uiso   1.00
H505   H     0.00950   0.51049   0.07223   0.00000  Uiso   1.00
H506   H     0.00906   0.52268   0.02416   0.00000  Uiso   1.00
H507   H     0.31788   0.38919   0.01202   0.00000  Uiso   1.00
H508   H     0.30361   0.43804   0.03816   0.00000  Uiso   1.00
N509   N     0.05765   0.55731   0.04805   0.00000  Uiso   1.00
N510   N     0.02263   0.54058   0.21632   0.00000  Uiso   1.00
N511   N     0.10878   0.66195   0.28441   0.00000  Uiso   1.00
N512   N     0.24094   0.41351   0.10160   0.00000  Uiso   1.00
N513   N     0.21727   0.38816   0.46243   0.00000  Uiso   1.00
N514   N     0.10815   0.59694   0.40529   0.00000  Uiso   1.00
N515   N     0.08870   0.50239   0.08644   0.00000  Uiso   1.00
O516   O     0.16667   0.50000   0.25000   0.00000  Uiso   1.00
O517   O     0.15693   0.45726   0.16625   0.00000  Uiso   1.00
O518   O     0.12687   0.53979   0.33749   0.00000  Uiso   1.00
O519   O     0.21088   0.50826   0.15877   0.00000  Uiso   1.00
O520   O     0.17198   0.49468   0.33749   0.00000  Uiso   1.00
O521   O     0.25454   0.39612   0.01963   0.00000  Uiso   1.00
O522   O     0.31332   0.45711   0.28221   0.00000  Uiso   1.00
O523   O     0.07354   0.59555   0.48617   0.00000  Uiso   1.00
O524   O     0.19216   0.48913   0.40025   0.00000  Uiso   1.00
O525   O     0.17849   0.41434   0.27821   0.00000  Uiso   1.00
O526   O     0.14581   0.59469   0.26767   0.00000  Uiso   1.00
O527   O     0.07452   0.46584   0.23607   0.00000  Uiso   1.00
O528   O     0.26785   0.52512   0.21806   0.00000  Uiso   1.00
O529   O     0.06990   0.52293   0.27820   0.00000  Uiso   1.00
O530   O     0.25440   0.48610   0.26768   0.00000  Uiso   1.00
O531   O     0.13800   0.40236   0.23607   0.00000  Uiso   1.00
O532   O     0.20437   0.58860   0.21806   0.00000  Uiso   1.00
Zn533  Zn    0.19244   0.47423   0.28278   0.00000  Uiso   1.00
Zn534  Zn    0.13459   0.45711   0.22258   0.00000  Uiso   1.00
Zn535  Zn    0.21166   0.52997   0.21188   0.00000  Uiso   1.00
Zn536  Zn    0.12798   0.53868   0.28277   0.00000  Uiso   1.00
C537   C     0.38600   0.49306   0.25875   0.00000  Uiso   1.00
C538   C     0.50808   0.44482   0.46380   0.00000  Uiso   1.00
C539   C     0.53094   0.42469   0.48225   0.00000  Uiso   1.00
C540   C     0.61431   0.50684   0.24144   0.00000  Uiso   1.00
C541   C     0.53262   0.44008   0.02144   0.00000  Uiso   1.00
C542   C     0.50583   0.47135   0.04282   0.00000  Uiso   1.00
C543   C     0.55976   0.42491   0.04018   0.00000  Uiso   1.00
C544   C     0.55542   0.43648   0.08096   0.00000  Uiso   1.00
C545   C     0.50793   0.48705   0.08145   0.00000  Uiso   1.00
C546   C     0.65992   0.51161   0.24039   0.00000  Uiso   1.00
C547   C     0.34038   0.48930   0.26270   0.00000  Uiso   1.00
C548   C     0.44472   0.56149   0.42276   0.00000  Uiso   1.00
C549   C     0.51439   0.65576   0.24070   0.00000  Uiso   1.00
C550   C     0.48327   0.34584   0.26221   0.00000  Uiso   1.00
C551   C     0.48965   0.38950   0.25837   0.00000  Uiso   1.00
C552   C     0.51005   0.61098   0.24171   0.00000  Uiso   1.00
C553   C     0.52124   0.47853   0.14394   0.00000  Uiso   1.00
C554   C     0.47963   0.52197   0.35647   0.00000  Uiso   1.00
C555   C     0.47003   0.53006   0.40058   0.00000  Uiso   1.00
C556   C     0.52991   0.46820   0.10115   0.00000  Uiso   1.00
C557   C     0.42865   0.56238   0.46436   0.00000  Uiso   1.00
C558   C     0.34792   0.53581   0.05327   0.00000  Uiso   1.00
C559   C     0.48821   0.50700   0.42092   0.00000  Uiso   1.00
C560   C     0.63127   0.41443   0.01354   0.00000  Uiso   1.00
C561   C     0.64702   0.43423   0.47460   0.00000  Uiso   1.00
C562   C     0.36269   0.44449   0.46272   0.00000  Uiso   1.00
C563   C     0.35855   0.58286   0.23553   0.00000  Uiso   1.00
C564   C     0.65397   0.45431   0.31928   0.00000  Uiso   1.00
C565   C     0.34392   0.41614   0.31677   0.00000  Uiso   1.00
C566   C     0.35505   0.41433   0.35542   0.00000  Uiso   1.00
C567   C     0.43834   0.66343   0.32623   0.00000  Uiso   1.00
C568   C     0.60677   0.43612   0.11985   0.00000  Uiso   1.00
C569   C     0.56468   0.38236   0.41952   0.00000  Uiso   1.00
C570   C     0.47133   0.50572   0.46251   0.00000  Uiso   1.00
C571   C     0.36846   0.59796   0.47566   0.00000  Uiso   1.00
C572   C     0.36655   0.64319   0.46999   0.00000  Uiso   1.00
C573   C     0.33365   0.64615   0.44767   0.00000  Uiso   1.00
C574   C     0.47946   0.62706   0.39925   0.00000  Uiso   1.00
C575   C     0.56230   0.51583   0.40599   0.00000  Uiso   1.00
C576   C     0.58310   0.53985   0.36999   0.00000  Uiso   1.00
C577   C     0.62403   0.56716   0.37439   0.00000  Uiso   1.00
C578   C     0.40082   0.46064   0.09223   0.00000  Uiso   1.00
C579   C     0.44115   0.53375   0.48443   0.00000  Uiso   1.00
C580   C     0.48672   0.47970   0.48309   0.00000  Uiso   1.00
C581   C     0.47889   0.48746   0.02451   0.00000  Uiso   1.00
C582   C     0.44312   0.50917   0.04610   0.00000  Uiso   1.00
C583   C     0.42502   0.53323   0.02616   0.00000  Uiso   1.00
H584   H     0.54391   0.33691   0.22190   0.00000  Uiso   1.00
H585   H     0.63760   0.41241   0.45063   0.00000  Uiso   1.00
H586   H     0.63165   0.46324   0.47799   0.00000  Uiso   1.00
H587   H     0.37377   0.46287   0.48762   0.00000  Uiso   1.00
H588   H     0.37272   0.46288   0.43699   0.00000  Uiso   1.00
H589   H     0.37853   0.41536   0.45425   0.00000  Uiso   1.00
H590   H     0.35131   0.53924   0.18854   0.00000  Uiso   1.00
H591   H     0.38418   0.60265   0.21607   0.00000  Uiso   1.00
H592   H     0.36671   0.58397   0.26406   0.00000  Uiso   1.00
H593   H     0.66067   0.59572   0.24121   0.00000  Uiso   1.00
H594   H     0.62200   0.45006   0.34124   0.00000  Uiso   1.00
H595   H     0.49166   0.51359   0.09730   0.00000  Uiso   1.00
H596   H     0.33807   0.48312   0.33120   0.00000  Uiso   1.00
H597   H     0.65614   0.38742   0.31047   0.00000  Uiso   1.00
H598   H     0.37415   0.41704   0.29232   0.00000  Uiso   1.00
H599   H     0.37923   0.44091   0.36038   0.00000  Uiso   1.00
H600   H     0.36864   0.38479   0.35398   0.00000  Uiso   1.00
H601   H     0.65907   0.41549   0.38071   0.00000  Uiso   1.00
H602   H     0.41678   0.34080   0.27967   0.00000  Uiso   1.00
H603   H     0.40646   0.64762   0.34124   0.00000  Uiso   1.00
H604   H     0.44145   0.36294   0.33991   0.00000  Uiso   1.00
H605   H     0.46387   0.64710   0.33050   0.00000  Uiso   1.00
H606   H     0.50507   0.43177   0.43478   0.00000  Uiso   1.00
H607   H     0.55236   0.39326   0.11921   0.00000  Uiso   1.00
H608   H     0.63479   0.41797   0.11234   0.00000  Uiso   1.00
H609   H     0.59363   0.44026   0.15262   0.00000  Uiso   1.00
H610   H     0.61807   0.46728   0.10932   0.00000  Uiso   1.00
H611   H     0.53760   0.36135   0.47564   0.00000  Uiso   1.00
H612   H     0.53676   0.37147   0.40718   0.00000  Uiso   1.00
H613   H     0.58759   0.35842   0.40978   0.00000  Uiso   1.00
H614   H     0.58142   0.41192   0.40782   0.00000  Uiso   1.00
H615   H     0.34038   0.58891   0.00042   0.00000  Uiso   1.00
H616   H     0.36446   0.57660   0.44895   0.00000  Uiso   1.00
H617   H     0.39599   0.57523   0.07320   0.00000  Uiso   1.00
H618   H     0.35803   0.66187   0.49947   0.00000  Uiso   1.00
H619   H     0.39860   0.65693   0.45308   0.00000  Uiso   1.00
H620   H     0.34359   0.62965   0.41730   0.00000  Uiso   1.00
H621   H     0.66556   0.34589   0.44495   0.00000  Uiso   1.00
H622   H     0.63447   0.63239   0.46363   0.00000  Uiso   1.00
H623   H     0.42597   0.59207   0.38320   0.00000  Uiso   1.00
H624   H     0.50461   0.61621   0.37256   0.00000  Uiso   1.00
H625   H     0.49254   0.63207   0.42554   0.00000  Uiso   1.00
H626   H     0.47077   0.65741   0.39531   0.00000  Uiso   1.00
H627   H     0.58583   0.49592   0.40889   0.00000  Uiso   1.00
H628   H     0.65729   0.55812   0.06785   0.00000  Uiso   1.00
H629   H     0.55566   0.53806   0.43368   0.00000  Uiso   1.00
H630   H     0.59110   0.51753   0.34278   0.00000  Uiso   1.00
H631   H     0.56017   0.56015   0.36667   0.00000  Uiso   1.00
H632   H     0.61575   0.59142   0.39996   0.00000  Uiso   1.00
H633   H     0.63931   0.58271   0.34714   0.00000  Uiso   1.00
H634   H     0.64738   0.54817   0.37906   0.00000  Uiso   1.00
H635   H     0.40426   0.52522   0.10386   0.00000  Uiso   1.00
H636   H     0.38497   0.45875   0.12426   0.00000  Uiso   1.00
H637   H     0.42449   0.43745   0.08208   0.00000  Uiso   1.00
H638   H     0.37604   0.45256   0.07557   0.00000  Uiso   1.00
H639   H     0.34283   0.51049   0.07223   0.00000  Uiso   1.00
H640   H     0.34239   0.52268   0.02416   0.00000  Uiso   1.00
H641   H     0.65121   0.38919   0.01202   0.00000  Uiso   1.00
H642   H     0.63694   0.43804   0.03816   0.00000  Uiso   1.00
N643   N     0.39099   0.55731   0.04805   0.00000  Uiso   1.00
N644   N     0.35596   0.54058   0.21632   0.00000  Uiso   1.00
N645   N     0.44211   0.66195   0.28441   0.00000  Uiso   1.00
N646   N     0.57427   0.41351   0.10160   0.00000  Uiso   1.00
N647   N     0.55060   0.38816   0.46243   0.00000  Uiso   1.00
N648   N     0.44149   0.59694   0.40529   0.00000  Uiso   1.00
N649   N     0.42204   0.50239   0.08644   0.00000  Uiso   1.00
O650   O     0.50000   0.50000   0.25000   0.00000  Uiso   1.00
O651   O     0.49027   0.45726   0.16625   0.00000  Uiso   1.00
O652   O     0.46020   0.53979   0.33749   0.00000  Uiso   1.00
O653   O     0.54421   0.50826   0.15877   0.00000  Uiso   1.00
O654   O     0.50532   0.49468   0.33749   0.00000  Uiso   1.00
O655   O     0.58787   0.39612   0.01963   0.00000  Uiso   1.00
O656   O     0.64666   0.45711   0.28221   0.00000  Uiso   1.00
O657   O     0.40688   0.59555   0.48617   0.00000  Uiso   1.00
O658   O     0.52549   0.48913   0.40025   0.00000  Uiso   1.00
O659   O     0.51182   0.41434   0.27821   0.00000  Uiso   1.00
O660   O     0.47914   0.59469   0.26767   0.00000  Uiso   1.00
O661   O     0.40785   0.46584   0.23607   0.00000  Uiso   1.00
O662   O     0.60119   0.52512   0.21806   0.00000  Uiso   1.00
O663   O     0.40323   0.52293   0.27820   0.00000  Uiso   1.00
O664   O     0.58773   0.48610   0.26768   0.00000  Uiso   1.00
O665   O     0.47133   0.40236   0.23607   0.00000  Uiso   1.00
O666   O     0.53771   0.58860   0.21806   0.00000  Uiso   1.00
Zn667  Zn    0.52577   0.47423   0.28278   0.00000  Uiso   1.00
Zn668  Zn    0.46792   0.45711   0.22258   0.00000  Uiso   1.00
Zn669  Zn    0.54500   0.52997   0.21188   0.00000  Uiso   1.00
Zn670  Zn    0.46131   0.53868   0.28277   0.00000  Uiso   1.00
C671   C     0.71933   0.49306   0.25875   0.00000  Uiso   1.00
C672   C     0.84141   0.44482   0.46380   0.00000  Uiso   1.00
C673   C     0.86427   0.42469   0.48225   0.00000  Uiso   1.00
C674   C     0.94764   0.50684   0.24144   0.00000  Uiso   1.00
C675   C     0.86595   0.44008   0.02144   0.00000  Uiso   1.00
C676   C     0.83916   0.47135   0.04282   0.00000  Uiso   1.00
C677   C     0.89309   0.42491   0.04018   0.00000  Uiso   1.00
C678   C     0.88875   0.43648   0.08096   0.00000  Uiso   1.00
C679   C     0.84126   0.48705   0.08145   0.00000  Uiso   1.00
C680   C     0.99326   0.51161   0.24039   0.00000  Uiso   1.00
C681   C     0.67371   0.48930   0.26270   0.00000  Uiso   1.00
C682   C     0.77805   0.56149   0.42276   0.00000  Uiso   1.00
C683   C     0.84772   0.65576   0.24070   0.00000  Uiso   1.00
C684   C     0.81660   0.34584   0.26221   0.00000  Uiso   1.00
C685   C     0.82298   0.38950   0.25837   0.00000  Uiso   1.00
C686   C     0.84338   0.61098   0.24171   0.00000  Uiso   1.00
C687   C     0.85457   0.47853   0.14394   0.00000  Uiso   1.00
C688   C     0.81296   0.52197   0.35647   0.00000  Uiso   1.00
C689   C     0.80337   0.53006   0.40058   0.00000  Uiso   1.00
C690   C     0.86324   0.46820   0.10115   0.00000  Uiso   1.00
C691   C     0.76199   0.56238   0.46436   0.00000  Uiso   1.00
C692   C     0.68125   0.53581   0.05327   0.00000  Uiso   1.00
C693   C     0.82155   0.50700   0.42092   0.00000  Uiso   1.00
C694   C     0.96461   0.41443   0.01354   0.00000  Uiso   1.00
C695   C     0.98036   0.43423   0.47460   0.00000  Uiso   1.00
C696   C     0.69603   0.44449   0.46272   0.00000  Uiso   1.00
C697   C     0.69188   0.58286   0.23553   0.00000  Uiso   1.00
C698   C     0.98731   0.45431   0.31928   0.00000  Uiso   1.00
C699   C     0.67725   0.41614   0.31677   0.00000  Uiso   1.00
C700   C     0.68839   0.41433   0.35542   0.00000  Uiso   1.00
C701   C     0.77167   0.66343   0.32623   0.00000  Uiso   1.00
C702   C     0.94011   0.43612   0.11985   0.00000  Uiso   1.00
C703   C     0.89802   0.38236   0.41952   0.00000  Uiso   1.00
C704   C     0.80466   0.50572   0.46251   0.00000  Uiso   1.00
C705   C     0.70180   0.59796   0.47566   0.00000  Uiso   1.00
C706   C     0.69989   0.64319   0.46999   0.00000  Uiso   1.00
C707   C     0.66698   0.64615   0.44767   0.00000  Uiso   1.00
C708   C     0.81279   0.62706   0.39925   0.00000  Uiso   1.00
C709   C     0.89563   0.51583   0.40599   0.00000  Uiso   1.00
C710   C     0.91644   0.53985   0.36999   0.00000  Uiso   1.00
C711   C     0.95736   0.56716   0.37439   0.00000  Uiso   1.00
C712   C     0.73416   0.46064   0.09223   0.00000  Uiso   1.00
C713   C     0.77448   0.53375   0.48443   0.00000  Uiso   1.00
C714   C     0.82005   0.47970   0.48309   0.00000  Uiso   1.00
C715   C     0.81222   0.48746   0.02451   0.00000  Uiso   1.00
C716   C     0.77645   0.50917   0.04610   0.00000  Uiso   1.00
C717   C     0.75835   0.53323   0.02616   0.00000  Uiso   1.00
H718   H     0.87724   0.33691   0.22190   0.00000  Uiso   1.00
H719   H     0.97093   0.41241   0.45063   0.00000  Uiso   1.00
H720   H     0.96499   0.46324   0.47799   0.00000  Uiso   1.00
H721   H     0.70711   0.46287   0.48762   0.00000  Uiso   1.00
H722   H     0.70606   0.46288   0.43699   0.00000  Uiso   1.00
H723   H     0.71186   0.41536   0.45425   0.00000  Uiso   1.00
H724   H     0.68465   0.53924   0.18854   0.00000  Uiso   1.00
H725   H     0.71752   0.60265   0.21607   0.00000  Uiso   1.00
H726   H     0.70004   0.58397   0.26406   0.00000  Uiso   1.00
H727   H     0.99400   0.59572   0.24121   0.00000  Uiso   1.00
H728   H     0.95533   0.45006   0.34124   0.00000  Uiso   1.00
H729   H     0.82500   0.51359   0.09730   0.00000  Uiso   1.00
H730   H     0.67140   0.48312   0.33120   0.00000  Uiso   1.00
H731   H     0.98947   0.38742   0.31047   0.00000  Uiso   1.00
H732   H     0.70748   0.41704   0.29232   0.00000  Uiso   1.00
H733   H     0.71256   0.44091   0.36038   0.00000  Uiso   1.00
H734   H     0.70197   0.38479   0.35398   0.00000  Uiso   1.00
H735   H     0.99240   0.41549   0.38071   0.00000  Uiso   1.00
H736   H     0.75011   0.34080   0.27967   0.00000  Uiso   1.00
H737   H     0.73980   0.64762   0.34124   0.00000  Uiso   1.00
H738   H     0.77479   0.36294   0.33991   0.00000  Uiso   1.00
H739   H     0.79720   0.64710   0.33050   0.00000  Uiso   1.00
H740   H     0.83840   0.43177   0.43478   0.00000  Uiso   1.00
H741   H     0.88569   0.39326   0.11921   0.00000  Uiso   1.00
H742   H     0.96813   0.41797   0.11234   0.00000  Uiso   1.00
H743   H     0.92696   0.44026   0.15262   0.00000  Uiso   1.00
H744   H     0.95141   0.46728   0.10932   0.00000  Uiso   1.00
H745   H     0.87094   0.36135   0.47564   0.00000  Uiso   1.00
H746   H     0.87009   0.37147   0.40718   0.00000  Uiso   1.00
H747   H     0.92092   0.35842   0.40978   0.00000  Uiso   1.00
H748   H     0.91476   0.41192   0.40782   0.00000  Uiso   1.00
H749   H     0.67372   0.58891   0.00042   0.00000  Uiso   1.00
H750   H     0.69779   0.57660   0.44895   0.00000  Uiso   1.00
H751   H     0.72933   0.57523   0.07320   0.00000  Uiso   1.00
H752   H     0.69136   0.66187   0.49947   0.00000  Uiso   1.00
H753   H     0.73193   0.65693   0.45308   0.00000  Uiso   1.00
H754   H     0.67693   0.62965   0.41730   0.00000  Uiso   1.00
H755   H     0.99889   0.34589   0.44495   0.00000  Uiso   1.00
H756   H     0.96781   0.63239   0.46363   0.00000  Uiso   1.00
H757   H     0.75931   0.59207   0.38320   0.00000  Uiso   1.00
H758   H     0.83794   0.61621   0.37256   0.00000  Uiso   1.00
H759   H     0.82587   0.63207   0.42554   0.00000  Uiso   1.00
H760   H     0.80410   0.65741   0.39531   0.00000  Uiso   1.00
H761   H     0.91917   0.49592   0.40889   0.00000  Uiso   1.00
H762   H     0.99062   0.55812   0.06785   0.00000  Uiso   1.00
H763   H     0.88899   0.53806   0.43368   0.00000  Uiso   1.00
H764   H     0.92444   0.51753   0.34278   0.00000  Uiso   1.00
H765   H     0.89351   0.56015   0.36667   0.00000  Uiso   1.00
H766   H     0.94909   0.59142   0.39996   0.00000  Uiso   1.00
H767   H     0.97265   0.58271   0.34714   0.00000  Uiso   1.00
H768   H     0.98072   0.54817   0.37906   0.00000  Uiso   1.00
H769   H     0.73759   0.52522   0.10386   0.00000  Uiso   1.00
H770   H     0.71831   0.45875   0.12426   0.00000  Uiso   1.00
H771   H     0.75782   0.43745   0.08208   0.00000  Uiso   1.00
H772   H     0.70937   0.45256   0.07557   0.00000  Uiso   1.00
H773   H     0.67616   0.51049   0.07223   0.00000  Uiso   1.00
H774   H     0.67572   0.52268   0.02416   0.00000  Uiso   1.00
H775   H     0.98454   0.38919   0.01202   0.00000  Uiso   1.00
H776   H     0.97028   0.43804   0.03816   0.00000  Uiso   1.00
N777   N     0.72432   0.55731   0.04805   0.00000  Uiso   1.00
N778   N     0.68930   0.54058   0.21632   0.00000  Uiso   1.00
N779   N     0.77545   0.66195   0.28441   0.00000  Uiso   1.00
N780   N     0.90760   0.41351   0.10160   0.00000  Uiso   1.00
N781   N     0.88394   0.38816   0.46243   0.00000  Uiso   1.00
N782   N     0.77482   0.59694   0.40529   0.00000  Uiso   1.00
N783   N     0.75537   0.50239   0.08644   0.00000  Uiso   1.00
O784   O     0.83333   0.50000   0.25000   0.00000  Uiso   1.00
O785   O     0.82360   0.45726   0.16625   0.00000  Uiso   1.00
O786   O     0.79354   0.53979   0.33749   0.00000  Uiso   1.00
O787   O     0.87755   0.50826   0.15877   0.00000  Uiso   1.00
O788   O     0.83865   0.49468   0.33749   0.00000  Uiso   1.00
O789   O     0.92121   0.39612   0.01963   0.00000  Uiso   1.00
O790   O     0.97999   0.45711   0.28221   0.00000  Uiso   1.00
O791   O     0.74021   0.59555   0.48617   0.00000  Uiso   1.00
O792   O     0.85882   0.48913   0.40025   0.00000  Uiso   1.00
O793   O     0.84515   0.41434   0.27821   0.00000  Uiso   1.00
O794   O     0.81247   0.59469   0.26767   0.00000  Uiso   1.00
O795   O     0.74119   0.46584   0.23607   0.00000  Uiso   1.00
O796   O     0.93452   0.52512   0.21806   0.00000  Uiso   1.00
O797   O     0.73656   0.52293   0.27820   0.00000  Uiso   1.00
O798   O     0.92106   0.48610   0.26768   0.00000  Uiso   1.00
O799   O     0.80467   0.40236   0.23607   0.00000  Uiso   1.00
O800   O     0.87104   0.58860   0.21806   0.00000  Uiso   1.00
Zn801  Zn    0.85910   0.47423   0.28278   0.00000  Uiso   1.00
Zn802  Zn    0.80125   0.45711   0.22258   0.00000  Uiso   1.00
Zn803  Zn    0.87833   0.52997   0.21188   0.00000  Uiso   1.00
Zn804  Zn    0.79465   0.53868   0.28277   0.00000  Uiso   1.00
C805   C     0.05267   0.82639   0.25875   0.00000  Uiso   1.00
C806   C     0.17475   0.77815   0.46380   0.00000  Uiso   1.00
C807   C     0.19761   0.75802   0.48225   0.00000  Uiso   1.00
C808   C     0.28098   0.84018   0.24144   0.00000  Uiso   1.00
C809   C     0.19928   0.77341   0.02144   0.00000  Uiso   1.00
C810   C     0.17249   0.80468   0.04282   0.00000  Uiso   1.00
C811   C     0.22642   0.75824   0.04018   0.00000  Uiso   1.00
C812   C     0.22208   0.76981   0.08096   0.00000  Uiso   1.00
C813   C     0.17460   0.82039   0.08145   0.00000  Uiso   1.00
C814   C     0.32659   0.84495   0.24039   0.00000  Uiso   1.00
C815   C     0.00705   0.82263   0.26270   0.00000  Uiso   1.00
C816   C     0.11138   0.89482   0.42276   0.00000  Uiso   1.00
C817   C     0.18105   0.98909   0.24070   0.00000  Uiso   1.00
C818   C     0.14994   0.67917   0.26221   0.00000  Uiso   1.00
C819   C     0.15631   0.72284   0.25837   0.00000  Uiso   1.00
C820   C     0.17672   0.94431   0.24171   0.00000  Uiso   1.00
C821   C     0.18790   0.81186   0.14394   0.00000  Uiso   1.00
C822   C     0.14630   0.85530   0.35647   0.00000  Uiso   1.00
C823   C     0.13670   0.86339   0.40058   0.00000  Uiso   1.00
C824   C     0.19657   0.80153   0.10115   0.00000  Uiso   1.00
C825   C     0.09532   0.89571   0.46436   0.00000  Uiso   1.00
C826   C     0.01458   0.86915   0.05327   0.00000  Uiso   1.00
C827   C     0.15488   0.84034   0.42092   0.00000  Uiso   1.00
C828   C     0.29794   0.74776   0.01354   0.00000  Uiso   1.00
C829   C     0.31369   0.76757   0.47460   0.00000  Uiso   1.00
C830   C     0.02936   0.77782   0.46272   0.00000  Uiso   1.00
C831   C     0.02521   0.91620   0.23553   0.00000  Uiso   1.00
C832   C     0.32064   0.78765   0.31928   0.00000  Uiso   1.00
C833   C     0.01059   0.74947   0.31677   0.00000  Uiso   1.00
C834   C     0.02172   0.74766   0.35542   0.00000  Uiso   1.00
C835   C     0.10501   0.99677   0.32623   0.00000  Uiso   1.00
C836   C     0.27344   0.76946   0.11985   0.00000  Uiso   1.00
C837   C     0.23135   0.71570   0.41952   0.00000  Uiso   1.00
C838   C     0.13800   0.83906   0.46251   0.00000  Uiso   1.00
C839   C     0.03513   0.93130   0.47566   0.00000  Uiso   1.00
C840   C     0.03322   0.97652   0.46999   0.00000  Uiso   1.00
C841   C     0.00032   0.97948   0.44767   0.00000  Uiso   1.00
C842   C     0.14612   0.96040   0.39925   0.00000  Uiso   1.00
C843   C     0.22896   0.84916   0.40599   0.00000  Uiso   1.00
C844   C     0.24977   0.87319   0.36999   0.00000  Uiso   1.00
C845   C     0.29070   0.90049   0.37439   0.00000  Uiso   1.00
C846   C     0.06749   0.79398   0.09223   0.00000  Uiso   1.00
C847   C     0.10781   0.86709   0.48443   0.00000  Uiso   1.00
C848   C     0.15339   0.81303   0.48309   0.00000  Uiso   1.00
C849   C     0.14556   0.82079   0.02451   0.00000  Uiso   1.00
C850   C     0.10978   0.84251   0.04610   0.00000  Uiso   1.00
C851   C     0.09169   0.86656   0.02616   0.00000  Uiso   1.00
H852   H     0.21058   0.67024   0.22190   0.00000  Uiso   1.00
H853   H     0.30426   0.74574   0.45063   0.00000  Uiso   1.00
H854   H     0.29832   0.79657   0.47799   0.00000  Uiso   1.00
H855   H     0.04044   0.79621   0.48762   0.00000  Uiso   1.00
H856   H     0.03939   0.79622   0.43699   0.00000  Uiso   1.00
H857   H     0.04520   0.74869   0.45425   0.00000  Uiso   1.00
H858   H     0.01798   0.87258   0.18854   0.00000  Uiso   1.00
H859   H     0.05085   0.93599   0.21607   0.00000  Uiso   1.00
H860   H     0.03338   0.91731   0.26406   0.00000  Uiso   1.00
H861   H     0.32733   0.92906   0.24121   0.00000  Uiso   1.00
H862   H     0.28867   0.78340   0.34124   0.00000  Uiso   1.00
H863   H     0.15833   0.84693   0.09730   0.00000  Uiso   1.00
H864   H     0.00474   0.81645   0.33120   0.00000  Uiso   1.00
H865   H     0.32281   0.72075   0.31047   0.00000  Uiso   1.00
H866   H     0.04082   0.75037   0.29232   0.00000  Uiso   1.00
H867   H     0.04590   0.77424   0.36038   0.00000  Uiso   1.00
H868   H     0.03531   0.71812   0.35398   0.00000  Uiso   1.00
H869   H     0.32573   0.74882   0.38071   0.00000  Uiso   1.00
H870   H     0.08345   0.67413   0.27967   0.00000  Uiso   1.00
H871   H     0.07313   0.98095   0.34124   0.00000  Uiso   1.00
H872   H     0.10812   0.69627   0.33991   0.00000  Uiso   1.00
H873   H     0.13054   0.98044   0.33050   0.00000  Uiso   1.00
H874   H     0.17174   0.76510   0.43478   0.00000  Uiso   1.00
H875   H     0.21903   0.72660   0.11921   0.00000  Uiso   1.00
H876   H     0.30146   0.75130   0.11234   0.00000  Uiso   1.00
H877   H     0.26030   0.77359   0.15262   0.00000  Uiso   1.00
H878   H     0.28474   0.80061   0.10932   0.00000  Uiso   1.00
H879   H     0.20427   0.69468   0.47564   0.00000  Uiso   1.00
H880   H     0.20342   0.70480   0.40718   0.00000  Uiso   1.00
H881   H     0.25425   0.69176   0.40978   0.00000  Uiso   1.00
H882   H     0.24809   0.74525   0.40782   0.00000  Uiso   1.00
H883   H     0.00705   0.92224   0.00042   0.00000  Uiso   1.00
H884   H     0.03112   0.90994   0.44895   0.00000  Uiso   1.00
H885   H     0.06266   0.90857   0.07320   0.00000  Uiso   1.00
H886   H     0.02469   0.99521   0.49947   0.00000  Uiso   1.00
H887   H     0.06527   0.99027   0.45308   0.00000  Uiso   1.00
H888   H     0.01026   0.96298   0.41730   0.00000  Uiso   1.00
H889   H     0.33223   0.67922   0.44495   0.00000  Uiso   1.00
H890   H     0.30114   0.96573   0.46363   0.00000  Uiso   1.00
H891   H     0.09264   0.92540   0.38320   0.00000  Uiso   1.00
H892   H     0.17128   0.94955   0.37256   0.00000  Uiso   1.00
H893   H     0.15921   0.96540   0.42554   0.00000  Uiso   1.00
H894   H     0.13744   0.99075   0.39531   0.00000  Uiso   1.00
H895   H     0.25250   0.82926   0.40889   0.00000  Uiso   1.00
H896   H     0.32396   0.89145   0.06785   0.00000  Uiso   1.00
H897   H     0.22233   0.87139   0.43368   0.00000  Uiso   1.00
H898   H     0.25777   0.85087   0.34278   0.00000  Uiso   1.00
H899   H     0.22684   0.89348   0.36667   0.00000  Uiso   1.00
H900   H     0.28242   0.92475   0.39996   0.00000  Uiso   1.00
H901   H     0.30598   0.91604   0.34714   0.00000  Uiso   1.00
H902   H     0.31405   0.88150   0.37906   0.00000  Uiso   1.00
H903   H     0.07092   0.85855   0.10386   0.00000  Uiso   1.00
H904   H     0.05164   0.79208   0.12426   0.00000  Uiso   1.00
H905   H     0.09116   0.77079   0.08208   0.00000  Uiso   1.00
H906   H     0.04270   0.78590   0.07557   0.00000  Uiso   1.00
H907   H     0.00950   0.84383   0.07223   0.00000  Uiso   1.00
H908   H     0.00906   0.85601   0.02416   0.00000  Uiso   1.00
H909   H     0.31788   0.72253   0.01202   0.00000  Uiso   1.00
H910   H     0.30361   0.77137   0.03816   0.00000  Uiso   1.00
N911   N     0.05765   0.89064   0.04805   0.00000  Uiso   1.00
N912   N     0.02263   0.87392   0.21632   0.00000  Uiso   1.00
N913   N     0.10878   0.99528   0.28441   0.00000  Uiso   1.00
N914   N     0.24094   0.74684   0.10160   0.00000  Uiso   1.00
N915   N     0.21727   0.72149   0.46243   0.00000  Uiso   1.00
N916   N     0.10815   0.93027   0.40529   0.00000  Uiso   1.00
N917   N     0.08870   0.83573   0.08644   0.00000  Uiso   1.00
O918   O     0.16667   0.83333   0.25000   0.00000  Uiso   1.00
O919   O     0.15693   0.79060   0.16625   0.00000  Uiso   1.00
O920   O     0.12687   0.87313   0.33749   0.00000  Uiso   1.00
O921   O     0.21088   0.84159   0.15877   0.00000  Uiso   1.00
O922   O     0.17198   0.82802   0.33749   0.00000  Uiso   1.00
O923   O     0.25454   0.72945   0.01963   0.00000  Uiso   1.00
O924   O     0.31332   0.79044   0.28221   0.00000  Uiso   1.00
O925   O     0.07354   0.92889   0.48617   0.00000  Uiso   1.00
O926   O     0.19216   0.82246   0.40025   0.00000  Uiso   1.00
O927   O     0.17849   0.74768   0.27821   0.00000  Uiso   1.00
O928   O     0.14581   0.92803   0.26767   0.00000  Uiso   1.00
O929   O     0.07452   0.79917   0.23607   0.00000  Uiso   1.00
O930   O     0.26785   0.85845   0.21806   0.00000  Uiso   1.00
O931   O     0.06990   0.85627   0.27820   0.00000  Uiso   1.00
O932   O     0.25440   0.81944   0.26768   0.00000  Uiso   1.00
O933   O     0.13800   0.73570   0.23607   0.00000  Uiso   1.00
O934   O     0.20437   0.92193   0.21806   0.00000  Uiso   1.00
Zn935  Zn    0.19244   0.80756   0.28278   0.00000  Uiso   1.00
Zn936  Zn    0.13459   0.79044   0.22258   0.00000  Uiso   1.00
Zn937  Zn    0.21166   0.86331   0.21188   0.00000  Uiso   1.00
Zn938  Zn    0.12798   0.87202   0.28277   0.00000  Uiso   1.00
C939   C     0.38600   0.82639   0.25875   0.00000  Uiso   1.00
C940   C     0.50808   0.77815   0.46380   0.00000  Uiso   1.00
C941   C     0.53094   0.75802   0.48225   0.00000  Uiso   1.00
C942   C     0.61431   0.84018   0.24144   0.00000  Uiso   1.00
C943   C     0.53262   0.77341   0.02144   0.00000  Uiso   1.00
C944   C     0.50583   0.80468   0.04282   0.00000  Uiso   1.00
C945   C     0.55976   0.75824   0.04018   0.00000  Uiso   1.00
C946   C     0.55542   0.76981   0.08096   0.00000  Uiso   1.00
C947   C     0.50793   0.82039   0.08145   0.00000  Uiso   1.00
C948   C     0.65992   0.84495   0.24039   0.00000  Uiso   1.00
C949   C     0.34038   0.82263   0.26270   0.00000  Uiso   1.00
C950   C     0.44472   0.89482   0.42276   0.00000  Uiso   1.00
C951   C     0.51439   0.98909   0.24070   0.00000  Uiso   1.00
C952   C     0.48327   0.67917   0.26221   0.00000  Uiso   1.00
C953   C     0.48965   0.72284   0.25837   0.00000  Uiso   1.00
C954   C     0.51005   0.94431   0.24171   0.00000  Uiso   1.00
C955   C     0.52124   0.81186   0.14394   0.00000  Uiso   1.00
C956   C     0.47963   0.85530   0.35647   0.00000  Uiso   1.00
C957   C     0.47003   0.86339   0.40058   0.00000  Uiso   1.00
C958   C     0.52991   0.80153   0.10115   0.00000  Uiso   1.00
C959   C     0.42865   0.89571   0.46436   0.00000  Uiso   1.00
C960   C     0.34792   0.86915   0.05327   0.00000  Uiso   1.00
C961   C     0.48821   0.84034   0.42092   0.00000  Uiso   1.00
C962   C     0.63127   0.74776   0.01354   0.00000  Uiso   1.00
C963   C     0.64702   0.76757   0.47460   0.00000  Uiso   1.00
C964   C     0.36269   0.77782   0.46272   0.00000  Uiso   1.00
C965   C     0.35855   0.91620   0.23553   0.00000  Uiso   1.00
C966   C     0.65397   0.78765   0.31928   0.00000  Uiso   1.00
C967   C     0.34392   0.74947   0.31677   0.00000  Uiso   1.00
C968   C     0.35505   0.74766   0.35542   0.00000  Uiso   1.00
C969   C     0.43834   0.99677   0.32623   0.00000  Uiso   1.00
C970   C     0.60677   0.76946   0.11985   0.00000  Uiso   1.00
C971   C     0.56468   0.71570   0.41952   0.00000  Uiso   1.00
C972   C     0.47133   0.83906   0.46251   0.00000  Uiso   1.00
C973   C     0.36846   0.93130   0.47566   0.00000  Uiso   1.00
C974   C     0.36655   0.97652   0.46999   0.00000  Uiso   1.00
C975   C     0.33365   0.97948   0.44767   0.00000  Uiso   1.00
C976   C     0.47946   0.96040   0.39925   0.00000  Uiso   1.00
C977   C     0.56230   0.84916   0.40599   0.00000  Uiso   1.00
C978   C     0.58310   0.87319   0.36999   0.00000  Uiso   1.00
C979   C     0.62403   0.90049   0.37439   0.00000  Uiso   1.00
C980   C     0.40082   0.79398   0.09223   0.00000  Uiso   1.00
C981   C     0.44115   0.86709   0.48443   0.00000  Uiso   1.00
C982   C     0.48672   0.81303   0.48309   0.00000  Uiso   1.00
C983   C     0.47889   0.82079   0.02451   0.00000  Uiso   1.00
C984   C     0.44312   0.84251   0.04610   0.00000  Uiso   1.00
C985   C     0.42502   0.86656   0.02616   0.00000  Uiso   1.00
H986   H     0.54391   0.67024   0.22190   0.00000  Uiso   1.00
H987   H     0.63760   0.74574   0.45063   0.00000  Uiso   1.00
H988   H     0.63165   0.79657   0.47799   0.00000  Uiso   1.00
H989   H     0.37377   0.79621   0.48762   0.00000  Uiso   1.00
H990   H     0.37272   0.79622   0.43699   0.00000  Uiso   1.00
H991   H     0.37853   0.74869   0.45425   0.00000  Uiso   1.00
H992   H     0.35131   0.87258   0.18854   0.00000  Uiso   1.00
H993   H     0.38418   0.93599   0.21607   0.00000  Uiso   1.00
H994   H     0.36671   0.91731   0.26406   0.00000  Uiso   1.00
H995   H     0.66067   0.92906   0.24121   0.00000  Uiso   1.00
H996   H     0.62200   0.78340   0.34124   0.00000  Uiso   1.00
H997   H     0.49166   0.84693   0.09730   0.00000  Uiso   1.00
H998   H     0.33807   0.81645   0.33120   0.00000  Uiso   1.00
H999   H     0.65614   0.72075   0.31047   0.00000  Uiso   1.00
H1000  H     0.37415   0.75037   0.29232   0.00000  Uiso   1.00
H1001  H     0.37923   0.77424   0.36038   0.00000  Uiso   1.00
H1002  H     0.36864   0.71812   0.35398   0.00000  Uiso   1.00
H1003  H     0.65907   0.74882   0.38071   0.00000  Uiso   1.00
H1004  H     0.41678   0.67413   0.27967   0.00000  Uiso   1.00
H1005  H     0.40646   0.98095   0.34124   0.00000  Uiso   1.00
H1006  H     0.44145   0.69627   0.33991   0.00000  Uiso   1.00
H1007  H     0.46387   0.98044   0.33050   0.00000  Uiso   1.00
H1008  H     0.50507   0.76510   0.43478   0.00000  Uiso   1.00
H1009  H     0.55236   0.72660   0.11921   0.00000  Uiso   1.00
H1010  H     0.63479   0.75130   0.11234   0.00000  Uiso   1.00
H1011  H     0.59363   0.77359   0.15262   0.00000  Uiso   1.00
H1012  H     0.61807   0.80061   0.10932   0.00000  Uiso   1.00
H1013  H     0.53760   0.69468   0.47564   0.00000  Uiso   1.00
H1014  H     0.53676   0.70480   0.40718   0.00000  Uiso   1.00
H1015  H     0.58759   0.69176   0.40978   0.00000  Uiso   1.00
H1016  H     0.58142   0.74525   0.40782   0.00000  Uiso   1.00
H1017  H     0.34038   0.92224   0.00042   0.00000  Uiso   1.00
H1018  H     0.36446   0.90994   0.44895   0.00000  Uiso   1.00
H1019  H     0.39599   0.90857   0.07320   0.00000  Uiso   1.00
H1020  H     0.35803   0.99521   0.49947   0.00000  Uiso   1.00
H1021  H     0.39860   0.99027   0.45308   0.00000  Uiso   1.00
H1022  H     0.34359   0.96298   0.41730   0.00000  Uiso   1.00
H1023  H     0.66556   0.67922   0.44495   0.00000  Uiso   1.00
H1024  H     0.63447   0.96573   0.46363   0.00000  Uiso   1.00
H1025  H     0.42597   0.92540   0.38320   0.00000  Uiso   1.00
H1026  H     0.50461   0.94955   0.37256   0.00000  Uiso   1.00
H1027  H     0.49254   0.96540   0.42554   0.00000  Uiso   1.00
H1028  H     0.47077   0.99075   0.39531   0.00000  Uiso   1.00
H1029  H     0.58583   0.82926   0.40889   0.00000  Uiso   1.00
H1030  H     0.65729   0.89145   0.06785   0.00000  Uiso   1.00
H1031  H     0.55566   0.87139   0.43368   0.00000  Uiso   1.00
H1032  H     0.59110   0.85087   0.34278   0.00000  Uiso   1.00
H1033  H     0.56017   0.89348   0.36667   0.00000  Uiso   1.00
H1034  H     0.61575   0.92475   0.39996   0.00000  Uiso   1.00
H1035  H     0.63931   0.91604   0.34714   0.00000  Uiso   1.00
H1036  H     0.64738   0.88150   0.37906   0.00000  Uiso   1.00
H1037  H     0.40426   0.85855   0.10386   0.00000  Uiso   1.00
H1038  H     0.38497   0.79208   0.12426   0.00000  Uiso   1.00
H1039  H     0.42449   0.77079   0.08208   0.00000  Uiso   1.00
H1040  H     0.37604   0.78590   0.07557   0.00000  Uiso   1.00
H1041  H     0.34283   0.84383   0.07223   0.00000  Uiso   1.00
H1042  H     0.34239   0.85601   0.02416   0.00000  Uiso   1.00
H1043  H     0.65121   0.72253   0.01202   0.00000  Uiso   1.00
H1044  H     0.63694   0.77137   0.03816   0.00000  Uiso   1.00
N1045  N     0.39099   0.89064   0.04805   0.00000  Uiso   1.00
N1046  N     0.35596   0.87392   0.21632   0.00000  Uiso   1.00
N1047  N     0.44211   0.99528   0.28441   0.00000  Uiso   1.00
N1048  N     0.57427   0.74684   0.10160   0.00000  Uiso   1.00
N1049  N     0.55060   0.72149   0.46243   0.00000  Uiso   1.00
N1050  N     0.44149   0.93027   0.40529   0.00000  Uiso   1.00
N1051  N     0.42204   0.83573   0.08644   0.00000  Uiso   1.00
O1052  O     0.50000   0.83333   0.25000   0.00000  Uiso   1.00
O1053  O     0.49027   0.79060   0.16625   0.00000  Uiso   1.00
O1054  O     0.46020   0.87313   0.33749   0.00000  Uiso   1.00
O1055  O     0.54421   0.84159   0.15877   0.00000  Uiso   1.00
O1056  O     0.50532   0.82802   0.33749   0.00000  Uiso   1.00
O1057  O     0.58787   0.72945   0.01963   0.00000  Uiso   1.00
O1058  O     0.64666   0.79044   0.28221   0.00000  Uiso   1.00
O1059  O     0.40688   0.92889   0.48617   0.00000  Uiso   1.00
O1060  O     0.52549   0.82246   0.40025   0.00000  Uiso   1.00
O1061  O     0.51182   0.74768   0.27821   0.00000  Uiso   1.00
O1062  O     0.47914   0.92803   0.26767   0.00000  Uiso   1.00
O1063  O     0.40785   0.79917   0.23607   0.00000  Uiso   1.00
O1064  O     0.60119   0.85845   0.21806   0.00000  Uiso   1.00
O1065  O     0.40323   0.85627   0.27820   0.00000  Uiso   1.00
O1066  O     0.58773   0.81944   0.26768   0.00000  Uiso   1.00
O1067  O     0.47133   0.73570   0.23607   0.00000  Uiso   1.00
O1068  O     0.53771   0.92193   0.21806   0.00000  Uiso   1.00
Zn1069 Zn    0.52577   0.80756   0.28278   0.00000  Uiso   1.00
Zn1070 Zn    0.46792   0.79044   0.22258   0.00000  Uiso   1.00
Zn1071 Zn    0.54500   0.86331   0.21188   0.00000  Uiso   1.00
Zn1072 Zn    0.46131   0.87202   0.28277   0.00000  Uiso   1.00
C1073  C     0.71933   0.82639   0.25875   0.00000  Uiso   1.00
C1074  C     0.84141   0.77815   0.46380   0.00000  Uiso   1.00
C1075  C     0.86427   0.75802   0.48225   0.00000  Uiso   1.00
C1076  C     0.94764   0.84018   0.24144   0.00000  Uiso   1.00
C1077  C     0.86595   0.77341   0.02144   0.00000  Uiso   1.00
C1078  C     0.83916   0.80468   0.04282   0.00000  Uiso   1.00
C1079  C     0.89309   0.75824   0.04018   0.00000  Uiso   1.00
C1080  C     0.88875   0.76981   0.08096   0.00000  Uiso   1.00
C1081  C     0.84126   0.82039   0.08145   0.00000  Uiso   1.00
C1082  C     0.99326   0.84495   0.24039   0.00000  Uiso   1.00
C1083  C     0.67371   0.82263   0.26270   0.00000  Uiso   1.00
C1084  C     0.77805   0.89482   0.42276   0.00000  Uiso   1.00
C1085  C     0.84772   0.98909   0.24070   0.00000  Uiso   1.00
C1086  C     0.81660   0.67917   0.26221   0.00000  Uiso   1.00
C1087  C     0.82298   0.72284   0.25837   0.00000  Uiso   1.00
C1088  C     0.84338   0.94431   0.24171   0.00000  Uiso   1.00
C1089  C     0.85457   0.81186   0.14394   0.00000  Uiso   1.00
C1090  C     0.81296   0.85530   0.35647   0.00000  Uiso   1.00
C1091  C     0.80337   0.86339   0.40058   0.00000  Uiso   1.00
C1092  C     0.86324   0.80153   0.10115   0.00000  Uiso   1.00
C1093  C     0.76199   0.89571   0.46436   0.00000  Uiso   1.00
C1094  C     0.68125   0.86915   0.05327   0.00000  Uiso   1.00
C1095  C     0.82155   0.84034   0.42092   0.00000  Uiso   1.00
C1096  C     0.96461   0.74776   0.01354   0.00000  Uiso   1.00
C1097  C     0.98036   0.76757   0.47460   0.00000  Uiso   1.00
C1098  C     0.69603   0.77782   0.46272   0.00000  Uiso   1.00
C1099  C     0.69188   0.91620   0.23553   0.00000  Uiso   1.00
C1100  C     0.98731   0.78765   0.31928   0.00000  Uiso   1.00
C1101  C     0.67725   0.74947   0.31677   0.00000  Uiso   1.00
C1102  C     0.68839   0.74766   0.35542   0.00000  Uiso   1.00
C1103  C     0.77167   0.99677   0.32623   0.00000  Uiso   1.00
C1104  C     0.94011   0.76946   0.11985   0.00000  Uiso   1.00
C1105  C     0.89802   0.71570   0.41952   0.00000  Uiso   1.00
C1106  C     0.80466   0.83906   0.46251   0.00000  Uiso   1.00
C1107  C     0.70180   0.93130   0.47566   0.00000  Uiso   1.00
C1108  C     0.69989   0.97652   0.46999   0.00000  Uiso   1.00
C1109  C     0.66698   0.97948   0.44767   0.00000  Uiso   1.00
C1110  C     0.81279   0.96040   0.39925   0.00000  Uiso   1.00
C1111  C     0.89563   0.84916   0.40599   0.00000  Uiso   1.00
C1112  C     0.91644   0.87319   0.36999   0.00000  Uiso   1.00
C1113  C     0.95736   0.90049   0.37439   0.00000  Uiso   1.00
C1114  C     0.73416   0.79398   0.09223   0.00000  Uiso   1.00
C1115  C     0.77448   0.86709   0.48443   0.00000  Uiso   1.00
C1116  C     0.82005   0.81303   0.48309   0.00000  Uiso   1.00
C1117  C     0.81222   0.82079   0.02451   0.00000  Uiso   1.00
C1118  C     0.77645   0.84251   0.04610   0.00000  Uiso   1.00
C1119  C     0.75835   0.86656   0.02616   0.00000  Uiso   1.00
H1120  H     0.87724   0.67024   0.22190   0.00000  Uiso   1.00
H1121  H     0.97093   0.74574   0.45063   0.00000  Uiso   1.00
H1122  H     0.96499   0.79657   0.47799   0.00000  Uiso   1.00
H1123  H     0.70711   0.79621   0.48762   0.00000  Uiso   1.00
H1124  H     0.70606   0.79622   0.43699   0.00000  Uiso   1.00
H1125  H     0.71186   0.74869   0.45425   0.00000  Uiso   1.00
H1126  H     0.68465   0.87258   0.18854   0.00000  Uiso   1.00
H1127  H     0.71752   0.93599   0.21607   0.00000  Uiso   1.00
H1128  H     0.70004   0.91731   0.26406   0.00000  Uiso   1.00
H1129  H     0.99400   0.92906   0.24121   0.00000  Uiso   1.00
H1130  H     0.95533   0.78340   0.34124   0.00000  Uiso   1.00
H1131  H     0.82500   0.84693   0.09730   0.00000  Uiso   1.00
H1132  H     0.67140   0.81645   0.33120   0.00000  Uiso   1.00
H1133  H     0.98947   0.72075   0.31047   0.00000  Uiso   1.00
H1134  H     0.70748   0.75037   0.29232   0.00000  Uiso   1.00
H1135  H     0.71256   0.77424   0.36038   0.00000  Uiso   1.00
H1136  H     0.70197   0.71812   0.35398   0.00000  Uiso   1.00
H1137  H     0.99240   0.74882   0.38071   0.00000  Uiso   1.00
H1138  H     0.75011   0.67413   0.27967   0.00000  Uiso   1.00
H1139  H     0.73980   0.98095   0.34124   0.00000  Uiso   1.00
H1140  H     0.77479   0.69627   0.33991   0.00000  Uiso   1.00
H1141  H     0.79720   0.98044   0.33050   0.00000  Uiso   1.00
H1142  H     0.83840   0.76510   0.43478   0.00000  Uiso   1.00
H1143  H     0.88569   0.72660   0.11921   0.00000  Uiso   1.00
H1144  H     0.96813   0.75130   0.11234   0.00000  Uiso   1.00
H1145  H     0.92696   0.77359   0.15262   0.00000  Uiso   1.00
H1146  H     0.95141   0.80061   0.10932   0.00000  Uiso   1.00
H1147  H     0.87094   0.69468   0.47564   0.00000  Uiso   1.00
H1148  H     0.87009   0.70480   0.40718   0.00000  Uiso   1.00
H1149  H     0.92092   0.69176   0.40978   0.00000  Uiso   1.00
H1150  H     0.91476   0.74525   0.40782   0.00000  Uiso   1.00
H1151  H     0.67372   0.92224   0.00042   0.00000  Uiso   1.00
H1152  H     0.69779   0.90994   0.44895   0.00000  Uiso   1.00
H1153  H     0.72933   0.90857   0.07320   0.00000  Uiso   1.00
H1154  H     0.69136   0.99521   0.49947   0.00000  Uiso   1.00
H1155  H     0.73193   0.99027   0.45308   0.00000  Uiso   1.00
H1156  H     0.67693   0.96298   0.41730   0.00000  Uiso   1.00
H1157  H     0.99889   0.67922   0.44495   0.00000  Uiso   1.00
H1158  H     0.96781   0.96573   0.46363   0.00000  Uiso   1.00
H1159  H     0.75931   0.92540   0.38320   0.00000  Uiso   1.00
H1160  H     0.83794   0.94955   0.37256   0.00000  Uiso   1.00
H1161  H     0.82587   0.96540   0.42554   0.00000  Uiso   1.00
H1162  H     0.80410   0.99075   0.39531   0.00000  Uiso   1.00
H1163  H     0.91917   0.82926   0.40889   0.00000  Uiso   1.00
H1164  H     0.99062   0.89145   0.06785   0.00000  Uiso   1.00
H1165  H     0.88899   0.87139   0.43368   0.00000  Uiso   1.00
H1166  H     0.92444   0.85087   0.34278   0.00000  Uiso   1.00
H1167  H     0.89351   0.89348   0.36667   0.00000  Uiso   1.00
H1168  H     0.94909   0.92475   0.39996   0.00000  Uiso   1.00
H1169  H     0.97265   0.91604   0.34714   0.00000  Uiso   1.00
H1170  H     0.98072   0.88150   0.37906   0.00000  Uiso   1.00
H1171  H     0.73759   0.85855   0.10386   0.00000  Uiso   1.00
H1172  H     0.71831   0.79208   0.12426   0.00000  Uiso   1.00
H1173  H     0.75782   0.77079   0.08208   0.00000  Uiso   1.00
H1174  H     0.70937   0.78590   0.07557   0.00000  Uiso   1.00
H1175  H     0.67616   0.84383   0.07223   0.00000  Uiso   1.00
H1176  H     0.67572   0.85601   0.02416   0.00000  Uiso   1.00
H1177  H     0.98454   0.72253   0.01202   0.00000  Uiso   1.00
H1178  H     0.97028   0.77137   0.03816   0.00000  Uiso   1.00
N1179  N     0.72432   0.89064   0.04805   0.00000  Uiso   1.00
N1180  N     0.68930   0.87392   0.21632   0.00000  Uiso   1.00
N1181  N     0.77545   0.99528   0.28441   0.00000  Uiso   1.00
N1182  N     0.90760   0.74684   0.10160   0.00000  Uiso   1.00
N1183  N     0.88394   0.72149   0.46243   0.00000  Uiso   1.00
N1184  N     0.77482   0.93027   0.40529   0.00000  Uiso   1.00
N1185  N     0.75537   0.83573   0.08644   0.00000  Uiso   1.00
O1186  O     0.83333   0.83333   0.25000   0.00000  Uiso   1.00
O1187  O     0.82360   0.79060   0.16625   0.00000  Uiso   1.00
O1188  O     0.79354   0.87313   0.33749   0.00000  Uiso   1.00
O1189  O     0.87755   0.84159   0.15877   0.00000  Uiso   1.00
O1190  O     0.83865   0.82802   0.33749   0.00000  Uiso   1.00
O1191  O     0.92121   0.72945   0.01963   0.00000  Uiso   1.00
O1192  O     0.97999   0.79044   0.28221   0.00000  Uiso   1.00
O1193  O     0.74021   0.92889   0.48617   0.00000  Uiso   1.00
O1194  O     0.85882   0.82246   0.40025   0.00000  Uiso   1.00
O1195  O     0.84515   0.74768   0.27821   0.00000  Uiso   1.00
O1196  O     0.81247   0.92803   0.26767   0.00000  Uiso   1.00
O1197  O     0.74119   0.79917   0.23607   0.00000  Uiso   1.00
O1198  O     0.93452   0.85845   0.21806   0.00000  Uiso   1.00
O1199  O     0.73656   0.85627   0.27820   0.00000  Uiso   1.00
O1200  O     0.92106   0.81944   0.26768   0.00000  Uiso   1.00
O1201  O     0.80467   0.73570   0.23607   0.00000  Uiso   1.00
O1202  O     0.87104   0.92193   0.21806   0.00000  Uiso   1.00
Zn1203 Zn    0.85910   0.80756   0.28278   0.00000  Uiso   1.00
Zn1204 Zn    0.80125   0.79044   0.22258   0.00000  Uiso   1.00
Zn1205 Zn    0.87833   0.86331   0.21188   0.00000  Uiso   1.00
Zn1206 Zn    0.79465   0.87202   0.28277   0.00000  Uiso   1.00
C1207  C     0.05267   0.15972   0.75875   0.00000  Uiso   1.00
C1208  C     0.17475   0.11149   0.96380   0.00000  Uiso   1.00
C1209  C     0.19761   0.09135   0.98225   0.00000  Uiso   1.00
C1210  C     0.28098   0.17351   0.74144   0.00000  Uiso   1.00
C1211  C     0.19928   0.10674   0.52144   0.00000  Uiso   1.00
C1212  C     0.17249   0.13801   0.54282   0.00000  Uiso   1.00
C1213  C     0.22642   0.09157   0.54018   0.00000  Uiso   1.00
C1214  C     0.22208   0.10314   0.58096   0.00000  Uiso   1.00
C1215  C     0.17460   0.15372   0.58145   0.00000  Uiso   1.00
C1216  C     0.32659   0.17828   0.74039   0.00000  Uiso   1.00
C1217  C     0.00705   0.15597   0.76270   0.00000  Uiso   1.00
C1218  C     0.11138   0.22815   0.92276   0.00000  Uiso   1.00
C1219  C     0.18105   0.32242   0.74070   0.00000  Uiso   1.00
C1220  C     0.14994   0.01250   0.76221   0.00000  Uiso   1.00
C1221  C     0.15631   0.05617   0.75837   0.00000  Uiso   1.00
C1222  C     0.17672   0.27765   0.74171   0.00000  Uiso   1.00
C1223  C     0.18790   0.14520   0.64394   0.00000  Uiso   1.00
C1224  C     0.14630   0.18863   0.85647   0.00000  Uiso   1.00
C1225  C     0.13670   0.19672   0.90058   0.00000  Uiso   1.00
C1226  C     0.19657   0.13487   0.60115   0.00000  Uiso   1.00
C1227  C     0.09532   0.22904   0.96436   0.00000  Uiso   1.00
C1228  C     0.01458   0.20248   0.55327   0.00000  Uiso   1.00
C1229  C     0.15488   0.17367   0.92092   0.00000  Uiso   1.00
C1230  C     0.29794   0.08110   0.51354   0.00000  Uiso   1.00
C1231  C     0.31369   0.10090   0.97460   0.00000  Uiso   1.00
C1232  C     0.02936   0.11115   0.96272   0.00000  Uiso   1.00
C1233  C     0.02521   0.24953   0.73553   0.00000  Uiso   1.00
C1234  C     0.32064   0.12098   0.81928   0.00000  Uiso   1.00
C1235  C     0.01059   0.08281   0.81677   0.00000  Uiso   1.00
C1236  C     0.02172   0.08100   0.85542   0.00000  Uiso   1.00
C1237  C     0.10501   0.33010   0.82623   0.00000  Uiso   1.00
C1238  C     0.27344   0.10279   0.61985   0.00000  Uiso   1.00
C1239  C     0.23135   0.04903   0.91952   0.00000  Uiso   1.00
C1240  C     0.13800   0.17239   0.96251   0.00000  Uiso   1.00
C1241  C     0.03513   0.26463   0.97566   0.00000  Uiso   1.00
C1242  C     0.03322   0.30985   0.96999   0.00000  Uiso   1.00
C1243  C     0.00032   0.31281   0.94767   0.00000  Uiso   1.00
C1244  C     0.14612   0.29373   0.89925   0.00000  Uiso   1.00
C1245  C     0.22896   0.18249   0.90599   0.00000  Uiso   1.00
C1246  C     0.24977   0.20652   0.86999   0.00000  Uiso   1.00
C1247  C     0.29070   0.23383   0.87439   0.00000  Uiso   1.00
C1248  C     0.06749   0.12731   0.59223   0.00000  Uiso   1.00
C1249  C     0.10781   0.20042   0.98443   0.00000  Uiso   1.00
C1250  C     0.15339   0.14637   0.98309   0.00000  Uiso   1.00
C1251  C     0.14556   0.15412   0.52451   0.00000  Uiso   1.00
C1252  C     0.10978   0.17584   0.54610   0.00000  Uiso   1.00
C1253  C     0.09169   0.19990   0.52616   0.00000  Uiso   1.00
H1254  H     0.21058   0.00357   0.72190   0.00000  Uiso   1.00
H1255  H     0.30426   0.07907   0.95063   0.00000  Uiso   1.00
H1256  H     0.29832   0.12991   0.97799   0.00000  Uiso   1.00
H1257  H     0.04044   0.12954   0.98762   0.00000  Uiso   1.00
H1258  H     0.03939   0.12955   0.93699   0.00000  Uiso   1.00
H1259  H     0.04520   0.08202   0.95425   0.00000  Uiso   1.00
H1260  H     0.01798   0.20591   0.68854   0.00000  Uiso   1.00
H1261  H     0.05085   0.26932   0.71607   0.00000  Uiso   1.00
H1262  H     0.03338   0.25064   0.76406   0.00000  Uiso   1.00
H1263  H     0.32733   0.26239   0.74121   0.00000  Uiso   1.00
H1264  H     0.28867   0.11673   0.84124   0.00000  Uiso   1.00
H1265  H     0.15833   0.18026   0.59730   0.00000  Uiso   1.00
H1266  H     0.00474   0.14979   0.83120   0.00000  Uiso   1.00
H1267  H     0.32281   0.05408   0.81047   0.00000  Uiso   1.00
H1268  H     0.04082   0.08371   0.79232   0.00000  Uiso   1.00
H1269  H     0.04590   0.10757   0.86038   0.00000  Uiso   1.00
H1270  H     0.03531   0.05146   0.85398   0.00000  Uiso   1.00
H1271  H     0.32573   0.08216   0.88071   0.00000  Uiso   1.00
H1272  H     0.08345   0.00747   0.77967   0.00000  Uiso   1.00
H1273  H     0.07313   0.31429   0.84124   0.00000  Uiso   1.00
H1274  H     0.10812   0.02960   0.83991   0.00000  Uiso   1.00
H1275  H     0.13054   0.31377   0.83050   0.00000  Uiso   1.00
H1276  H     0.17174   0.09843   0.93478   0.00000  Uiso   1.00
H1277  H     0.21903   0.05993   0.61921   0.00000  Uiso   1.00
H1278  H     0.30146   0.08464   0.61234   0.00000  Uiso   1.00
H1279  H     0.26030   0.10692   0.65262   0.00000  Uiso   1.00
H1280  H     0.28474   0.13395   0.60932   0.00000  Uiso   1.00
H1281  H     0.20427   0.02801   0.97564   0.00000  Uiso   1.00
H1282  H     0.20342   0.03814   0.90718   0.00000  Uiso   1.00
H1283  H     0.25425   0.02509   0.90978   0.00000  Uiso   1.00
H1284  H     0.24809   0.07858   0.90782   0.00000  Uiso   1.00
H1285  H     0.00705   0.25558   0.50042   0.00000  Uiso   1.00
H1286  H     0.03112   0.24327   0.94895   0.00000  Uiso   1.00
H1287  H     0.06266   0.24190   0.57320   0.00000  Uiso   1.00
H1288  H     0.02469   0.32854   0.99947   0.00000  Uiso   1.00
H1289  H     0.06527   0.32360   0.95308   0.00000  Uiso   1.00
H1290  H     0.01026   0.29631   0.91730   0.00000  Uiso   1.00
H1291  H     0.33223   0.01256   0.94495   0.00000  Uiso   1.00
H1292  H     0.30114   0.29906   0.96363   0.00000  Uiso   1.00
H1293  H     0.09264   0.25874   0.88320   0.00000  Uiso   1.00
H1294  H     0.17128   0.28288   0.87256   0.00000  Uiso   1.00
H1295  H     0.15921   0.29874   0.92554   0.00000  Uiso   1.00
H1296  H     0.13744   0.32408   0.89531   0.00000  Uiso   1.00
H1297  H     0.25250   0.16259   0.90889   0.00000  Uiso   1.00
H1298  H     0.32396   0.22478   0.56785   0.00000  Uiso   1.00
H1299  H     0.22233   0.20473   0.93368   0.00000  Uiso   1.00
H1300  H     0.25777   0.18420   0.84278   0.00000  Uiso   1.00
H1301  H     0.22684   0.22681   0.86667   0.00000  Uiso   1.00
H1302  H     0.28242   0.25809   0.89996   0.00000  Uiso   1.00
H1303  H     0.30598   0.24938   0.84714   0.00000  Uiso   1.00
H1304  H     0.31405   0.21484   0.87906   0.00000  Uiso   1.00
H1305  H     0.07092   0.19189   0.60386   0.00000  Uiso   1.00
H1306  H     0.05164   0.12542   0.62426   0.00000  Uiso   1.00
H1307  H     0.09116   0.10412   0.58208   0.00000  Uiso   1.00
H1308  H     0.04270   0.11923   0.57557   0.00000  Uiso   1.00
H1309  H     0.00950   0.17716   0.57223   0.00000  Uiso   1.00
H1310  H     0.00906   0.18934   0.52416   0.00000  Uiso   1.00
H1311  H     0.31788   0.05586   0.51202   0.00000  Uiso   1.00
H1312  H     0.30361   0.10470   0.53816   0.00000  Uiso   1.00
N1313  N     0.05765   0.22398   0.54805   0.00000  Uiso   1.00
N1314  N     0.02263   0.20725   0.71632   0.00000  Uiso   1.00
N1315  N     0.10878   0.32862   0.78441   0.00000  Uiso   1.00
N1316  N     0.24094   0.08018   0.60160   0.00000  Uiso   1.00
N1317  N     0.21727   0.05483   0.96243   0.00000  Uiso   1.00
N1318  N     0.10815   0.26361   0.90529   0.00000  Uiso   1.00
N1319  N     0.08870   0.16906   0.58644   0.00000  Uiso   1.00
O1320  O     0.16667   0.16667   0.75000   0.00000  Uiso   1.00
O1321  O     0.15693   0.12393   0.66625   0.00000  Uiso   1.00
O1322  O     0.12687   0.20646   0.83749   0.00000  Uiso   1.00
O1323  O     0.21088   0.17493   0.65877   0.00000  Uiso   1.00
O1324  O     0.17198   0.16135   0.83749   0.00000  Uiso   1.00
O1325  O     0.25454   0.06278   0.51963   0.00000  Uiso   1.00
O1326  O     0.31332   0.12378   0.78221   0.00000  Uiso   1.00
O1327  O     0.07354   0.26222   0.98617   0.00000  Uiso   1.00
O1328  O     0.19216   0.15580   0.90025   0.00000  Uiso   1.00
O1329  O     0.17849   0.08101   0.77821   0.00000  Uiso   1.00
O1330  O     0.14581   0.26136   0.76767   0.00000  Uiso   1.00
O1331  O     0.07452   0.13251   0.73607   0.00000  Uiso   1.00
O1332  O     0.26785   0.19179   0.71806   0.00000  Uiso   1.00
O1333  O     0.06990   0.18960   0.77820   0.00000  Uiso   1.00
O1334  O     0.25440   0.15277   0.76768   0.00000  Uiso   1.00
O1335  O     0.13800   0.06903   0.73607   0.00000  Uiso   1.00
O1336  O     0.20437   0.25527   0.71806   0.00000  Uiso   1.00
Zn1337 Zn    0.19244   0.14090   0.78278   0.00000  Uiso   1.00
Zn1338 Zn    0.13459   0.12378   0.72258   0.00000  Uiso   1.00
Zn1339 Zn    0.21166   0.19664   0.71188   0.00000  Uiso   1.00
Zn1340 Zn    0.12798   0.20535   0.78277   0.00000  Uiso   1.00
C1341  C     0.38600   0.15972   0.75875   0.00000  Uiso   1.00
C1342  C     0.50808   0.11149   0.96380   0.00000  Uiso   1.00
C1343  C     0.53094   0.09135   0.98225   0.00000  Uiso   1.00
C1344  C     0.61431   0.17351   0.74144   0.00000  Uiso   1.00
C1345  C     0.53262   0.10674   0.52144   0.00000  Uiso   1.00
C1346  C     0.50583   0.13801   0.54282   0.00000  Uiso   1.00
C1347  C     0.55976   0.09157   0.54018   0.00000  Uiso   1.00
C1348  C     0.55542   0.10314   0.58096   0.00000  Uiso   1.00
C1349  C     0.50793   0.15372   0.58145   0.00000  Uiso   1.00
C1350  C     0.65992   0.17828   0.74039   0.00000  Uiso   1.00
C1351  C     0.34038   0.15597   0.76270   0.00000  Uiso   1.00
C1352  C     0.44472   0.22815   0.92276   0.00000  Uiso   1.00
C1353  C     0.51439   0.32242   0.74070   0.00000  Uiso   1.00
C1354  C     0.48327   0.01250   0.76221   0.00000  Uiso   1.00
C1355  C     0.48965   0.05617   0.75837   0.00000  Uiso   1.00
C1356  C     0.51005   0.27765   0.74171   0.00000  Uiso   1.00
C1357  C     0.52124   0.14520   0.64394   0.00000  Uiso   1.00
C1358  C     0.47963   0.18863   0.85647   0.00000  Uiso   1.00
C1359  C     0.47003   0.19672   0.90058   0.00000  Uiso   1.00
C1360  C     0.52991   0.13487   0.60115   0.00000  Uiso   1.00
C1361  C     0.42865   0.22904   0.96436   0.00000  Uiso   1.00
C1362  C     0.34792   0.20248   0.55327   0.00000  Uiso   1.00
C1363  C     0.48821   0.17367   0.92092   0.00000  Uiso   1.00
C1364  C     0.63127   0.08110   0.51354   0.00000  Uiso   1.00
C1365  C     0.64702   0.10090   0.97460   0.00000  Uiso   1.00
C1366  C     0.36269   0.11115   0.96272   0.00000  Uiso   1.00
C1367  C     0.35855   0.24953   0.73553   0.00000  Uiso   1.00
C1368  C     0.65397   0.12098   0.81928   0.00000  Uiso   1.00
C1369  C     0.34392   0.08281   0.81677   0.00000  Uiso   1.00
C1370  C     0.35505   0.08100   0.85542   0.00000  Uiso   1.00
C1371  C     0.43834   0.33010   0.82623   0.00000  Uiso   1.00
C1372  C     0.60677   0.10279   0.61985   0.00000  Uiso   1.00
C1373  C     0.56468   0.04903   0.91952   0.00000  Uiso   1.00
C1374  C     0.47133   0.17239   0.96251   0.00000  Uiso   1.00
C1375  C     0.36846   0.26463   0.97566   0.00000  Uiso   1.00
C1376  C     0.36655   0.30985   0.96999   0.00000  Uiso   1.00
C1377  C     0.33365   0.31281   0.94767   0.00000  Uiso   1.00
C1378  C     0.47946   0.29373   0.89925   0.00000  Uiso   1.00
C1379  C     0.56230   0.18249   0.90599   0.00000  Uiso   1.00
C1380  C     0.58310   0.20652   0.86999   0.00000  Uiso   1.00
C1381  C     0.62403   0.23383   0.87439   0.00000  Uiso   1.00
C1382  C     0.40082   0.12731   0.59223   0.00000  Uiso   1.00
C1383  C     0.44115   0.20042   0.98443   0.00000  Uiso   1.00
C1384  C     0.48672   0.14637   0.98309   0.00000  Uiso   1.00
C1385  C     0.47889   0.15412   0.52451   0.00000  Uiso   1.00
C1386  C     0.44312   0.17584   0.54610   0.00000  Uiso   1.00
C1387  C     0.42502   0.19990   0.52616   0.00000  Uiso   1.00
H1388  H     0.54391   0.00357   0.72190   0.00000  Uiso   1.00
H1389  H     0.63760   0.07907   0.95063   0.00000  Uiso   1.00
H1390  H     0.63165   0.12991   0.97799   0.00000  Uiso   1.00
H1391  H     0.37377   0.12954   0.98762   0.00000  Uiso   1.00
H1392  H     0.37272   0.12955   0.93699   0.00000  Uiso   1.00
H1393  H     0.37853   0.08202   0.95425   0.00000  Uiso   1.00
H1394  H     0.35131   0.20591   0.68854   0.00000  Uiso   1.00
H1395  H     0.38418   0.26932   0.71607   0.00000  Uiso   1.00
H1396  H     0.36671   0.25064   0.76406   0.00000  Uiso   1.00
H1397  H     0.66067   0.26239   0.74121   0.00000  Uiso   1.00
H1398  H     0.62200   0.11673   0.84124   0.00000  Uiso   1.00
H1399  H     0.49166   0.18026   0.59730   0.00000  Uiso   1.00
H1400  H     0.33807   0.14979   0.83120   0.00000  Uiso   1.00
H1401  H     0.65614   0.05408   0.81047   0.00000  Uiso   1.00
H1402  H     0.37415   0.08371   0.79232   0.00000  Uiso   1.00
H1403  H     0.37923   0.10757   0.86038   0.00000  Uiso   1.00
H1404  H     0.36864   0.05146   0.85398   0.00000  Uiso   1.00
H1405  H     0.65907   0.08216   0.88071   0.00000  Uiso   1.00
H1406  H     0.41678   0.00747   0.77967   0.00000  Uiso   1.00
H1407  H     0.40646   0.31429   0.84124   0.00000  Uiso   1.00
H1408  H     0.44145   0.02960   0.83991   0.00000  Uiso   1.00
H1409  H     0.46387   0.31377   0.83050   0.00000  Uiso   1.00
H1410  H     0.50507   0.09843   0.93478   0.00000  Uiso   1.00
H1411  H     0.55236   0.05993   0.61921   0.00000  Uiso   1.00
H1412  H     0.63479   0.08464   0.61234   0.00000  Uiso   1.00
H1413  H     0.59363   0.10692   0.65262   0.00000  Uiso   1.00
H1414  H     0.61807   0.13395   0.60932   0.00000  Uiso   1.00
H1415  H     0.53760   0.02801   0.97564   0.00000  Uiso   1.00
H1416  H     0.53676   0.03814   0.90718   0.00000  Uiso   1.00
H1417  H     0.58759   0.02509   0.90978   0.00000  Uiso   1.00
H1418  H     0.58142   0.07858   0.90782   0.00000  Uiso   1.00
H1419  H     0.34038   0.25558   0.50042   0.00000  Uiso   1.00
H1420  H     0.36446   0.24327   0.94895   0.00000  Uiso   1.00
H1421  H     0.39599   0.24190   0.57320   0.00000  Uiso   1.00
H1422  H     0.35803   0.32854   0.99947   0.00000  Uiso   1.00
H1423  H     0.39860   0.32360   0.95308   0.00000  Uiso   1.00
H1424  H     0.34359   0.29631   0.91730   0.00000  Uiso   1.00
H1425  H     0.66556   0.01256   0.94495   0.00000  Uiso   1.00
H1426  H     0.63447   0.29906   0.96363   0.00000  Uiso   1.00
H1427  H     0.42597   0.25874   0.88320   0.00000  Uiso   1.00
H1428  H     0.50461   0.28288   0.87256   0.00000  Uiso   1.00
H1429  H     0.49254   0.29874   0.92554   0.00000  Uiso   1.00
H1430  H     0.47077   0.32408   0.89531   0.00000  Uiso   1.00
H1431  H     0.58583   0.16259   0.90889   0.00000  Uiso   1.00
H1432  H     0.65729   0.22478   0.56785   0.00000  Uiso   1.00
H1433  H     0.55566   0.20473   0.93368   0.00000  Uiso   1.00
H1434  H     0.59110   0.18420   0.84278   0.00000  Uiso   1.00
H1435  H     0.56017   0.22681   0.86667   0.00000  Uiso   1.00
H1436  H     0.61575   0.25809   0.89996   0.00000  Uiso   1.00
H1437  H     0.63931   0.24938   0.84714   0.00000  Uiso   1.00
H1438  H     0.64738   0.21484   0.87906   0.00000  Uiso   1.00
H1439  H     0.40426   0.19189   0.60386   0.00000  Uiso   1.00
H1440  H     0.38497   0.12542   0.62426   0.00000  Uiso   1.00
H1441  H     0.42449   0.10412   0.58208   0.00000  Uiso   1.00
H1442  H     0.37604   0.11923   0.57557   0.00000  Uiso   1.00
H1443  H     0.34283   0.17716   0.57223   0.00000  Uiso   1.00
H1444  H     0.34239   0.18934   0.52416   0.00000  Uiso   1.00
H1445  H     0.65121   0.05586   0.51202   0.00000  Uiso   1.00
H1446  H     0.63694   0.10470   0.53816   0.00000  Uiso   1.00
N1447  N     0.39099   0.22398   0.54805   0.00000  Uiso   1.00
N1448  N     0.35596   0.20725   0.71632   0.00000  Uiso   1.00
N1449  N     0.44211   0.32862   0.78441   0.00000  Uiso   1.00
N1450  N     0.57427   0.08018   0.60160   0.00000  Uiso   1.00
N1451  N     0.55060   0.05483   0.96243   0.00000  Uiso   1.00
N1452  N     0.44149   0.26361   0.90529   0.00000  Uiso   1.00
N1453  N     0.42204   0.16906   0.58644   0.00000  Uiso   1.00
O1454  O     0.50000   0.16667   0.75000   0.00000  Uiso   1.00
O1455  O     0.49027   0.12393   0.66625   0.00000  Uiso   1.00
O1456  O     0.46020   0.20646   0.83749   0.00000  Uiso   1.00
O1457  O     0.54421   0.17493   0.65877   0.00000  Uiso   1.00
O1458  O     0.50532   0.16135   0.83749   0.00000  Uiso   1.00
O1459  O     0.58787   0.06278   0.51963   0.00000  Uiso   1.00
O1460  O     0.64666   0.12378   0.78221   0.00000  Uiso   1.00
O1461  O     0.40688   0.26222   0.98617   0.00000  Uiso   1.00
O1462  O     0.52549   0.15580   0.90025   0.00000  Uiso   1.00
O1463  O     0.51182   0.08101   0.77821   0.00000  Uiso   1.00
O1464  O     0.47914   0.26136   0.76767   0.00000  Uiso   1.00
O1465  O     0.40785   0.13251   0.73607   0.00000  Uiso   1.00
O1466  O     0.60119   0.19179   0.71806   0.00000  Uiso   1.00
O1467  O     0.40323   0.18960   0.77820   0.00000  Uiso   1.00
O1468  O     0.58773   0.15277   0.76768   0.00000  Uiso   1.00
O1469  O     0.47133   0.06903   0.73607   0.00000  Uiso   1.00
O1470  O     0.53771   0.25527   0.71806   0.00000  Uiso   1.00
Zn1471 Zn    0.52577   0.14090   0.78278   0.00000  Uiso   1.00
Zn1472 Zn    0.46792   0.12378   0.72258   0.00000  Uiso   1.00
Zn1473 Zn    0.54500   0.19664   0.71188   0.00000  Uiso   1.00
Zn1474 Zn    0.46131   0.20535   0.78277   0.00000  Uiso   1.00
C1475  C     0.71933   0.15972   0.75875   0.00000  Uiso   1.00
C1476  C     0.84141   0.11149   0.96380   0.00000  Uiso   1.00
C1477  C     0.86427   0.09135   0.98225   0.00000  Uiso   1.00
C1478  C     0.94764   0.17351   0.74144   0.00000  Uiso   1.00
C1479  C     0.86595   0.10674   0.52144   0.00000  Uiso   1.00
C1480  C     0.83916   0.13801   0.54282   0.00000  Uiso   1.00
C1481  C     0.89309   0.09157   0.54018   0.00000  Uiso   1.00
C1482  C     0.88875   0.10314   0.58096   0.00000  Uiso   1.00
C1483  C     0.84126   0.15372   0.58145   0.00000  Uiso   1.00
C1484  C     0.99326   0.17828   0.74039   0.00000  Uiso   1.00
C1485  C     0.67371   0.15597   0.76270   0.00000  Uiso   1.00
C1486  C     0.77805   0.22815   0.92276   0.00000  Uiso   1.00
C1487  C     0.84772   0.32242   0.74070   0.00000  Uiso   1.00
C1488  C     0.81660   0.01250   0.76221   0.00000  Uiso   1.00
C1489  C     0.82298   0.05617   0.75837   0.00000  Uiso   1.00
C1490  C     0.84338   0.27765   0.74171   0.00000  Uiso   1.00
C1491  C     0.85457   0.14520   0.64394   0.00000  Uiso   1.00
C1492  C     0.81296   0.18863   0.85647   0.00000  Uiso   1.00
C1493  C     0.80337   0.19672   0.90058   0.00000  Uiso   1.00
C1494  C     0.86324   0.13487   0.60115   0.00000  Uiso   1.00
C1495  C     0.76199   0.22904   0.96436   0.00000  Uiso   1.00
C1496  C     0.68125   0.20248   0.55327   0.00000  Uiso   1.00
C1497  C     0.82155   0.17367   0.92092   0.00000  Uiso   1.00
C1498  C     0.96461   0.08110   0.51354   0.00000  Uiso   1.00
C1499  C     0.98036   0.10090   0.97460   0.00000  Uiso   1.00
C1500  C     0.69603   0.11115   0.96272   0.00000  Uiso   1.00
C1501  C     0.69188   0.24953   0.73553   0.00000  Uiso   1.00
C1502  C     0.98731   0.12098   0.81928   0.00000  Uiso   1.00
C1503  C     0.67725   0.08281   0.81677   0.00000  Uiso   1.00
C1504  C     0.68839   0.08100   0.85542   0.00000  Uiso   1.00
C1505  C     0.77167   0.33010   0.82623   0.00000  Uiso   1.00
C1506  C     0.94011   0.10279   0.61985   0.00000  Uiso   1.00
C1507  C     0.89802   0.04903   0.91952   0.00000  Uiso   1.00
C1508  C     0.80466   0.17239   0.96251   0.00000  Uiso   1.00
C1509  C     0.70180   0.26463   0.97566   0.00000  Uiso   1.00
C1510  C     0.69989   0.30985   0.96999   0.00000  Uiso   1.00
C1511  C     0.66698   0.31281   0.94767   0.00000  Uiso   1.00
C1512  C     0.81279   0.29373   0.89925   0.00000  Uiso   1.00
C1513  C     0.89563   0.18249   0.90599   0.00000  Uiso   1.00
C1514  C     0.91644   0.20652   0.86999   0.00000  Uiso   1.00
C1515  C     0.95736   0.23383   0.87439   0.00000  Uiso   1.00
C1516  C     0.73416   0.12731   0.59223   0.00000  Uiso   1.00
C1517  C     0.77448   0.20042   0.98443   0.00000  Uiso   1.00
C1518  C     0.82005   0.14637   0.98309   0.00000  Uiso   1.00
C1519  C     0.81222   0.15412   0.52451   0.00000  Uiso   1.00
C1520  C     0.77645   0.17584   0.54610   0.00000  Uiso   1.00
C1521  C     0.75835   0.19990   0.52616   0.00000  Uiso   1.00
H1522  H     0.87724   0.00357   0.72190   0.00000  Uiso   1.00
H1523  H     0.97093   0.07907   0.95063   0.00000  Uiso   1.00
H1524  H     0.96499   0.12991   0.97799   0.00000  Uiso   1.00
H1525  H     0.70711   0.12954   0.98762   0.00000  Uiso   1.00
H1526  H     0.70606   0.12955   0.93699   0.00000  Uiso   1.00
H1527  H     0.71186   0.08202   0.95425   0.00000  Uiso   1.00
H1528  H     0.68465   0.20591   0.68854   0.00000  Uiso   1.00
H1529  H     0.71752   0.26932   0.71607   0.00000  Uiso   1.00
H1530  H     0.70004   0.25064   0.76406   0.00000  Uiso   1.00
H1531  H     0.99400   0.26239   0.74121   0.00000  Uiso   1.00
H1532  H     0.95533   0.11673   0.84124   0.00000  Uiso   1.00
H1533  H     0.82500   0.18026   0.59730   0.00000  Uiso   1.00
H1534  H     0.67140   0.14979   0.83120   0.00000  Uiso   1.00
H1535  H     0.98947   0.05408   0.81047   0.00000  Uiso   1.00
H1536  H     0.70748   0.08371   0.79232   0.00000  Uiso   1.00
H1537  H     0.71256   0.10757   0.86038   0.00000  Uiso   1.00
H1538  H     0.70197   0.05146   0.85398   0.00000  Uiso   1.00
H1539  H     0.99240   0.08216   0.88071   0.00000  Uiso   1.00
H1540  H     0.75011   0.00747   0.77967   0.00000  Uiso   1.00
H1541  H     0.73980   0.31429   0.84124   0.00000  Uiso   1.00
H1542  H     0.77479   0.02960   0.83991   0.00000  Uiso   1.00
H1543  H     0.79720   0.31377   0.83050   0.00000  Uiso   1.00
H1544  H     0.83840   0.09843   0.93478   0.00000  Uiso   1.00
H1545  H     0.88569   0.05993   0.61921   0.00000  Uiso   1.00
H1546  H     0.96813   0.08464   0.61234   0.00000  Uiso   1.00
H1547  H     0.92696   0.10692   0.65262   0.00000  Uiso   1.00
H1548  H     0.95141   0.13395   0.60932   0.00000  Uiso   1.00
H1549  H     0.87094   0.02801   0.97564   0.00000  Uiso   1.00
H1550  H     0.87009   0.03814   0.90718   0.00000  Uiso   1.00
H1551  H     0.92092   0.02509   0.90978   0.00000  Uiso   1.00
H1552  H     0.91476   0.07858   0.90782   0.00000  Uiso   1.00
H1553  H     0.67372   0.25558   0.50042   0.00000  Uiso   1.00
H1554  H     0.69779   0.24327   0.94895   0.00000  Uiso   1.00
H1555  H     0.72933   0.24190   0.57320   0.00000  Uiso   1.00
H1556  H     0.69136   0.32854   0.99947   0.00000  Uiso   1.00
H1557  H     0.73193   0.32360   0.95308   0.00000  Uiso   1.00
H1558  H     0.67693   0.29631   0.91730   0.00000  Uiso   1.00
H1559  H     0.99889   0.01256   0.94495   0.00000  Uiso   1.00
H1560  H     0.96781   0.29906   0.96363   0.00000  Uiso   1.00
H1561  H     0.75931   0.25874   0.88320   0.00000  Uiso   1.00
H1562  H     0.83794   0.28288   0.87256   0.00000  Uiso   1.00
H1563  H     0.82587   0.29874   0.92554   0.00000  Uiso   1.00
H1564  H     0.80410   0.32408   0.89531   0.00000  Uiso   1.00
H1565  H     0.91917   0.16259   0.90889   0.00000  Uiso   1.00
H1566  H     0.99062   0.22478   0.56785   0.00000  Uiso   1.00
H1567  H     0.88899   0.20473   0.93368   0.00000  Uiso   1.00
H1568  H     0.92444   0.18420   0.84278   0.00000  Uiso   1.00
H1569  H     0.89351   0.22681   0.86667   0.00000  Uiso   1.00
H1570  H     0.94909   0.25809   0.89996   0.00000  Uiso   1.00
H1571  H     0.97265   0.24938   0.84714   0.00000  Uiso   1.00
H1572  H     0.98072   0.21484   0.87906   0.00000  Uiso   1.00
H1573  H     0.73759   0.19189   0.60386   0.00000  Uiso   1.00
H1574  H     0.71831   0.12542   0.62426   0.00000  Uiso   1.00
H1575  H     0.75782   0.10412   0.58208   0.00000  Uiso   1.00
H1576  H     0.70937   0.11923   0.57557   0.00000  Uiso   1.00
H1577  H     0.67616   0.17716   0.57223   0.00000  Uiso   1.00
H1578  H     0.67572   0.18934   0.52416   0.00000  Uiso   1.00
H1579  H     0.98454   0.05586   0.51202   0.00000  Uiso   1.00
H1580  H     0.97028   0.10470   0.53816   0.00000  Uiso   1.00
N1581  N     0.72432   0.22398   0.54805   0.00000  Uiso   1.00
N1582  N     0.68930   0.20725   0.71632   0.00000  Uiso   1.00
N1583  N     0.77545   0.32862   0.78441   0.00000  Uiso   1.00
N1584  N     0.90760   0.08018   0.60160   0.00000  Uiso   1.00
N1585  N     0.88394   0.05483   0.96243   0.00000  Uiso   1.00
N1586  N     0.77482   0.26361   0.90529   0.00000  Uiso   1.00
N1587  N     0.75537   0.16906   0.58644   0.00000  Uiso   1.00
O1588  O     0.83333   0.16667   0.75000   0.00000  Uiso   1.00
O1589  O     0.82360   0.12393   0.66625   0.00000  Uiso   1.00
O1590  O     0.79354   0.20646   0.83749   0.00000  Uiso   1.00
O1591  O     0.87755   0.17493   0.65877   0.00000  Uiso   1.00
O1592  O     0.83865   0.16135   0.83749   0.00000  Uiso   1.00
O1593  O     0.92121   0.06278   0.51963   0.00000  Uiso   1.00
O1594  O     0.97999   0.12378   0.78221   0.00000  Uiso   1.00
O1595  O     0.74021   0.26222   0.98617   0.00000  Uiso   1.00
O1596  O     0.85882   0.15580   0.90025   0.00000  Uiso   1.00
O1597  O     0.84515   0.08101   0.77821   0.00000  Uiso   1.00
O1598  O     0.81247   0.26136   0.76767   0.00000  Uiso   1.00
O1599  O     0.74119   0.13251   0.73607   0.00000  Uiso   1.00
O1600  O     0.93452   0.19179   0.71806   0.00000  Uiso   1.00
O1601  O     0.73656   0.18960   0.77820   0.00000  Uiso   1.00
O1602  O     0.92106   0.15277   0.76768   0.00000  Uiso   1.00
O1603  O     0.80467   0.06903   0.73607   0.00000  Uiso   1.00
O1604  O     0.87104   0.25527   0.71806   0.00000  Uiso   1.00
Zn1605 Zn    0.85910   0.14090   0.78278   0.00000  Uiso   1.00
Zn1606 Zn    0.80125   0.12378   0.72258   0.00000  Uiso   1.00
Zn1607 Zn    0.87833   0.19664   0.71188   0.00000  Uiso   1.00
Zn1608 Zn    0.79465   0.20535   0.78277   0.00000  Uiso   1.00
C1609  C     0.05267   0.49306   0.75875   0.00000  Uiso   1.00
C1610  C     0.17475   0.44482   0.96380   0.00000  Uiso   1.00
C1611  C     0.19761   0.42469   0.98225   0.00000  Uiso   1.00
C1612  C     0.28098   0.50684   0.74144   0.00000  Uiso   1.00
C1613  C     0.19928   0.44008   0.52144   0.00000  Uiso   1.00
C1614  C     0.17249   0.47135   0.54282   0.00000  Uiso   1.00
C1615  C     0.22642   0.42491   0.54018   0.00000  Uiso   1.00
C1616  C     0.22208   0.43648   0.58096   0.00000  Uiso   1.00
C1617  C     0.17460   0.48705   0.58145   0.00000  Uiso   1.00
C1618  C     0.32659   0.51161   0.74039   0.00000  Uiso   1.00
C1619  C     0.00705   0.48930   0.76270   0.00000  Uiso   1.00
C1620  C     0.11138   0.56149   0.92276   0.00000  Uiso   1.00
C1621  C     0.18105   0.65576   0.74070   0.00000  Uiso   1.00
C1622  C     0.14994   0.34584   0.76221   0.00000  Uiso   1.00
C1623  C     0.15631   0.38950   0.75837   0.00000  Uiso   1.00
C1624  C     0.17672   0.61098   0.74171   0.00000  Uiso   1.00
C1625  C     0.18790   0.47853   0.64394   0.00000  Uiso   1.00
C1626  C     0.14630   0.52197   0.85647   0.00000  Uiso   1.00
C1627  C     0.13670   0.53006   0.90058   0.00000  Uiso   1.00
C1628  C     0.19657   0.46820   0.60115   0.00000  Uiso   1.00
C1629  C     0.09532   0.56238   0.96436   0.00000  Uiso   1.00
C1630  C     0.01458   0.53581   0.55327   0.00000  Uiso   1.00
C1631  C     0.15488   0.50700   0.92092   0.00000  Uiso   1.00
C1632  C     0.29794   0.41443   0.51354   0.00000  Uiso   1.00
C1633  C     0.31369   0.43423   0.97460   0.00000  Uiso   1.00
C1634  C     0.02936   0.44449   0.96272   0.00000  Uiso   1.00
C1635  C     0.02521   0.58286   0.73553   0.00000  Uiso   1.00
C1636  C     0.32064   0.45431   0.81928   0.00000  Uiso   1.00
C1637  C     0.01059   0.41614   0.81677   0.00000  Uiso   1.00
C1638  C     0.02172   0.41433   0.85542   0.00000  Uiso   1.00
C1639  C     0.10501   0.66343   0.82623   0.00000  Uiso   1.00
C1640  C     0.27344   0.43612   0.61985   0.00000  Uiso   1.00
C1641  C     0.23135   0.38236   0.91952   0.00000  Uiso   1.00
C1642  C     0.13800   0.50572   0.96251   0.00000  Uiso   1.00
C1643  C     0.03513   0.59796   0.97566   0.00000  Uiso   1.00
C1644  C     0.03322   0.64319   0.96999   0.00000  Uiso   1.00
C1645  C     0.00032   0.64615   0.94767   0.00000  Uiso   1.00
C1646  C     0.14612   0.62706   0.89925   0.00000  Uiso   1.00
C1647  C     0.22896   0.51583   0.90599   0.00000  Uiso   1.00
C1648  C     0.24977   0.53985   0.86999   0.00000  Uiso   1.00
C1649  C     0.29070   0.56716   0.87439   0.00000  Uiso   1.00
C1650  C     0.06749   0.46064   0.59223   0.00000  Uiso   1.00
C1651  C     0.10781   0.53375   0.98443   0.00000  Uiso   1.00
C1652  C     0.15339   0.47970   0.98309   0.00000  Uiso   1.00
C1653  C     0.14556   0.48746   0.52451   0.00000  Uiso   1.00
C1654  C     0.10978   0.50917   0.54610   0.00000  Uiso   1.00
C1655  C     0.09169   0.53323   0.52616   0.00000  Uiso   1.00
H1656  H     0.21058   0.33691   0.72190   0.00000  Uiso   1.00
H1657  H     0.30426   0.41241   0.95063   0.00000  Uiso   1.00
H1658  H     0.29832   0.46324   0.97799   0.00000  Uiso   1.00
H1659  H     0.04044   0.46287   0.98762   0.00000  Uiso   1.00
H1660  H     0.03939   0.46288   0.93699   0.00000  Uiso   1.00
H1661  H     0.04520   0.41536   0.95425   0.00000  Uiso   1.00
H1662  H     0.01798   0.53924   0.68854   0.00000  Uiso   1.00
H1663  H     0.05085   0.60265   0.71607   0.00000  Uiso   1.00
H1664  H     0.03338   0.58397   0.76406   0.00000  Uiso   1.00
H1665  H     0.32733   0.59572   0.74121   0.00000  Uiso   1.00
H1666  H     0.28867   0.45006   0.84124   0.00000  Uiso   1.00
H1667  H     0.15833   0.51359   0.59730   0.00000  Uiso   1.00
H1668  H     0.00474   0.48312   0.83120   0.00000  Uiso   1.00
H1669  H     0.32281   0.38742   0.81047   0.00000  Uiso   1.00
H1670  H     0.04082   0.41704   0.79232   0.00000  Uiso   1.00
H1671  H     0.04590   0.44091   0.86038   0.00000  Uiso   1.00
H1672  H     0.03531   0.38479   0.85398   0.00000  Uiso   1.00
H1673  H     0.32573   0.41549   0.88071   0.00000  Uiso   1.00
H1674  H     0.08345   0.34080   0.77967   0.00000  Uiso   1.00
H1675  H     0.07313   0.64762   0.84124   0.00000  Uiso   1.00
H1676  H     0.10812   0.36294   0.83991   0.00000  Uiso   1.00
H1677  H     0.13054   0.64710   0.83050   0.00000  Uiso   1.00
H1678  H     0.17174   0.43177   0.93478   0.00000  Uiso   1.00
H1679  H     0.21903   0.39326   0.61921   0.00000  Uiso   1.00
H1680  H     0.30146   0.41797   0.61234   0.00000  Uiso   1.00
H1681  H     0.26030   0.44026   0.65262   0.00000  Uiso   1.00
H1682  H     0.28474   0.46728   0.60932   0.00000  Uiso   1.00
H1683  H     0.20427   0.36135   0.97564   0.00000  Uiso   1.00
H1684  H     0.20342   0.37147   0.90718   0.00000  Uiso   1.00
H1685  H     0.25425   0.35842   0.90978   0.00000  Uiso   1.00
H1686  H     0.24809   0.41192   0.90782   0.00000  Uiso   1.00
H1687  H     0.00705   0.58891   0.50042   0.00000  Uiso   1.00
H1688  H     0.03112   0.57660   0.94895   0.00000  Uiso   1.00
H1689  H     0.06266   0.57523   0.57320   0.00000  Uiso   1.00
H1690  H     0.02469   0.66187   0.99947   0.00000  Uiso   1.00
H1691  H     0.06527   0.65693   0.95308   0.00000  Uiso   1.00
H1692  H     0.01026   0.62965   0.91730   0.00000  Uiso   1.00
H1693  H     0.33223   0.34589   0.94495   0.00000  Uiso   1.00
H1694  H     0.30114   0.63239   0.96363   0.00000  Uiso   1.00
H1695  H     0.09264   0.59207   0.88320   0.00000  Uiso   1.00
H1696  H     0.17128   0.61621   0.87256   0.00000  Uiso   1.00
H1697  H     0.15921   0.63207   0.92554   0.00000  Uiso   1.00
H1698  H     0.13744   0.65741   0.89531   0.00000  Uiso   1.00
H1699  H     0.25250   0.49592   0.90889   0.00000  Uiso   1.00
H1700  H     0.32396   0.55812   0.56785   0.00000  Uiso   1.00
H1701  H     0.22233   0.53806   0.93368   0.00000  Uiso   1.00
H1702  H     0.25777   0.51753   0.84278   0.00000  Uiso   1.00
H1703  H     0.22684   0.56015   0.86667   0.00000  Uiso   1.00
H1704  H     0.28242   0.59142   0.89996   0.00000  Uiso   1.00
H1705  H     0.30598   0.58271   0.84714   0.00000  Uiso   1.00
H1706  H     0.31405   0.54817   0.87906   0.00000  Uiso   1.00
H1707  H     0.07092   0.52522   0.60386   0.00000  Uiso   1.00
H1708  H     0.05164   0.45875   0.62426   0.00000  Uiso   1.00
H1709  H     0.09116   0.43745   0.58208   0.00000  Uiso   1.00
H1710  H     0.04270   0.45256   0.57557   0.00000  Uiso   1.00
H1711  H     0.00950   0.51049   0.57223   0.00000  Uiso   1.00
H1712  H     0.00906   0.52268   0.52416   0.00000  Uiso   1.00
H1713  H     0.31788   0.38919   0.51202   0.00000  Uiso   1.00
H1714  H     0.30361   0.43804   0.53816   0.00000  Uiso   1.00
N1715  N     0.05765   0.55731   0.54805   0.00000  Uiso   1.00
N1716  N     0.02263   0.54058   0.71632   0.00000  Uiso   1.00
N1717  N     0.10878   0.66195   0.78441   0.00000  Uiso   1.00
N1718  N     0.24094   0.41351   0.60160   0.00000  Uiso   1.00
N1719  N     0.21727   0.38816   0.96243   0.00000  Uiso   1.00
N1720  N     0.10815   0.59694   0.90529   0.00000  Uiso   1.00
N1721  N     0.08870   0.50239   0.58644   0.00000  Uiso   1.00
O1722  O     0.16667   0.50000   0.75000   0.00000  Uiso   1.00
O1723  O     0.15693   0.45726   0.66625   0.00000  Uiso   1.00
O1724  O     0.12687   0.53979   0.83749   0.00000  Uiso   1.00
O1725  O     0.21088   0.50826   0.65877   0.00000  Uiso   1.00
O1726  O     0.17198   0.49468   0.83749   0.00000  Uiso   1.00
O1727  O     0.25454   0.39612   0.51963   0.00000  Uiso   1.00
O1728  O     0.31332   0.45711   0.78221   0.00000  Uiso   1.00
O1729  O     0.07354   0.59555   0.98617   0.00000  Uiso   1.00
O1730  O     0.19216   0.48913   0.90025   0.00000  Uiso   1.00
O1731  O     0.17849   0.41434   0.77821   0.00000  Uiso   1.00
O1732  O     0.14581   0.59469   0.76767   0.00000  Uiso   1.00
O1733  O     0.07452   0.46584   0.73607   0.00000  Uiso   1.00
O1734  O     0.26785   0.52512   0.71806   0.00000  Uiso   1.00
O1735  O     0.06990   0.52293   0.77820   0.00000  Uiso   1.00
O1736  O     0.25440   0.48610   0.76768   0.00000  Uiso   1.00
O1737  O     0.13800   0.40236   0.73607   0.00000  Uiso   1.00
O1738  O     0.20437   0.58860   0.71806   0.00000  Uiso   1.00
Zn1739 Zn    0.19244   0.47423   0.78278   0.00000  Uiso   1.00
Zn1740 Zn    0.13459   0.45711   0.72258   0.00000  Uiso   1.00
Zn1741 Zn    0.21166   0.52997   0.71188   0.00000  Uiso   1.00
Zn1742 Zn    0.12798   0.53868   0.78277   0.00000  Uiso   1.00
C1743  C     0.38600   0.49306   0.75875   0.00000  Uiso   1.00
C1744  C     0.50808   0.44482   0.96380   0.00000  Uiso   1.00
C1745  C     0.53094   0.42469   0.98225   0.00000  Uiso   1.00
C1746  C     0.61431   0.50684   0.74144   0.00000  Uiso   1.00
C1747  C     0.53262   0.44008   0.52144   0.00000  Uiso   1.00
C1748  C     0.50583   0.47135   0.54282   0.00000  Uiso   1.00
C1749  C     0.55976   0.42491   0.54018   0.00000  Uiso   1.00
C1750  C     0.55542   0.43648   0.58096   0.00000  Uiso   1.00
C1751  C     0.50793   0.48705   0.58145   0.00000  Uiso   1.00
C1752  C     0.65992   0.51161   0.74039   0.00000  Uiso   1.00
C1753  C     0.34038   0.48930   0.76270   0.00000  Uiso   1.00
C1754  C     0.44472   0.56149   0.92276   0.00000  Uiso   1.00
C1755  C     0.51439   0.65576   0.74070   0.00000  Uiso   1.00
C1756  C     0.48327   0.34584   0.76221   0.00000  Uiso   1.00
C1757  C     0.48965   0.38950   0.75837   0.00000  Uiso   1.00
C1758  C     0.51005   0.61098   0.74171   0.00000  Uiso   1.00
C1759  C     0.52124   0.47853   0.64394   0.00000  Uiso   1.00
C1760  C     0.47963   0.52197   0.85647   0.00000  Uiso   1.00
C1761  C     0.47003   0.53006   0.90058   0.00000  Uiso   1.00
C1762  C     0.52991   0.46820   0.60115   0.00000  Uiso   1.00
C1763  C     0.42865   0.56238   0.96436   0.00000  Uiso   1.00
C1764  C     0.34792   0.53581   0.55327   0.00000  Uiso   1.00
C1765  C     0.48821   0.50700   0.92092   0.00000  Uiso   1.00
C1766  C     0.63127   0.41443   0.51354   0.00000  Uiso   1.00
C1767  C     0.64702   0.43423   0.97460   0.00000  Uiso   1.00
C1768  C     0.36269   0.44449   0.96272   0.00000  Uiso   1.00
C1769  C     0.35855   0.58286   0.73553   0.00000  Uiso   1.00
C1770  C     0.65397   0.45431   0.81928   0.00000  Uiso   1.00
C1771  C     0.34392   0.41614   0.81677   0.00000  Uiso   1.00
C1772  C     0.35505   0.41433   0.85542   0.00000  Uiso   1.00
C1773  C     0.43834   0.66343   0.82623   0.00000  Uiso   1.00
C1774  C     0.60677   0.43612   0.61985   0.00000  Uiso   1.00
C1775  C     0.56468   0.38236   0.91952   0.00000  Uiso   1.00
C1776  C     0.47133   0.50572   0.96251   0.00000  Uiso   1.00
C1777  C     0.36846   0.59796   0.97566   0.00000  Uiso   1.00
C1778  C     0.36655   0.64319   0.96999   0.00000  Uiso   1.00
C1779  C     0.33365   0.64615   0.94767   0.00000  Uiso   1.00
C1780  C     0.47946   0.62706   0.89925   0.00000  Uiso   1.00
C1781  C     0.56230   0.51583   0.90599   0.00000  Uiso   1.00
C1782  C     0.58310   0.53985   0.86999   0.00000  Uiso   1.00
C1783  C     0.62403   0.56716   0.87439   0.00000  Uiso   1.00
C1784  C     0.40082   0.46064   0.59223   0.00000  Uiso   1.00
C1785  C     0.44115   0.53375   0.98443   0.00000  Uiso   1.00
C1786  C     0.48672   0.47970   0.98309   0.00000  Uiso   1.00
C1787  C     0.47889   0.48746   0.52451   0.00000  Uiso   1.00
C1788  C     0.44312   0.50917   0.54610   0.00000  Uiso   1.00
C1789  C     0.42502   0.53323   0.52616   0.00000  Uiso   1.00
H1790  H     0.54391   0.33691   0.72190   0.00000  Uiso   1.00
H1791  H     0.63760   0.41241   0.95063   0.00000  Uiso   1.00
H1792  H     0.63165   0.46324   0.97799   0.00000  Uiso   1.00
H1793  H     0.37377   0.46287   0.98762   0.00000  Uiso   1.00
H1794  H     0.37272   0.46288   0.93699   0.00000  Uiso   1.00
H1795  H     0.37853   0.41536   0.95425   0.00000  Uiso   1.00
H1796  H     0.35131   0.53924   0.68854   0.00000  Uiso   1.00
H1797  H     0.38418   0.60265   0.71607   0.00000  Uiso   1.00
H1798  H     0.36671   0.58397   0.76406   0.00000  Uiso   1.00
H1799  H     0.66067   0.59572   0.74121   0.00000  Uiso   1.00
H1800  H     0.62200   0.45006   0.84124   0.00000  Uiso   1.00
H1801  H     0.49166   0.51359   0.59730   0.00000  Uiso   1.00
H1802  H     0.33807   0.48312   0.83120   0.00000  Uiso   1.00
H1803  H     0.65614   0.38742   0.81047   0.00000  Uiso   1.00
H1804  H     0.37415   0.41704   0.79232   0.00000  Uiso   1.00
H1805  H     0.37923   0.44091   0.86038   0.00000  Uiso   1.00
H1806  H     0.36864   0.38479   0.85398   0.00000  Uiso   1.00
H1807  H     0.65907   0.41549   0.88071   0.00000  Uiso   1.00
H1808  H     0.41678   0.34080   0.77967   0.00000  Uiso   1.00
H1809  H     0.40646   0.64762   0.84124   0.00000  Uiso   1.00
H1810  H     0.44145   0.36294   0.83991   0.00000  Uiso   1.00
H1811  H     0.46387   0.64710   0.83050   0.00000  Uiso   1.00
H1812  H     0.50507   0.43177   0.93478   0.00000  Uiso   1.00
H1813  H     0.55236   0.39326   0.61921   0.00000  Uiso   1.00
H1814  H     0.63479   0.41797   0.61234   0.00000  Uiso   1.00
H1815  H     0.59363   0.44026   0.65262   0.00000  Uiso   1.00
H1816  H     0.61807   0.46728   0.60932   0.00000  Uiso   1.00
H1817  H     0.53760   0.36135   0.97564   0.00000  Uiso   1.00
H1818  H     0.53676   0.37147   0.90718   0.00000  Uiso   1.00
H1819  H     0.58759   0.35842   0.90978   0.00000  Uiso   1.00
H1820  H     0.58142   0.41192   0.90782   0.00000  Uiso   1.00
H1821  H     0.34038   0.58891   0.50042   0.00000  Uiso   1.00
H1822  H     0.36446   0.57660   0.94895   0.00000  Uiso   1.00
H1823  H     0.39599   0.57523   0.57320   0.00000  Uiso   1.00
H1824  H     0.35803   0.66187   0.99947   0.00000  Uiso   1.00
H1825  H     0.39860   0.65693   0.95308   0.00000  Uiso   1.00
H1826  H     0.34359   0.62965   0.91730   0.00000  Uiso   1.00
H1827  H     0.66556   0.34589   0.94495   0.00000  Uiso   1.00
H1828  H     0.63447   0.63239   0.96363   0.00000  Uiso   1.00
H1829  H     0.42597   0.59207   0.88320   0.00000  Uiso   1.00
H1830  H     0.50461   0.61621   0.87256   0.00000  Uiso   1.00
H1831  H     0.49254   0.63207   0.92554   0.00000  Uiso   1.00
H1832  H     0.47077   0.65741   0.89531   0.00000  Uiso   1.00
H1833  H     0.58583   0.49592   0.90889   0.00000  Uiso   1.00
H1834  H     0.65729   0.55812   0.56785   0.00000  Uiso   1.00
H1835  H     0.55566   0.53806   0.93368   0.00000  Uiso   1.00
H1836  H     0.59110   0.51753   0.84278   0.00000  Uiso   1.00
H1837  H     0.56017   0.56015   0.86667   0.00000  Uiso   1.00
H1838  H     0.61575   0.59142   0.89996   0.00000  Uiso   1.00
H1839  H     0.63931   0.58271   0.84714   0.00000  Uiso   1.00
H1840  H     0.64738   0.54817   0.87906   0.00000  Uiso   1.00
H1841  H     0.40426   0.52522   0.60386   0.00000  Uiso   1.00
H1842  H     0.38497   0.45875   0.62426   0.00000  Uiso   1.00
H1843  H     0.42449   0.43745   0.58208   0.00000  Uiso   1.00
H1844  H     0.37604   0.45256   0.57557   0.00000  Uiso   1.00
H1845  H     0.34283   0.51049   0.57223   0.00000  Uiso   1.00
H1846  H     0.34239   0.52268   0.52416   0.00000  Uiso   1.00
H1847  H     0.65121   0.38919   0.51202   0.00000  Uiso   1.00
H1848  H     0.63694   0.43804   0.53816   0.00000  Uiso   1.00
N1849  N     0.39099   0.55731   0.54805   0.00000  Uiso   1.00
N1850  N     0.35596   0.54058   0.71632   0.00000  Uiso   1.00
N1851  N     0.44211   0.66195   0.78441   0.00000  Uiso   1.00
N1852  N     0.57427   0.41351   0.60160   0.00000  Uiso   1.00
N1853  N     0.55060   0.38816   0.96243   0.00000  Uiso   1.00
N1854  N     0.44149   0.59694   0.90529   0.00000  Uiso   1.00
N1855  N     0.42204   0.50239   0.58644   0.00000  Uiso   1.00
O1856  O     0.50000   0.50000   0.75000   0.00000  Uiso   1.00
O1857  O     0.49027   0.45726   0.66625   0.00000  Uiso   1.00
O1858  O     0.46020   0.53979   0.83749   0.00000  Uiso   1.00
O1859  O     0.54421   0.50826   0.65877   0.00000  Uiso   1.00
O1860  O     0.50532   0.49468   0.83749   0.00000  Uiso   1.00
O1861  O     0.58787   0.39612   0.51963   0.00000  Uiso   1.00
O1862  O     0.64666   0.45711   0.78221   0.00000  Uiso   1.00
O1863  O     0.40688   0.59555   0.98617   0.00000  Uiso   1.00
O1864  O     0.52549   0.48913   0.90025   0.00000  Uiso   1.00
O1865  O     0.51182   0.41434   0.77821   0.00000  Uiso   1.00
O1866  O     0.47914   0.59469   0.76767   0.00000  Uiso   1.00
O1867  O     0.40785   0.46584   0.73607   0.00000  Uiso   1.00
O1868  O     0.60119   0.52512   0.71806   0.00000  Uiso   1.00
O1869  O     0.40323   0.52293   0.77820   0.00000  Uiso   1.00
O1870  O     0.58773   0.48610   0.76768   0.00000  Uiso   1.00
O1871  O     0.47133   0.40236   0.73607   0.00000  Uiso   1.00
O1872  O     0.53771   0.58860   0.71806   0.00000  Uiso   1.00
Zn1873 Zn    0.52577   0.47423   0.78278   0.00000  Uiso   1.00
Zn1874 Zn    0.46792   0.45711   0.72258   0.00000  Uiso   1.00
Zn1875 Zn    0.54500   0.52997   0.71188   0.00000  Uiso   1.00
Zn1876 Zn    0.46131   0.53868   0.78277   0.00000  Uiso   1.00
C1877  C     0.71933   0.49306   0.75875   0.00000  Uiso   1.00
C1878  C     0.84141   0.44482   0.96380   0.00000  Uiso   1.00
C1879  C     0.86427   0.42469   0.98225   0.00000  Uiso   1.00
C1880  C     0.94764   0.50684   0.74144   0.00000  Uiso   1.00
C1881  C     0.86595   0.44008   0.52144   0.00000  Uiso   1.00
C1882  C     0.83916   0.47135   0.54282   0.00000  Uiso   1.00
C1883  C     0.89309   0.42491   0.54018   0.00000  Uiso   1.00
C1884  C     0.88875   0.43648   0.58096   0.00000  Uiso   1.00
C1885  C     0.84126   0.48705   0.58145   0.00000  Uiso   1.00
C1886  C     0.99326   0.51161   0.74039   0.00000  Uiso   1.00
C1887  C     0.67371   0.48930   0.76270   0.00000  Uiso   1.00
C1888  C     0.77805   0.56149   0.92276   0.00000  Uiso   1.00
C1889  C     0.84772   0.65576   0.74070   0.00000  Uiso   1.00
C1890  C     0.81660   0.34584   0.76221   0.00000  Uiso   1.00
C1891  C     0.82298   0.38950   0.75837   0.00000  Uiso   1.00
C1892  C     0.84338   0.61098   0.74171   0.00000  Uiso   1.00
C1893  C     0.85457   0.47853   0.64394   0.00000  Uiso   1.00
C1894  C     0.81296   0.52197   0.85647   0.00000  Uiso   1.00
C1895  C     0.80337   0.53006   0.90058   0.00000  Uiso   1.00
C1896  C     0.86324   0.46820   0.60115   0.00000  Uiso   1.00
C1897  C     0.76199   0.56238   0.96436   0.00000  Uiso   1.00
C1898  C     0.68125   0.53581   0.55327   0.00000  Uiso   1.00
C1899  C     0.82155   0.50700   0.92092   0.00000  Uiso   1.00
C1900  C     0.96461   0.41443   0.51354   0.00000  Uiso   1.00
C1901  C     0.98036   0.43423   0.97460   0.00000  Uiso   1.00
C1902  C     0.69603   0.44449   0.96272   0.00000  Uiso   1.00
C1903  C     0.69188   0.58286   0.73553   0.00000  Uiso   1.00
C1904  C     0.98731   0.45431   0.81928   0.00000  Uiso   1.00
C1905  C     0.67725   0.41614   0.81677   0.00000  Uiso   1.00
C1906  C     0.68839   0.41433   0.85542   0.00000  Uiso   1.00
C1907  C     0.77167   0.66343   0.82623   0.00000  Uiso   1.00
C1908  C     0.94011   0.43612   0.61985   0.00000  Uiso   1.00
C1909  C     0.89802   0.38236   0.91952   0.00000  Uiso   1.00
C1910  C     0.80466   0.50572   0.96251   0.00000  Uiso   1.00
C1911  C     0.70180   0.59796   0.97566   0.00000  Uiso   1.00
C1912  C     0.69989   0.64319   0.96999   0.00000  Uiso   1.00
C1913  C     0.66698   0.64615   0.94767   0.00000  Uiso   1.00
C1914  C     0.81279   0.62706   0.89925   0.00000  Uiso   1.00
C1915  C     0.89563   0.51583   0.90599   0.00000  Uiso   1.00
C1916  C     0.91644   0.53985   0.86999   0.00000  Uiso   1.00
C1917  C     0.95736   0.56716   0.87439   0.00000  Uiso   1.00
C1918  C     0.73416   0.46064   0.59223   0.00000  Uiso   1.00
C1919  C     0.77448   0.53375   0.98443   0.00000  Uiso   1.00
C1920  C     0.82005   0.47970   0.98309   0.00000  Uiso   1.00
C1921  C     0.81222   0.48746   0.52451   0.00000  Uiso   1.00
C1922  C     0.77645   0.50917   0.54610   0.00000  Uiso   1.00
C1923  C     0.75835   0.53323   0.52616   0.00000  Uiso   1.00
H1924  H     0.87724   0.33691   0.72190   0.00000  Uiso   1.00
H1925  H     0.97093   0.41241   0.95063   0.00000  Uiso   1.00
H1926  H     0.96499   0.46324   0.97799   0.00000  Uiso   1.00
H1927  H     0.70711   0.46287   0.98762   0.00000  Uiso   1.00
H1928  H     0.70606   0.46288   0.93699   0.00000  Uiso   1.00
H1929  H     0.71186   0.41536   0.95425   0.00000  Uiso   1.00
H1930  H     0.68465   0.53924   0.68854   0.00000  Uiso   1.00
H1931  H     0.71752   0.60265   0.71607   0.00000  Uiso   1.00
H1932  H     0.70004   0.58397   0.76406   0.00000  Uiso   1.00
H1933  H     0.99400   0.59572   0.74121   0.00000  Uiso   1.00
H1934  H     0.95533   0.45006   0.84124   0.00000  Uiso   1.00
H1935  H     0.82500   0.51359   0.59730   0.00000  Uiso   1.00
H1936  H     0.67140   0.48312   0.83120   0.00000  Uiso   1.00
H1937  H     0.98947   0.38742   0.81047   0.00000  Uiso   1.00
H1938  H     0.70748   0.41704   0.79232   0.00000  Uiso   1.00
H1939  H     0.71256   0.44091   0.86038   0.00000  Uiso   1.00
H1940  H     0.70197   0.38479   0.85398   0.00000  Uiso   1.00
H1941  H     0.99240   0.41549   0.88071   0.00000  Uiso   1.00
H1942  H     0.75011   0.34080   0.77967   0.00000  Uiso   1.00
H1943  H     0.73980   0.64762   0.84124   0.00000  Uiso   1.00
H1944  H     0.77479   0.36294   0.83991   0.00000  Uiso   1.00
H1945  H     0.79720   0.64710   0.83050   0.00000  Uiso   1.00
H1946  H     0.83840   0.43177   0.93478   0.00000  Uiso   1.00
H1947  H     0.88569   0.39326   0.61921   0.00000  Uiso   1.00
H1948  H     0.96813   0.41797   0.61234   0.00000  Uiso   1.00
H1949  H     0.92696   0.44026   0.65262   0.00000  Uiso   1.00
H1950  H     0.95141   0.46728   0.60932   0.00000  Uiso   1.00
H1951  H     0.87094   0.36135   0.97564   0.00000  Uiso   1.00
H1952  H     0.87009   0.37147   0.90718   0.00000  Uiso   1.00
H1953  H     0.92092   0.35842   0.90978   0.00000  Uiso   1.00
H1954  H     0.91476   0.41192   0.90782   0.00000  Uiso   1.00
H1955  H     0.67372   0.58891   0.50042   0.00000  Uiso   1.00
H1956  H     0.69779   0.57660   0.94895   0.00000  Uiso   1.00
H1957  H     0.72933   0.57523   0.57320   0.00000  Uiso   1.00
H1958  H     0.69136   0.66187   0.99947   0.00000  Uiso   1.00
H1959  H     0.73193   0.65693   0.95308   0.00000  Uiso   1.00
H1960  H     0.67693   0.62965   0.91730   0.00000  Uiso   1.00
H1961  H     0.99889   0.34589   0.94495   0.00000  Uiso   1.00
H1962  H     0.96781   0.63239   0.96363   0.00000  Uiso   1.00
H1963  H     0.75931   0.59207   0.88320   0.00000  Uiso   1.00
H1964  H     0.83794   0.61621   0.87256   0.00000  Uiso   1.00
H1965  H     0.82587   0.63207   0.92554   0.00000  Uiso   1.00
H1966  H     0.80410   0.65741   0.89531   0.00000  Uiso   1.00
H1967  H     0.91917   0.49592   0.90889   0.00000  Uiso   1.00
H1968  H     0.99062   0.55812   0.56785   0.00000  Uiso   1.00
H1969  H     0.88899   0.53806   0.93368   0.00000  Uiso   1.00
H1970  H     0.92444   0.51753   0.84278   0.00000  Uiso   1.00
H1971  H     0.89351   0.56015   0.86667   0.00000  Uiso   1.00
H1972  H     0.94909   0.59142   0.89996   0.00000  Uiso   1.00
H1973  H     0.97265   0.58271   0.84714   0.00000  Uiso   1.00
H1974  H     0.98072   0.54817   0.87906   0.00000  Uiso   1.00
H1975  H     0.73759   0.52522   0.60386   0.00000  Uiso   1.00
H1976  H     0.71831   0.45875   0.62426   0.00000  Uiso   1.00
H1977  H     0.75782   0.43745   0.58208   0.00000  Uiso   1.00
H1978  H     0.70937   0.45256   0.57557   0.00000  Uiso   1.00
H1979  H     0.67616   0.51049   0.57223   0.00000  Uiso   1.00
H1980  H     0.67572   0.52268   0.52416   0.00000  Uiso   1.00
H1981  H     0.98454   0.38919   0.51202   0.00000  Uiso   1.00
H1982  H     0.97028   0.43804   0.53816   0.00000  Uiso   1.00
N1983  N     0.72432   0.55731   0.54805   0.00000  Uiso   1.00
N1984  N     0.68930   0.54058   0.71632   0.00000  Uiso   1.00
N1985  N     0.77545   0.66195   0.78441   0.00000  Uiso   1.00
N1986  N     0.90760   0.41351   0.60160   0.00000  Uiso   1.00
N1987  N     0.88394   0.38816   0.96243   0.00000  Uiso   1.00
N1988  N     0.77482   0.59694   0.90529   0.00000  Uiso   1.00
N1989  N     0.75537   0.50239   0.58644   0.00000  Uiso   1.00
O1990  O     0.83333   0.50000   0.75000   0.00000  Uiso   1.00
O1991  O     0.82360   0.45726   0.66625   0.00000  Uiso   1.00
O1992  O     0.79354   0.53979   0.83749   0.00000  Uiso   1.00
O1993  O     0.87755   0.50826   0.65877   0.00000  Uiso   1.00
O1994  O     0.83865   0.49468   0.83749   0.00000  Uiso   1.00
O1995  O     0.92121   0.39612   0.51963   0.00000  Uiso   1.00
O1996  O     0.97999   0.45711   0.78221   0.00000  Uiso   1.00
O1997  O     0.74021   0.59555   0.98617   0.00000  Uiso   1.00
O1998  O     0.85882   0.48913   0.90025   0.00000  Uiso   1.00
O1999  O     0.84515   0.41434   0.77821   0.00000  Uiso   1.00
O2000  O     0.81247   0.59469   0.76767   0.00000  Uiso   1.00
O2001  O     0.74119   0.46584   0.73607   0.00000  Uiso   1.00
O2002  O     0.93452   0.52512   0.71806   0.00000  Uiso   1.00
O2003  O     0.73656   0.52293   0.77820   0.00000  Uiso   1.00
O2004  O     0.92106   0.48610   0.76768   0.00000  Uiso   1.00
O2005  O     0.80467   0.40236   0.73607   0.00000  Uiso   1.00
O2006  O     0.87104   0.58860   0.71806   0.00000  Uiso   1.00
Zn2007 Zn    0.85910   0.47423   0.78278   0.00000  Uiso   1.00
Zn2008 Zn    0.80125   0.45711   0.72258   0.00000  Uiso   1.00
Zn2009 Zn    0.87833   0.52997   0.71188   0.00000  Uiso   1.00
Zn2010 Zn    0.79465   0.53868   0.78277   0.00000  Uiso   1.00
C2011  C     0.05267   0.82639   0.75875   0.00000  Uiso   1.00
C2012  C     0.17475   0.77815   0.96380   0.00000  Uiso   1.00
C2013  C     0.19761   0.75802   0.98225   0.00000  Uiso   1.00
C2014  C     0.28098   0.84018   0.74144   0.00000  Uiso   1.00
C2015  C     0.19928   0.77341   0.52144   0.00000  Uiso   1.00
C2016  C     0.17249   0.80468   0.54282   0.00000  Uiso   1.00
C2017  C     0.22642   0.75824   0.54018   0.00000  Uiso   1.00
C2018  C     0.22208   0.76981   0.58096   0.00000  Uiso   1.00
C2019  C     0.17460   0.82039   0.58145   0.00000  Uiso   1.00
C2020  C     0.32659   0.84495   0.74039   0.00000  Uiso   1.00
C2021  C     0.00705   0.82263   0.76270   0.00000  Uiso   1.00
C2022  C     0.11138   0.89482   0.92276   0.00000  Uiso   1.00
C2023  C     0.18105   0.98909   0.74070   0.00000  Uiso   1.00
C2024  C     0.14994   0.67917   0.76221   0.00000  Uiso   1.00
C2025  C     0.15631   0.72284   0.75837   0.00000  Uiso   1.00
C2026  C     0.17672   0.94431   0.74171   0.00000  Uiso   1.00
C2027  C     0.18790   0.81186   0.64394   0.00000  Uiso   1.00
C2028  C     0.14630   0.85530   0.85647   0.00000  Uiso   1.00
C2029  C     0.13670   0.86339   0.90058   0.00000  Uiso   1.00
C2030  C     0.19657   0.80153   0.60115   0.00000  Uiso   1.00
C2031  C     0.09532   0.89571   0.96436   0.00000  Uiso   1.00
C2032  C     0.01458   0.86915   0.55327   0.00000  Uiso   1.00
C2033  C     0.15488   0.84034   0.92092   0.00000  Uiso   1.00
C2034  C     0.29794   0.74776   0.51354   0.00000  Uiso   1.00
C2035  C     0.31369   0.76757   0.97460   0.00000  Uiso   1.00
C2036  C     0.02936   0.77782   0.96272   0.00000  Uiso   1.00
C2037  C     0.02521   0.91620   0.73553   0.00000  Uiso   1.00
C2038  C     0.32064   0.78765   0.81928   0.00000  Uiso   1.00
C2039  C     0.01059   0.74947   0.81677   0.00000  Uiso   1.00
C2040  C     0.02172   0.74766   0.85542   0.00000  Uiso   1.00
C2041  C     0.10501   0.99677   0.82623   0.00000  Uiso   1.00
C2042  C     0.27344   0.76946   0.61985   0.00000  Uiso   1.00
C2043  C     0.23135   0.71570   0.91952   0.00000  Uiso   1.00
C2044  C     0.13800   0.83906   0.96251   0.00000  Uiso   1.00
C2045  C     0.03513   0.93130   0.97566   0.00000  Uiso   1.00
C2046  C     0.03322   0.97652   0.96999   0.00000  Uiso   1.00
C2047  C     0.00032   0.97948   0.94767   0.00000  Uiso   1.00
C2048  C     0.14612   0.96040   0.89925   0.00000  Uiso   1.00
C2049  C     0.22896   0.84916   0.90599   0.00000  Uiso   1.00
C2050  C     0.24977   0.87319   0.86999   0.00000  Uiso   1.00
C2051  C     0.29070   0.90049   0.87439   0.00000  Uiso   1.00
C2052  C     0.06749   0.79398   0.59223   0.00000  Uiso   1.00
C2053  C     0.10781   0.86709   0.98443   0.00000  Uiso   1.00
C2054  C     0.15339   0.81303   0.98309   0.00000  Uiso   1.00
C2055  C     0.14556   0.82079   0.52451   0.00000  Uiso   1.00
C2056  C     0.10978   0.84251   0.54610   0.00000  Uiso   1.00
C2057  C     0.09169   0.86656   0.52616   0.00000  Uiso   1.00
H2058  H     0.21058   0.67024   0.72190   0.00000  Uiso   1.00
H2059  H     0.30426   0.74574   0.95063   0.00000  Uiso   1.00
H2060  H     0.29832   0.79657   0.97799   0.00000  Uiso   1.00
H2061  H     0.04044   0.79621   0.98762   0.00000  Uiso   1.00
H2062  H     0.03939   0.79622   0.93699   0.00000  Uiso   1.00
H2063  H     0.04520   0.74869   0.95425   0.00000  Uiso   1.00
H2064  H     0.01798   0.87258   0.68854   0.00000  Uiso   1.00
H2065  H     0.05085   0.93599   0.71607   0.00000  Uiso   1.00
H2066  H     0.03338   0.91731   0.76406   0.00000  Uiso   1.00
H2067  H     0.32733   0.92906   0.74121   0.00000  Uiso   1.00
H2068  H     0.28867   0.78340   0.84124   0.00000  Uiso   1.00
H2069  H     0.15833   0.84693   0.59730   0.00000  Uiso   1.00
H2070  H     0.00474   0.81645   0.83120   0.00000  Uiso   1.00
H2071  H     0.32281   0.72075   0.81047   0.00000  Uiso   1.00
H2072  H     0.04082   0.75037   0.79232   0.00000  Uiso   1.00
H2073  H     0.04590   0.77424   0.86038   0.00000  Uiso   1.00
H2074  H     0.03531   0.71812   0.85398   0.00000  Uiso   1.00
H2075  H     0.32573   0.74882   0.88071   0.00000  Uiso   1.00
H2076  H     0.08345   0.67413   0.77967   0.00000  Uiso   1.00
H2077  H     0.07313   0.98095   0.84124   0.00000  Uiso   1.00
H2078  H     0.10812   0.69627   0.83991   0.00000  Uiso   1.00
H2079  H     0.13054   0.98044   0.83050   0.00000  Uiso   1.00
H2080  H     0.17174   0.76510   0.93478   0.00000  Uiso   1.00
H2081  H     0.21903   0.72660   0.61921   0.00000  Uiso   1.00
H2082  H     0.30146   0.75130   0.61234   0.00000  Uiso   1.00
H2083  H     0.26030   0.77359   0.65262   0.00000  Uiso   1.00
H2084  H     0.28474   0.80061   0.60932   0.00000  Uiso   1.00
H2085  H     0.20427   0.69468   0.97564   0.00000  Uiso   1.00
H2086  H     0.20342   0.70480   0.90718   0.00000  Uiso   1.00
H2087  H     0.25425   0.69176   0.90978   0.00000  Uiso   1.00
H2088  H     0.24809   0.74525   0.90782   0.00000  Uiso   1.00
H2089  H     0.00705   0.92224   0.50042   0.00000  Uiso   1.00
H2090  H     0.03112   0.90994   0.94895   0.00000  Uiso   1.00
H2091  H     0.06266   0.90857   0.57320   0.00000  Uiso   1.00
H2092  H     0.02469   0.99521   0.99947   0.00000  Uiso   1.00
H2093  H     0.06527   0.99027   0.95308   0.00000  Uiso   1.00
H2094  H     0.01026   0.96298   0.91730   0.00000  Uiso   1.00
H2095  H     0.33223   0.67922   0.94495   0.00000  Uiso   1.00
H2096  H     0.30114   0.96573   0.96363   0.00000  Uiso   1.00
H2097  H     0.09264   0.92540   0.88320   0.00000  Uiso   1.00
H2098  H     0.17128   0.94955   0.87256   0.00000  Uiso   1.00
H2099  H     0.15921   0.96540   0.92554   0.00000  Uiso   1.00
H2100  H     0.13744   0.99075   0.89531   0.00000  Uiso   1.00
H2101  H     0.25250   0.82926   0.90889   0.00000  Uiso   1.00
H2102  H     0.32396   0.89145   0.56785   0.00000  Uiso   1.00
H2103  H     0.22233   0.87139   0.93368   0.00000  Uiso   1.00
H2104  H     0.25777   0.85087   0.84278   0.00000  Uiso   1.00
H2105  H     0.22684   0.89348   0.86667   0.00000  Uiso   1.00
H2106  H     0.28242   0.92475   0.89996   0.00000  Uiso   1.00
H2107  H     0.30598   0.91604   0.84714   0.00000  Uiso   1.00
H2108  H     0.31405   0.88150   0.87906   0.00000  Uiso   1.00
H2109  H     0.07092   0.85855   0.60386   0.00000  Uiso   1.00
H2110  H     0.05164   0.79208   0.62426   0.00000  Uiso   1.00
H2111  H     0.09116   0.77079   0.58208   0.00000  Uiso   1.00
H2112  H     0.04270   0.78590   0.57557   0.00000  Uiso   1.00
H2113  H     0.00950   0.84383   0.57223   0.00000  Uiso   1.00
H2114  H     0.00906   0.85601   0.52416   0.00000  Uiso   1.00
H2115  H     0.31788   0.72253   0.51202   0.00000  Uiso   1.00
H2116  H     0.30361   0.77137   0.53816   0.00000  Uiso   1.00
N2117  N     0.05765   0.89064   0.54805   0.00000  Uiso   1.00
N2118  N     0.02263   0.87392   0.71632   0.00000  Uiso   1.00
N2119  N     0.10878   0.99528   0.78441   0.00000  Uiso   1.00
N2120  N     0.24094   0.74684   0.60160   0.00000  Uiso   1.00
N2121  N     0.21727   0.72149   0.96243   0.00000  Uiso   1.00
N2122  N     0.10815   0.93027   0.90529   0.00000  Uiso   1.00
N2123  N     0.08870   0.83573   0.58644   0.00000  Uiso   1.00
O2124  O     0.16667   0.83333   0.75000   0.00000  Uiso   1.00
O2125  O     0.15693   0.79060   0.66625   0.00000  Uiso   1.00
O2126  O     0.12687   0.87313   0.83749   0.00000  Uiso   1.00
O2127  O     0.21088   0.84159   0.65877   0.00000  Uiso   1.00
O2128  O     0.17198   0.82802   0.83749   0.00000  Uiso   1.00
O2129  O     0.25454   0.72945   0.51963   0.00000  Uiso   1.00
O2130  O     0.31332   0.79044   0.78221   0.00000  Uiso   1.00
O2131  O     0.07354   0.92889   0.98617   0.00000  Uiso   1.00
O2132  O     0.19216   0.82246   0.90025   0.00000  Uiso   1.00
O2133  O     0.17849   0.74768   0.77821   0.00000  Uiso   1.00
O2134  O     0.14581   0.92803   0.76767   0.00000  Uiso   1.00
O2135  O     0.07452   0.79917   0.73607   0.00000  Uiso   1.00
O2136  O     0.26785   0.85845   0.71806   0.00000  Uiso   1.00
O2137  O     0.06990   0.85627   0.77820   0.00000  Uiso   1.00
O2138  O     0.25440   0.81944   0.76768   0.00000  Uiso   1.00
O2139  O     0.13800   0.73570   0.73607   0.00000  Uiso   1.00
O2140  O     0.20437   0.92193   0.71806   0.00000  Uiso   1.00
Zn2141 Zn    0.19244   0.80756   0.78278   0.00000  Uiso   1.00
Zn2142 Zn    0.13459   0.79044   0.72258   0.00000  Uiso   1.00
Zn2143 Zn    0.21166   0.86331   0.71188   0.00000  Uiso   1.00
Zn2144 Zn    0.12798   0.87202   0.78277   0.00000  Uiso   1.00
C2145  C     0.38600   0.82639   0.75875   0.00000  Uiso   1.00
C2146  C     0.50808   0.77815   0.96380   0.00000  Uiso   1.00
C2147  C     0.53094   0.75802   0.98225   0.00000  Uiso   1.00
C2148  C     0.61431   0.84018   0.74144   0.00000  Uiso   1.00
C2149  C     0.53262   0.77341   0.52144   0.00000  Uiso   1.00
C2150  C     0.50583   0.80468   0.54282   0.00000  Uiso   1.00
C2151  C     0.55976   0.75824   0.54018   0.00000  Uiso   1.00
C2152  C     0.55542   0.76981   0.58096   0.00000  Uiso   1.00
C2153  C     0.50793   0.82039   0.58145   0.00000  Uiso   1.00
C2154  C     0.65992   0.84495   0.74039   0.00000  Uiso   1.00
C2155  C     0.34038   0.82263   0.76270   0.00000  Uiso   1.00
C2156  C     0.44472   0.89482   0.92276   0.00000  Uiso   1.00
C2157  C     0.51439   0.98909   0.74070   0.00000  Uiso   1.00
C2158  C     0.48327   0.67917   0.76221   0.00000  Uiso   1.00
C2159  C     0.48965   0.72284   0.75837   0.00000  Uiso   1.00
C2160  C     0.51005   0.94431   0.74171   0.00000  Uiso   1.00
C2161  C     0.52124   0.81186   0.64394   0.00000  Uiso   1.00
C2162  C     0.47963   0.85530   0.85647   0.00000  Uiso   1.00
C2163  C     0.47003   0.86339   0.90058   0.00000  Uiso   1.00
C2164  C     0.52991   0.80153   0.60115   0.00000  Uiso   1.00
C2165  C     0.42865   0.89571   0.96436   0.00000  Uiso   1.00
C2166  C     0.34792   0.86915   0.55327   0.00000  Uiso   1.00
C2167  C     0.48821   0.84034   0.92092   0.00000  Uiso   1.00
C2168  C     0.63127   0.74776   0.51354   0.00000  Uiso   1.00
C2169  C     0.64702   0.76757   0.97460   0.00000  Uiso   1.00
C2170  C     0.36269   0.77782   0.96272   0.00000  Uiso   1.00
C2171  C     0.35855   0.91620   0.73553   0.00000  Uiso   1.00
C2172  C     0.65397   0.78765   0.81928   0.00000  Uiso   1.00
C2173  C     0.34392   0.74947   0.81677   0.00000  Uiso   1.00
C2174  C     0.35505   0.74766   0.85542   0.00000  Uiso   1.00
C2175  C     0.43834   0.99677   0.82623   0.00000  Uiso   1.00
C2176  C     0.60677   0.76946   0.61985   0.00000  Uiso   1.00
C2177  C     0.56468   0.71570   0.91952   0.00000  Uiso   1.00
C2178  C     0.47133   0.83906   0.96251   0.00000  Uiso   1.00
C2179  C     0.36846   0.93130   0.97566   0.00000  Uiso   1.00
C2180  C     0.36655   0.97652   0.96999   0.00000  Uiso   1.00
C2181  C     0.33365   0.97948   0.94767   0.00000  Uiso   1.00
C2182  C     0.47946   0.96040   0.89925   0.00000  Uiso   1.00
C2183  C     0.56230   0.84916   0.90599   0.00000  Uiso   1.00
C2184  C     0.58310   0.87319   0.86999   0.00000  Uiso   1.00
C2185  C     0.62403   0.90049   0.87439   0.00000  Uiso   1.00
C2186  C     0.40082   0.79398   0.59223   0.00000  Uiso   1.00
C2187  C     0.44115   0.86709   0.98443   0.00000  Uiso   1.00
C2188  C     0.48672   0.81303   0.98309   0.00000  Uiso   1.00
C2189  C     0.47889   0.82079   0.52451   0.00000  Uiso   1.00
C2190  C     0.44312   0.84251   0.54610   0.00000  Uiso   1.00
C2191  C     0.42502   0.86656   0.52616   0.00000  Uiso   1.00
H2192  H     0.54391   0.67024   0.72190   0.00000  Uiso   1.00
H2193  H     0.63760   0.74574   0.95063   0.00000  Uiso   1.00
H2194  H     0.63165   0.79657   0.97799   0.00000  Uiso   1.00
H2195  H     0.37377   0.79621   0.98762   0.00000  Uiso   1.00
H2196  H     0.37272   0.79622   0.93699   0.00000  Uiso   1.00
H2197  H     0.37853   0.74869   0.95425   0.00000  Uiso   1.00
H2198  H     0.35131   0.87258   0.68854   0.00000  Uiso   1.00
H2199  H     0.38418   0.93599   0.71607   0.00000  Uiso   1.00
H2200  H     0.36671   0.91731   0.76406   0.00000  Uiso   1.00
H2201  H     0.66067   0.92906   0.74121   0.00000  Uiso   1.00
H2202  H     0.62200   0.78340   0.84124   0.00000  Uiso   1.00
H2203  H     0.49166   0.84693   0.59730   0.00000  Uiso   1.00
H2204  H     0.33807   0.81645   0.83120   0.00000  Uiso   1.00
H2205  H     0.65614   0.72075   0.81047   0.00000  Uiso   1.00
H2206  H     0.37415   0.75037   0.79232   0.00000  Uiso   1.00
H2207  H     0.37923   0.77424   0.86038   0.00000  Uiso   1.00
H2208  H     0.36864   0.71812   0.85398   0.00000  Uiso   1.00
H2209  H     0.65907   0.74882   0.88071   0.00000  Uiso   1.00
H2210  H     0.41678   0.67413   0.77967   0.00000  Uiso   1.00
H2211  H     0.40646   0.98095   0.84124   0.00000  Uiso   1.00
H2212  H     0.44145   0.69627   0.83991   0.00000  Uiso   1.00
H2213  H     0.46387   0.98044   0.83050   0.00000  Uiso   1.00
H2214  H     0.50507   0.76510   0.93478   0.00000  Uiso   1.00
H2215  H     0.55236   0.72660   0.61921   0.00000  Uiso   1.00
H2216  H     0.63479   0.75130   0.61234   0.00000  Uiso   1.00
H2217  H     0.59363   0.77359   0.65262   0.00000  Uiso   1.00
H2218  H     0.61807   0.80061   0.60932   0.00000  Uiso   1.00
H2219  H     0.53760   0.69468   0.97564   0.00000  Uiso   1.00
H2220  H     0.53676   0.70480   0.90718   0.00000  Uiso   1.00
H2221  H     0.58759   0.69176   0.90978   0.00000  Uiso   1.00
H2222  H     0.58142   0.74525   0.90782   0.00000  Uiso   1.00
H2223  H     0.34038   0.92224   0.50042   0.00000  Uiso   1.00
H2224  H     0.36446   0.90994   0.94895   0.00000  Uiso   1.00
H2225  H     0.39599   0.90857   0.57320   0.00000  Uiso   1.00
H2226  H     0.35803   0.99521   0.99947   0.00000  Uiso   1.00
H2227  H     0.39860   0.99027   0.95308   0.00000  Uiso   1.00
H2228  H     0.34359   0.96298   0.91730   0.00000  Uiso   1.00
H2229  H     0.66556   0.67922   0.94495   0.00000  Uiso   1.00
H2230  H     0.63447   0.96573   0.96363   0.00000  Uiso   1.00
H2231  H     0.42597   0.92540   0.88320   0.00000  Uiso   1.00
H2232  H     0.50461   0.94955   0.87256   0.00000  Uiso   1.00
H2233  H     0.49254   0.96540   0.92554   0.00000  Uiso   1.00
H2234  H     0.47077   0.99075   0.89531   0.00000  Uiso   1.00
H2235  H     0.58583   0.82926   0.90889   0.00000  Uiso   1.00
H2236  H     0.65729   0.89145   0.56785   0.00000  Uiso   1.00
H2237  H     0.55566   0.87139   0.93368   0.00000  Uiso   1.00
H2238  H     0.59110   0.85087   0.84278   0.00000  Uiso   1.00
H2239  H     0.56017   0.89348   0.86667   0.00000  Uiso   1.00
H2240  H     0.61575   0.92475   0.89996   0.00000  Uiso   1.00
H2241  H     0.63931   0.91604   0.84714   0.00000  Uiso   1.00
H2242  H     0.64738   0.88150   0.87906   0.00000  Uiso   1.00
H2243  H     0.40426   0.85855   0.60386   0.00000  Uiso   1.00
H2244  H     0.38497   0.79208   0.62426   0.00000  Uiso   1.00
H2245  H     0.42449   0.77079   0.58208   0.00000  Uiso   1.00
H2246  H     0.37604   0.78590   0.57557   0.00000  Uiso   1.00
H2247  H     0.34283   0.84383   0.57223   0.00000  Uiso   1.00
H2248  H     0.34239   0.85601   0.52416   0.00000  Uiso   1.00
H2249  H     0.65121   0.72253   0.51202   0.00000  Uiso   1.00
H2250  H     0.63694   0.77137   0.53816   0.00000  Uiso   1.00
N2251  N     0.39099   0.89064   0.54805   0.00000  Uiso   1.00
N2252  N     0.35596   0.87392   0.71632   0.00000  Uiso   1.00
N2253  N     0.44211   0.99528   0.78441   0.00000  Uiso   1.00
N2254  N     0.57427   0.74684   0.60160   0.00000  Uiso   1.00
N2255  N     0.55060   0.72149   0.96243   0.00000  Uiso   1.00
N2256  N     0.44149   0.93027   0.90529   0.00000  Uiso   1.00
N2257  N     0.42204   0.83573   0.58644   0.00000  Uiso   1.00
O2258  O     0.50000   0.83333   0.75000   0.00000  Uiso   1.00
O2259  O     0.49027   0.79060   0.66625   0.00000  Uiso   1.00
O2260  O     0.46020   0.87313   0.83749   0.00000  Uiso   1.00
O2261  O     0.54421   0.84159   0.65877   0.00000  Uiso   1.00
O2262  O     0.50532   0.82802   0.83749   0.00000  Uiso   1.00
O2263  O     0.58787   0.72945   0.51963   0.00000  Uiso   1.00
O2264  O     0.64666   0.79044   0.78221   0.00000  Uiso   1.00
O2265  O     0.40688   0.92889   0.98617   0.00000  Uiso   1.00
O2266  O     0.52549   0.82246   0.90025   0.00000  Uiso   1.00
O2267  O     0.51182   0.74768   0.77821   0.00000  Uiso   1.00
O2268  O     0.47914   0.92803   0.76767   0.00000  Uiso   1.00
O2269  O     0.40785   0.79917   0.73607   0.00000  Uiso   1.00
O2270  O     0.60119   0.85845   0.71806   0.00000  Uiso   1.00
O2271  O     0.40323   0.85627   0.77820   0.00000  Uiso   1.00
O2272  O     0.58773   0.81944   0.76768   0.00000  Uiso   1.00
O2273  O     0.47133   0.73570   0.73607   0.00000  Uiso   1.00
O2274  O     0.53771   0.92193   0.71806   0.00000  Uiso   1.00
Zn2275 Zn    0.52577   0.80756   0.78278   0.00000  Uiso   1.00
Zn2276 Zn    0.46792   0.79044   0.72258   0.00000  Uiso   1.00
Zn2277 Zn    0.54500   0.86331   0.71188   0.00000  Uiso   1.00
Zn2278 Zn    0.46131   0.87202   0.78277   0.00000  Uiso   1.00
C2279  C     0.71933   0.82639   0.75875   0.00000  Uiso   1.00
C2280  C     0.84141   0.77815   0.96380   0.00000  Uiso   1.00
C2281  C     0.86427   0.75802   0.98225   0.00000  Uiso   1.00
C2282  C     0.94764   0.84018   0.74144   0.00000  Uiso   1.00
C2283  C     0.86595   0.77341   0.52144   0.00000  Uiso   1.00
C2284  C     0.83916   0.80468   0.54282   0.00000  Uiso   1.00
C2285  C     0.89309   0.75824   0.54018   0.00000  Uiso   1.00
C2286  C     0.88875   0.76981   0.58096   0.00000  Uiso   1.00
C2287  C     0.84126   0.82039   0.58145   0.00000  Uiso   1.00
C2288  C     0.99326   0.84495   0.74039   0.00000  Uiso   1.00
C2289  C     0.67371   0.82263   0.76270   0.00000  Uiso   1.00
C2290  C     0.77805   0.89482   0.92276   0.00000  Uiso   1.00
C2291  C     0.84772   0.98909   0.74070   0.00000  Uiso   1.00
C2292  C     0.81660   0.67917   0.76221   0.00000  Uiso   1.00
C2293  C     0.82298   0.72284   0.75837   0.00000  Uiso   1.00
C2294  C     0.84338   0.94431   0.74171   0.00000  Uiso   1.00
C2295  C     0.85457   0.81186   0.64394   0.00000  Uiso   1.00
C2296  C     0.81296   0.85530   0.85647   0.00000  Uiso   1.00
C2297  C     0.80337   0.86339   0.90058   0.00000  Uiso   1.00
C2298  C     0.86324   0.80153   0.60115   0.00000  Uiso   1.00
C2299  C     0.76199   0.89571   0.96436   0.00000  Uiso   1.00
C2300  C     0.68125   0.86915   0.55327   0.00000  Uiso   1.00
C2301  C     0.82155   0.84034   0.92092   0.00000  Uiso   1.00
C2302  C     0.96461   0.74776   0.51354   0.00000  Uiso   1.00
C2303  C     0.98036   0.76757   0.97460   0.00000  Uiso   1.00
C2304  C     0.69603   0.77782   0.96272   0.00000  Uiso   1.00
C2305  C     0.69188   0.91620   0.73553   0.00000  Uiso   1.00
C2306  C     0.98731   0.78765   0.81928   0.00000  Uiso   1.00
C2307  C     0.67725   0.74947   0.81677   0.00000  Uiso   1.00
C2308  C     0.68839   0.74766   0.85542   0.00000  Uiso   1.00
C2309  C     0.77167   0.99677   0.82623   0.00000  Uiso   1.00
C2310  C     0.94011   0.76946   0.61985   0.00000  Uiso   1.00
C2311  C     0.89802   0.71570   0.91952   0.00000  Uiso   1.00
C2312  C     0.80466   0.83906   0.96251   0.00000  Uiso   1.00
C2313  C     0.70180   0.93130   0.97566   0.00000  Uiso   1.00
C2314  C     0.69989   0.97652   0.96999   0.00000  Uiso   1.00
C2315  C     0.66698   0.97948   0.94767   0.00000  Uiso   1.00
C2316  C     0.81279   0.96040   0.89925   0.00000  Uiso   1.00
C2317  C     0.89563   0.84916   0.90599   0.00000  Uiso   1.00
C2318  C     0.91644   0.87319   0.86999   0.00000  Uiso   1.00
C2319  C     0.95736   0.90049   0.87439   0.00000  Uiso   1.00
C2320  C     0.73416   0.79398   0.59223   0.00000  Uiso   1.00
C2321  C     0.77448   0.86709   0.98443   0.00000  Uiso   1.00
C2322  C     0.82005   0.81303   0.98309   0.00000  Uiso   1.00
C2323  C     0.81222   0.82079   0.52451   0.00000  Uiso   1.00
C2324  C     0.77645   0.84251   0.54610   0.00000  Uiso   1.00
C2325  C     0.75835   0.86656   0.52616   0.00000  Uiso   1.00
H2326  H     0.87724   0.67024   0.72190   0.00000  Uiso   1.00
H2327  H     0.97093   0.74574   0.95063   0.00000  Uiso   1.00
H2328  H     0.96499   0.79657   0.97799   0.00000  Uiso   1.00
H2329  H     0.70711   0.79621   0.98762   0.00000  Uiso   1.00
H2330  H     0.70606   0.79622   0.93699   0.00000  Uiso   1.00
H2331  H     0.71186   0.74869   0.95425   0.00000  Uiso   1.00
H2332  H     0.68465   0.87258   0.68854   0.00000  Uiso   1.00
H2333  H     0.71752   0.93599   0.71607   0.00000  Uiso   1.00
H2334  H     0.70004   0.91731   0.76406   0.00000  Uiso   1.00
H2335  H     0.99400   0.92906   0.74121   0.00000  Uiso   1.00
H2336  H     0.95533   0.78340   0.84124   0.00000  Uiso   1.00
H2337  H     0.82500   0.84693   0.59730   0.00000  Uiso   1.00
H2338  H     0.67140   0.81645   0.83120   0.00000  Uiso   1.00
H2339  H     0.98947   0.72075   0.81047   0.00000  Uiso   1.00
H2340  H     0.70748   0.75037   0.79232   0.00000  Uiso   1.00
H2341  H     0.71256   0.77424   0.86038   0.00000  Uiso   1.00
H2342  H     0.70197   0.71812   0.85398   0.00000  Uiso   1.00
H2343  H     0.99240   0.74882   0.88071   0.00000  Uiso   1.00
H2344  H     0.75011   0.67413   0.77967   0.00000  Uiso   1.00
H2345  H     0.73980   0.98095   0.84124   0.00000  Uiso   1.00
H2346  H     0.77479   0.69627   0.83991   0.00000  Uiso   1.00
H2347  H     0.79720   0.98044   0.83050   0.00000  Uiso   1.00
H2348  H     0.83840   0.76510   0.93478   0.00000  Uiso   1.00
H2349  H     0.88569   0.72660   0.61921   0.00000  Uiso   1.00
H2350  H     0.96813   0.75130   0.61234   0.00000  Uiso   1.00
H2351  H     0.92696   0.77359   0.65262   0.00000  Uiso   1.00
H2352  H     0.95141   0.80061   0.60932   0.00000  Uiso   1.00
H2353  H     0.87094   0.69468   0.97564   0.00000  Uiso   1.00
H2354  H     0.87009   0.70480   0.90718   0.00000  Uiso   1.00
H2355  H     0.92092   0.69176   0.90978   0.00000  Uiso   1.00
H2356  H     0.91476   0.74525   0.90782   0.00000  Uiso   1.00
H2357  H     0.67372   0.92224   0.50042   0.00000  Uiso   1.00
H2358  H     0.69779   0.90994   0.94895   0.00000  Uiso   1.00
H2359  H     0.72933   0.90857   0.57320   0.00000  Uiso   1.00
H2360  H     0.69136   0.99521   0.99947   0.00000  Uiso   1.00
H2361  H     0.73193   0.99027   0.95308   0.00000  Uiso   1.00
H2362  H     0.67693   0.96298   0.91730   0.00000  Uiso   1.00
H2363  H     0.99889   0.67922   0.94495   0.00000  Uiso   1.00
H2364  H     0.96781   0.96573   0.96363   0.00000  Uiso   1.00
H2365  H     0.75931   0.92540   0.88320   0.00000  Uiso   1.00
H2366  H     0.83794   0.94955   0.87256   0.00000  Uiso   1.00
H2367  H     0.82587   0.96540   0.92554   0.00000  Uiso   1.00
H2368  H     0.80410   0.99075   0.89531   0.00000  Uiso   1.00
H2369  H     0.91917   0.82926   0.90889   0.00000  Uiso   1.00
H2370  H     0.99062   0.89145   0.56785   0.00000  Uiso   1.00
H2371  H     0.88899   0.87139   0.93368   0.00000  Uiso   1.00
H2372  H     0.92444   0.85087   0.84278   0.00000  Uiso   1.00
H2373  H     0.89351   0.89348   0.86667   0.00000  Uiso   1.00
H2374  H     0.94909   0.92475   0.89996   0.00000  Uiso   1.00
H2375  H     0.97265   0.91604   0.84714   0.00000  Uiso   1.00
H2376  H     0.98072   0.88150   0.87906   0.00000  Uiso   1.00
H2377  H     0.73759   0.85855   0.60386   0.00000  Uiso   1.00
H2378  H     0.71831   0.79208   0.62426   0.00000  Uiso   1.00
H2379  H     0.75782   0.77079   0.58208   0.00000  Uiso   1.00
H2380  H     0.70937   0.78590   0.57557   0.00000  Uiso   1.00
H2381  H     0.67616   0.84383   0.57223   0.00000  Uiso   1.00
H2382  H     0.67572   0.85601   0.52416   0.00000  Uiso   1.00
H2383  H     0.98454   0.72253   0.51202   0.00000  Uiso   1.00
H2384  H     0.97028   0.77137   0.53816   0.00000  Uiso   1.00
N2385  N     0.72432   0.89064   0.54805   0.00000  Uiso   1.00
N2386  N     0.68930   0.87392   0.71632   0.00000  Uiso   1.00
N2387  N     0.77545   0.99528   0.78441   0.00000  Uiso   1.00
N2388  N     0.90760   0.74684   0.60160   0.00000  Uiso   1.00
N2389  N     0.88394   0.72149   0.96243   0.00000  Uiso   1.00
N2390  N     0.77482   0.93027   0.90529   0.00000  Uiso   1.00
N2391  N     0.75537   0.83573   0.58644   0.00000  Uiso   1.00
O2392  O     0.83333   0.83333   0.75000   0.00000  Uiso   1.00
O2393  O     0.82360   0.79060   0.66625   0.00000  Uiso   1.00
O2394  O     0.79354   0.87313   0.83749   0.00000  Uiso   1.00
O2395  O     0.87755   0.84159   0.65877   0.00000  Uiso   1.00
O2396  O     0.83865   0.82802   0.83749   0.00000  Uiso   1.00
O2397  O     0.92121   0.72945   0.51963   0.00000  Uiso   1.00
O2398  O     0.97999   0.79044   0.78221   0.00000  Uiso   1.00
O2399  O     0.74021   0.92889   0.98617   0.00000  Uiso   1.00
O2400  O     0.85882   0.82246   0.90025   0.00000  Uiso   1.00
O2401  O     0.84515   0.74768   0.77821   0.00000  Uiso   1.00
O2402  O     0.81247   0.92803   0.76767   0.00000  Uiso   1.00
O2403  O     0.74119   0.79917   0.73607   0.00000  Uiso   1.00
O2404  O     0.93452   0.85845   0.71806   0.00000  Uiso   1.00
O2405  O     0.73656   0.85627   0.77820   0.00000  Uiso   1.00
O2406  O     0.92106   0.81944   0.76768   0.00000  Uiso   1.00
O2407  O     0.80467   0.73570   0.73607   0.00000  Uiso   1.00
O2408  O     0.87104   0.92193   0.71806   0.00000  Uiso   1.00
Zn2409 Zn    0.85910   0.80756   0.78278   0.00000  Uiso   1.00
Zn2410 Zn    0.80125   0.79044   0.72258   0.00000  Uiso   1.00
Zn2411 Zn    0.87833   0.86331   0.71188   0.00000  Uiso   1.00
Zn2412 Zn    0.79465   0.87202   0.78277   0.00000  Uiso   1.00
loop_
_geom_bond_atom_site_label_1
_geom_bond_atom_site_label_2
_geom_bond_distance
_geom_bond_site_symmetry_2
_ccdc_geom_bond_type
C1     C11     1.440   .     S
C1     O125    1.261   .     A
C1     O127    1.265   .     A
C2     C44     1.407   .     A
C2     C3      1.403   .     A
C2     H70     1.078   .     S
C3     N111    1.430   .     S
C3     C1211   1.418   .     S
C4     O128    1.275   .     A
C4     C10     1.461   .     S
C4     O126    1.285   .     A
C5     C6      1.426   .     A
C5     C7      1.426   .     A
C5     C1209   1.418   1_554 S
C6     C45     1.426   .     A
C6     C9      1.405   .     A
C7     C8      1.409   .     A
C7     O119    1.387   .     S
C8     C20     1.403   .     A
C8     N110    1.426   .     S
C9     C20     1.387   .     A
C9     H59     1.081   .     S
C10    C145    1.353   .     S
C10    N242    1.429   .     S
C11    C278    1.353   1_455 S
C11    O388    1.397   1_455 S
C12    C21     1.413   .     A
C12    N112    1.422   .     S
C12    C19     1.411   .     A
C13    C16     1.453   .     S
C13    C416    1.344   .     S
C13    H450    1.088   .     S
C14    C15     1.431   .     S
C14    C817    1.344   1_545 S
C14    N913    1.427   1_545 S
C15    O129    1.265   .     A
C15    O123    1.273   .     A
C16    O130    1.276   .     A
C16    O124    1.264   .     A
C17    C20     1.457   .     S
C17    O117    1.279   .     A
C17    O115    1.274   .     A
C18    C19     1.494   .     S
C18    O118    1.291   .     A
C18    O116    1.289   .     A
C19    C23     1.406   .     A
C21    C43     1.422   .     A
C21    O121    1.392   .     S
C22    N107    1.446   .     S
C22    H104    1.110   .     S
C22    H103    1.106   .     S
C22    H360    1.110   1_455 S
C23    O122    1.388   .     S
C23    C34     1.422   .     A
C24    H106    1.113   .     S
C24    O119    1.419   .     S
C24    H105    1.109   .     S
C24    C1231   1.532   1_554 S
C25    H50     1.111   .     S
C25    H49     1.108   .     S
C25    C1230   1.532   .     S
C25    C160    1.528   .     S
C26    H52     1.110   .     S
C26    H53     1.111   .     S
C26    H51     1.109   .     S
C26    C293    1.528   1_455 S
C27    H55     1.110   .     S
C27    H56     1.111   .     S
C27    N108    1.447   .     S
C27    H325    1.112   1_455 S
C28    O120    1.418   .     S
C28    H58     1.111   .     S
C28    C163    1.532   .     S
C28    H194    1.116   .     S
C29    C30     1.525   .     S
C29    H62     1.109   .     S
C29    C296    1.532   1_455 S
C29    H329    1.112   1_455 S
C30    H64     1.109   .     S
C30    H63     1.111   .     S
C30    H333    1.108   1_455 S
C31    H67     1.111   .     S
C31    N109    1.445   .     S
C31    H69     1.108   .     S
C31    H470    1.112   .     S
C32    H72     1.109   .     S
C32    N110    1.450   .     S
C32    H74     1.110   .     S
C32    H73     1.111   .     S
C33    H78     1.111   .     S
C33    H76     1.109   .     S
C33    N111    1.448   .     S
C33    H77     1.110   .     S
C34    C44     1.424   .     A
C34    C43     1.423   .     A
C35    C36     1.532   .     S
C35    H80     1.116   .     S
C35    O121    1.420   .     S
C35    H1285   1.109   .     S
C36    C37     1.524   .     S
C36    H83     1.110   .     S
C36    H82     1.111   .     S
C37    H84     1.110   .     S
C37    H755    1.108   1_455 S
C37    H354    1.111   1_455 S
C38    H89     1.112   .     S
C38    H88     1.111   .     S
C38    N112    1.446   .     S
C38    H90     1.109   .     S
C39    O122    1.419   .     S
C39    H93     1.118   .     S
C39    H91     1.111   .     S
C39    C40     1.532   .     S
C40    C41     1.523   .     S
C40    H95     1.110   .     S
C40    H94     1.110   .     S
C41    H96     1.109   .     S
C41    H97     1.111   .     S
C41    H98     1.111   .     S
C42    H101    1.110   .     S
C42    H100    1.111   .     S
C42    H102    1.110   .     S
C42    N113    1.449   .     S
C43    C1253   1.422   .     S
C44    C1251   1.406   .     S
C45    C46     1.421   .     A
C45    C1250   1.406   1_554 S
C46    C47     1.417   .     A
C46    N113    1.432   .     S
C47    N107    1.426   .     S
C47    C1249   1.422   1_554 S
H48    C817    1.088   1_545 S
H54    N108    1.031   .     S
H57    C161    1.112   .     S
H60    C296    1.116   1_455 S
H61    C163    1.112   .     S
H65    C164    1.108   .     S
H66    N913    1.032   1_545 S
H68    C835    1.112   1_545 S
H71    N110    1.031   .     S
H75    N111    1.031   .     S
H79    C1241   1.109   1_554 S
H81    N107    1.031   .     S
H85    C975    1.108   1_545 S
H86    C171    1.111   .     S
H87    N112    1.029   .     S
H92    C156    1.110   .     S
H99    N113    1.029   .     S
N108   C278    1.429   1_455 S
N109   C416    1.427   .     S
N109   H468    1.032   .     S
O114   Zn131   1.955   .     S
O114   Zn134   1.931   .     S
O114   Zn132   1.933   .     S
O114   Zn133   1.940   .     S
O115   Zn132   1.919   .     S
O116   Zn134   1.924   .     S
O117   Zn133   1.915   .     S
O118   Zn131   1.911   .     S
O120   C145    1.397   .     S
O123   Zn131   1.934   .     S
O124   Zn134   1.941   .     S
O125   Zn132   1.931   .     S
O126   Zn133   1.936   .     S
O127   Zn134   1.932   .     S
O128   Zn131   1.929   .     S
O129   Zn132   1.945   .     S
O130   Zn133   1.937   .     S
C135   C145    1.440   .     S
C135   O259    1.261   .     A
C135   O261    1.265   .     A
C136   C178    1.407   .     A
C136   C137    1.403   .     A
C136   H204    1.078   .     S
C137   N245    1.430   .     S
C137   C1345   1.418   .     S
C138   O262    1.275   .     A
C138   C144    1.461   .     S
C138   O260    1.285   .     A
C139   C140    1.426   .     A
C139   C141    1.426   .     A
C139   C1343   1.418   1_554 S
C140   C179    1.426   .     A
C140   C143    1.405   .     A
C141   C142    1.409   .     A
C141   O253    1.387   .     S
C142   C154    1.403   .     A
C142   N244    1.426   .     S
C143   C154    1.387   .     A
C143   H193    1.081   .     S
C144   C279    1.353   .     S
C144   N376    1.429   .     S
C146   C155    1.413   .     A
C146   N246    1.422   .     S
C146   C153    1.411   .     A
C147   C150    1.453   .     S
C147   C550    1.344   .     S
C147   H584    1.088   .     S
C148   C149    1.431   .     S
C148   C951    1.344   1_545 S
C148   N1047   1.427   1_545 S
C149   O263    1.265   .     A
C149   O257    1.273   .     A
C150   O264    1.276   .     A
C150   O258    1.264   .     A
C151   C154    1.457   .     S
C151   O251    1.279   .     A
C151   O249    1.274   .     A
C152   C153    1.494   .     S
C152   O252    1.291   .     A
C152   O250    1.289   .     A
C153   C157    1.406   .     A
C155   C177    1.422   .     A
C155   O255    1.392   .     S
C156   N241    1.446   .     S
C156   H238    1.110   .     S
C156   H237    1.106   .     S
C157   O256    1.388   .     S
C157   C168    1.422   .     A
C158   H240    1.113   .     S
C158   O253    1.419   .     S
C158   H239    1.109   .     S
C158   C1365   1.532   1_554 S
C159   H184    1.111   .     S
C159   H183    1.108   .     S
C159   C1364   1.532   .     S
C159   C294    1.528   .     S
C160   H186    1.110   .     S
C160   H187    1.111   .     S
C160   H185    1.109   .     S
C161   H189    1.110   .     S
C161   H190    1.111   .     S
C161   N242    1.447   .     S
C162   O254    1.418   .     S
C162   H192    1.111   .     S
C162   C297    1.532   .     S
C162   H328    1.116   .     S
C163   C164    1.525   .     S
C163   H196    1.109   .     S
C164   H198    1.109   .     S
C164   H197    1.111   .     S
C165   H201    1.111   .     S
C165   N243    1.445   .     S
C165   H203    1.108   .     S
C165   H604    1.112   .     S
C166   H206    1.109   .     S
C166   N244    1.450   .     S
C166   H208    1.110   .     S
C166   H207    1.111   .     S
C167   H212    1.111   .     S
C167   H210    1.109   .     S
C167   N245    1.448   .     S
C167   H211    1.110   .     S
C168   C178    1.424   .     A
C168   C177    1.423   .     A
C169   C170    1.532   .     S
C169   H214    1.116   .     S
C169   O255    1.420   .     S
C169   H1419   1.109   .     S
C170   C171    1.524   .     S
C170   H217    1.110   .     S
C170   H216    1.111   .     S
C171   H218    1.110   .     S
C171   H487    1.108   .     S
C172   H223    1.112   .     S
C172   H222    1.111   .     S
C172   N246    1.446   .     S
C172   H224    1.109   .     S
C173   O256    1.419   .     S
C173   H227    1.118   .     S
C173   H225    1.111   .     S
C173   C174    1.532   .     S
C174   C175    1.523   .     S
C174   H229    1.110   .     S
C174   H228    1.110   .     S
C175   H230    1.109   .     S
C175   H231    1.111   .     S
C175   H232    1.111   .     S
C176   H235    1.110   .     S
C176   H234    1.111   .     S
C176   H236    1.110   .     S
C176   N247    1.449   .     S
C177   C1387   1.422   .     S
C178   C1385   1.406   .     S
C179   C180    1.421   .     A
C179   C1384   1.406   1_554 S
C180   C181    1.417   .     A
C180   N247    1.432   .     S
C181   N241    1.426   .     S
C181   C1383   1.422   1_554 S
H182   C951    1.088   1_545 S
H188   N242    1.031   .     S
H191   C295    1.112   .     S
H195   C297    1.112   .     S
H199   C298    1.108   .     S
H200   N1047   1.032   1_545 S
H202   C969    1.112   1_545 S
H205   N244    1.031   .     S
H209   N245    1.031   .     S
H213   C1375   1.109   1_554 S
H215   N241    1.031   .     S
H219   C1109   1.108   1_545 S
H220   C305    1.111   .     S
H221   N246    1.029   .     S
H226   C290    1.110   .     S
H233   N247    1.029   .     S
N243   C550    1.427   .     S
N243   H602    1.032   .     S
O248   Zn265   1.955   .     S
O248   Zn268   1.931   .     S
O248   Zn266   1.933   .     S
O248   Zn267   1.940   .     S
O249   Zn266   1.919   .     S
O250   Zn268   1.924   .     S
O251   Zn267   1.915   .     S
O252   Zn265   1.911   .     S
O254   C279    1.397   .     S
O257   Zn265   1.934   .     S
O258   Zn268   1.941   .     S
O259   Zn266   1.931   .     S
O260   Zn267   1.936   .     S
O261   Zn268   1.932   .     S
O262   Zn265   1.929   .     S
O263   Zn266   1.945   .     S
O264   Zn267   1.937   .     S
C269   C279    1.440   .     S
C269   O393    1.261   .     A
C269   O395    1.265   .     A
C270   C312    1.407   .     A
C270   C271    1.403   .     A
C270   H338    1.078   .     S
C271   N379    1.430   .     S
C271   C1479   1.418   .     S
C272   O396    1.275   .     A
C272   C278    1.461   .     S
C272   O394    1.285   .     A
C273   C274    1.426   .     A
C273   C275    1.426   .     A
C273   C1477   1.418   1_554 S
C274   C313    1.426   .     A
C274   C277    1.405   .     A
C275   C276    1.409   .     A
C275   O387    1.387   .     S
C276   C288    1.403   .     A
C276   N378    1.426   .     S
C277   C288    1.387   .     A
C277   H327    1.081   .     S
C278   C11     1.353   1_655 S
C278   N108    1.429   1_655 S
C280   C289    1.413   .     A
C280   N380    1.422   .     S
C280   C287    1.411   .     A
C281   C284    1.453   .     S
C281   C684    1.344   .     S
C281   H718    1.088   .     S
C282   C283    1.431   .     S
C282   C1085   1.344   1_545 S
C282   N1181   1.427   1_545 S
C283   O397    1.265   .     A
C283   O391    1.273   .     A
C284   O398    1.276   .     A
C284   O392    1.264   .     A
C285   C288    1.457   .     S
C285   O385    1.279   .     A
C285   O383    1.274   .     A
C286   C287    1.494   .     S
C286   O386    1.291   .     A
C286   O384    1.289   .     A
C287   C291    1.406   .     A
C289   C311    1.422   .     A
C289   O389    1.392   .     S
C290   N375    1.446   .     S
C290   H372    1.110   .     S
C290   H371    1.106   .     S
C291   O390    1.388   .     S
C291   C302    1.422   .     A
C292   H374    1.113   .     S
C292   O387    1.419   .     S
C292   H373    1.109   .     S
C292   C1499   1.532   1_554 S
C293   H318    1.111   .     S
C293   H317    1.108   .     S
C293   C1498   1.532   .     S
C293   C26     1.528   1_655 S
C294   H320    1.110   .     S
C294   H321    1.111   .     S
C294   H319    1.109   .     S
C295   H323    1.110   .     S
C295   H324    1.111   .     S
C295   N376    1.447   .     S
C296   O388    1.418   .     S
C296   H326    1.111   .     S
C296   C29     1.532   1_655 S
C296   H60     1.116   1_655 S
C297   C298    1.525   .     S
C297   H330    1.109   .     S
C298   H332    1.109   .     S
C298   H331    1.111   .     S
C299   H335    1.111   .     S
C299   N377    1.445   .     S
C299   H337    1.108   .     S
C299   H738    1.112   .     S
C300   H340    1.109   .     S
C300   N378    1.450   .     S
C300   H342    1.110   .     S
C300   H341    1.111   .     S
C301   H346    1.111   .     S
C301   H344    1.109   .     S
C301   N379    1.448   .     S
C301   H345    1.110   .     S
C302   C312    1.424   .     A
C302   C311    1.423   .     A
C303   C304    1.532   .     S
C303   H348    1.116   .     S
C303   O389    1.420   .     S
C303   H1553   1.109   .     S
C304   C305    1.524   .     S
C304   H351    1.110   .     S
C304   H350    1.111   .     S
C305   H352    1.110   .     S
C305   H621    1.108   .     S
C306   H357    1.112   .     S
C306   H356    1.111   .     S
C306   N380    1.446   .     S
C306   H358    1.109   .     S
C307   O390    1.419   .     S
C307   H361    1.118   .     S
C307   H359    1.111   .     S
C307   C308    1.532   .     S
C308   C309    1.523   .     S
C308   H363    1.110   .     S
C308   H362    1.110   .     S
C309   H364    1.109   .     S
C309   H365    1.111   .     S
C309   H366    1.111   .     S
C310   H369    1.110   .     S
C310   H368    1.111   .     S
C310   H370    1.110   .     S
C310   N381    1.449   .     S
C311   C1521   1.422   .     S
C312   C1519   1.406   .     S
C313   C314    1.421   .     A
C313   C1518   1.406   1_554 S
C314   C315    1.417   .     A
C314   N381    1.432   .     S
C315   N375    1.426   .     S
C315   C1517   1.422   1_554 S
H316   C1085   1.088   1_545 S
H322   N376    1.031   .     S
H325   C27     1.112   1_655 S
H329   C29     1.112   1_655 S
H333   C30     1.108   1_655 S
H334   N1181   1.032   1_545 S
H336   C1103   1.112   1_545 S
H339   N378    1.031   .     S
H343   N379    1.031   .     S
H347   C1509   1.109   1_554 S
H349   N375    1.031   .     S
H353   C841    1.108   1_645 S
H354   C37     1.111   1_655 S
H355   N380    1.029   .     S
H360   C22     1.110   1_655 S
H367   N381    1.029   .     S
N377   C684    1.427   .     S
N377   H736    1.032   .     S
O382   Zn399   1.955   .     S
O382   Zn402   1.931   .     S
O382   Zn400   1.933   .     S
O382   Zn401   1.940   .     S
O383   Zn400   1.919   .     S
O384   Zn402   1.924   .     S
O385   Zn401   1.915   .     S
O386   Zn399   1.911   .     S
O388   C11     1.397   1_655 S
O391   Zn399   1.934   .     S
O392   Zn402   1.941   .     S
O393   Zn400   1.931   .     S
O394   Zn401   1.936   .     S
O395   Zn402   1.932   .     S
O396   Zn399   1.929   .     S
O397   Zn400   1.945   .     S
O398   Zn401   1.937   .     S
C403   C413    1.440   .     S
C403   O527    1.261   .     A
C403   O529    1.265   .     A
C404   C446    1.407   .     A
C404   C405    1.403   .     A
C404   H472    1.078   .     S
C405   N513    1.430   .     S
C405   C1613   1.418   .     S
C406   O530    1.275   .     A
C406   C412    1.461   .     S
C406   O528    1.285   .     A
C407   C408    1.426   .     A
C407   C409    1.426   .     A
C407   C1611   1.418   1_554 S
C408   C447    1.426   .     A
C408   C411    1.405   .     A
C409   C410    1.409   .     A
C409   O521    1.387   .     S
C410   C422    1.403   .     A
C410   N512    1.426   .     S
C411   C422    1.387   .     A
C411   H461    1.081   .     S
C412   C547    1.353   .     S
C412   N644    1.429   .     S
C413   C680    1.353   1_455 S
C413   O790    1.397   1_455 S
C414   C423    1.413   .     A
C414   N514    1.422   .     S
C414   C421    1.411   .     A
C415   C418    1.453   .     S
C415   C818    1.344   .     S
C415   H852    1.088   .     S
C416   C417    1.431   .     S
C417   O531    1.265   .     A
C417   O525    1.273   .     A
C418   O532    1.276   .     A
C418   O526    1.264   .     A
C419   C422    1.457   .     S
C419   O519    1.279   .     A
C419   O517    1.274   .     A
C420   C421    1.494   .     S
C420   O520    1.291   .     A
C420   O518    1.289   .     A
C421   C425    1.406   .     A
C423   C445    1.422   .     A
C423   O523    1.392   .     S
C424   N509    1.446   .     S
C424   H506    1.110   .     S
C424   H505    1.106   .     S
C424   H762    1.110   1_455 S
C425   O524    1.388   .     S
C425   C436    1.422   .     A
C426   H508    1.113   .     S
C426   O521    1.419   .     S
C426   H507    1.109   .     S
C426   C1633   1.532   1_554 S
C427   H452    1.111   .     S
C427   H451    1.108   .     S
C427   C1632   1.532   .     S
C427   C562    1.528   .     S
C428   H454    1.110   .     S
C428   H455    1.111   .     S
C428   H453    1.109   .     S
C428   C695    1.528   1_455 S
C429   H457    1.110   .     S
C429   H458    1.111   .     S
C429   N510    1.447   .     S
C429   H727    1.112   1_455 S
C430   O522    1.418   .     S
C430   H460    1.111   .     S
C430   C565    1.532   .     S
C430   H596    1.116   .     S
C431   C432    1.525   .     S
C431   H464    1.109   .     S
C431   C698    1.532   1_455 S
C431   H731    1.112   1_455 S
C432   H466    1.109   .     S
C432   H465    1.111   .     S
C432   H735    1.108   1_455 S
C433   H469    1.111   .     S
C433   N511    1.445   .     S
C433   H471    1.108   .     S
C433   H872    1.112   .     S
C434   H474    1.109   .     S
C434   N512    1.450   .     S
C434   H476    1.110   .     S
C434   H475    1.111   .     S
C435   H480    1.111   .     S
C435   H478    1.109   .     S
C435   N513    1.448   .     S
C435   H479    1.110   .     S
C436   C446    1.424   .     A
C436   C445    1.423   .     A
C437   C438    1.532   .     S
C437   H482    1.116   .     S
C437   O523    1.420   .     S
C437   H1687   1.109   .     S
C438   C439    1.524   .     S
C438   H485    1.110   .     S
C438   H484    1.111   .     S
C439   H486    1.110   .     S
C439   H1157   1.108   1_455 S
C439   H756    1.111   1_455 S
C440   H491    1.112   .     S
C440   H490    1.111   .     S
C440   N514    1.446   .     S
C440   H492    1.109   .     S
C441   O524    1.419   .     S
C441   H495    1.118   .     S
C441   H493    1.111   .     S
C441   C442    1.532   .     S
C442   C443    1.523   .     S
C442   H497    1.110   .     S
C442   H496    1.110   .     S
C443   H498    1.109   .     S
C443   H499    1.111   .     S
C443   H500    1.111   .     S
C444   H503    1.110   .     S
C444   H502    1.111   .     S
C444   H504    1.110   .     S
C444   N515    1.449   .     S
C445   C1655   1.422   .     S
C446   C1653   1.406   .     S
C447   C448    1.421   .     A
C447   C1652   1.406   1_554 S
C448   C449    1.417   .     A
C448   N515    1.432   .     S
C449   N509    1.426   .     S
C449   C1651   1.422   1_554 S
H456   N510    1.031   .     S
H459   C563    1.112   .     S
H462   C698    1.116   1_455 S
H463   C565    1.112   .     S
H467   C566    1.108   .     S
H473   N512    1.031   .     S
H477   N513    1.031   .     S
H481   C1643   1.109   1_554 S
H483   N509    1.031   .     S
H488   C573    1.111   .     S
H489   N514    1.029   .     S
H494   C558    1.110   .     S
H501   N515    1.029   .     S
N510   C680    1.429   1_455 S
N511   C818    1.427   .     S
N511   H870    1.032   .     S
O516   Zn533   1.955   .     S
O516   Zn536   1.931   .     S
O516   Zn534   1.933   .     S
O516   Zn535   1.940   .     S
O517   Zn534   1.919   .     S
O518   Zn536   1.924   .     S
O519   Zn535   1.915   .     S
O520   Zn533   1.911   .     S
O522   C547    1.397   .     S
O525   Zn533   1.934   .     S
O526   Zn536   1.941   .     S
O527   Zn534   1.931   .     S
O528   Zn535   1.936   .     S
O529   Zn536   1.932   .     S
O530   Zn533   1.929   .     S
O531   Zn534   1.945   .     S
O532   Zn535   1.937   .     S
C537   C547    1.440   .     S
C537   O661    1.261   .     A
C537   O663    1.265   .     A
C538   C580    1.407   .     A
C538   C539    1.403   .     A
C538   H606    1.078   .     S
C539   N647    1.430   .     S
C539   C1747   1.418   .     S
C540   O664    1.275   .     A
C540   C546    1.461   .     S
C540   O662    1.285   .     A
C541   C542    1.426   .     A
C541   C543    1.426   .     A
C541   C1745   1.418   1_554 S
C542   C581    1.426   .     A
C542   C545    1.405   .     A
C543   C544    1.409   .     A
C543   O655    1.387   .     S
C544   C556    1.403   .     A
C544   N646    1.426   .     S
C545   C556    1.387   .     A
C545   H595    1.081   .     S
C546   C681    1.353   .     S
C546   N778    1.429   .     S
C548   C557    1.413   .     A
C548   N648    1.422   .     S
C548   C555    1.411   .     A
C549   C552    1.453   .     S
C549   C952    1.344   .     S
C549   H986    1.088   .     S
C550   C551    1.431   .     S
C551   O665    1.265   .     A
C551   O659    1.273   .     A
C552   O666    1.276   .     A
C552   O660    1.264   .     A
C553   C556    1.457   .     S
C553   O653    1.279   .     A
C553   O651    1.274   .     A
C554   C555    1.494   .     S
C554   O654    1.291   .     A
C554   O652    1.289   .     A
C555   C559    1.406   .     A
C557   C579    1.422   .     A
C557   O657    1.392   .     S
C558   N643    1.446   .     S
C558   H640    1.110   .     S
C558   H639    1.106   .     S
C559   O658    1.388   .     S
C559   C570    1.422   .     A
C560   H642    1.113   .     S
C560   O655    1.419   .     S
C560   H641    1.109   .     S
C560   C1767   1.532   1_554 S
C561   H586    1.111   .     S
C561   H585    1.108   .     S
C561   C1766   1.532   .     S
C561   C696    1.528   .     S
C562   H588    1.110   .     S
C562   H589    1.111   .     S
C562   H587    1.109   .     S
C563   H591    1.110   .     S
C563   H592    1.111   .     S
C563   N644    1.447   .     S
C564   O656    1.418   .     S
C564   H594    1.111   .     S
C564   C699    1.532   .     S
C564   H730    1.116   .     S
C565   C566    1.525   .     S
C565   H598    1.109   .     S
C566   H600    1.109   .     S
C566   H599    1.111   .     S
C567   H603    1.111   .     S
C567   N645    1.445   .     S
C567   H605    1.108   .     S
C567   H1006   1.112   .     S
C568   H608    1.109   .     S
C568   N646    1.450   .     S
C568   H610    1.110   .     S
C568   H609    1.111   .     S
C569   H614    1.111   .     S
C569   H612    1.109   .     S
C569   N647    1.448   .     S
C569   H613    1.110   .     S
C570   C580    1.424   .     A
C570   C579    1.423   .     A
C571   C572    1.532   .     S
C571   H616    1.116   .     S
C571   O657    1.420   .     S
C571   H1821   1.109   .     S
C572   C573    1.524   .     S
C572   H619    1.110   .     S
C572   H618    1.111   .     S
C573   H620    1.110   .     S
C573   H889    1.108   .     S
C574   H625    1.112   .     S
C574   H624    1.111   .     S
C574   N648    1.446   .     S
C574   H626    1.109   .     S
C575   O658    1.419   .     S
C575   H629    1.118   .     S
C575   H627    1.111   .     S
C575   C576    1.532   .     S
C576   C577    1.523   .     S
C576   H631    1.110   .     S
C576   H630    1.110   .     S
C577   H632    1.109   .     S
C577   H633    1.111   .     S
C577   H634    1.111   .     S
C578   H637    1.110   .     S
C578   H636    1.111   .     S
C578   H638    1.110   .     S
C578   N649    1.449   .     S
C579   C1789   1.422   .     S
C580   C1787   1.406   .     S
C581   C582    1.421   .     A
C581   C1786   1.406   1_554 S
C582   C583    1.417   .     A
C582   N649    1.432   .     S
C583   N643    1.426   .     S
C583   C1785   1.422   1_554 S
H590   N644    1.031   .     S
H593   C697    1.112   .     S
H597   C699    1.112   .     S
H601   C700    1.108   .     S
H607   N646    1.031   .     S
H611   N647    1.031   .     S
H615   C1777   1.109   1_554 S
H617   N643    1.031   .     S
H622   C707    1.111   .     S
H623   N648    1.029   .     S
H628   C692    1.110   .     S
H635   N649    1.029   .     S
N645   C952    1.427   .     S
N645   H1004   1.032   .     S
O650   Zn667   1.955   .     S
O650   Zn670   1.931   .     S
O650   Zn668   1.933   .     S
O650   Zn669   1.940   .     S
O651   Zn668   1.919   .     S
O652   Zn670   1.924   .     S
O653   Zn669   1.915   .     S
O654   Zn667   1.911   .     S
O656   C681    1.397   .     S
O659   Zn667   1.934   .     S
O660   Zn670   1.941   .     S
O661   Zn668   1.931   .     S
O662   Zn669   1.936   .     S
O663   Zn670   1.932   .     S
O664   Zn667   1.929   .     S
O665   Zn668   1.945   .     S
O666   Zn669   1.937   .     S
C671   C681    1.440   .     S
C671   O795    1.261   .     A
C671   O797    1.265   .     A
C672   C714    1.407   .     A
C672   C673    1.403   .     A
C672   H740    1.078   .     S
C673   N781    1.430   .     S
C673   C1881   1.418   .     S
C674   O798    1.275   .     A
C674   C680    1.461   .     S
C674   O796    1.285   .     A
C675   C676    1.426   .     A
C675   C677    1.426   .     A
C675   C1879   1.418   1_554 S
C676   C715    1.426   .     A
C676   C679    1.405   .     A
C677   C678    1.409   .     A
C677   O789    1.387   .     S
C678   C690    1.403   .     A
C678   N780    1.426   .     S
C679   C690    1.387   .     A
C679   H729    1.081   .     S
C680   C413    1.353   1_655 S
C680   N510    1.429   1_655 S
C682   C691    1.413   .     A
C682   N782    1.422   .     S
C682   C689    1.411   .     A
C683   C686    1.453   .     S
C683   C1086   1.344   .     S
C683   H1120   1.088   .     S
C684   C685    1.431   .     S
C685   O799    1.265   .     A
C685   O793    1.273   .     A
C686   O800    1.276   .     A
C686   O794    1.264   .     A
C687   C690    1.457   .     S
C687   O787    1.279   .     A
C687   O785    1.274   .     A
C688   C689    1.494   .     S
C688   O788    1.291   .     A
C688   O786    1.289   .     A
C689   C693    1.406   .     A
C691   C713    1.422   .     A
C691   O791    1.392   .     S
C692   N777    1.446   .     S
C692   H774    1.110   .     S
C692   H773    1.106   .     S
C693   O792    1.388   .     S
C693   C704    1.422   .     A
C694   H776    1.113   .     S
C694   O789    1.419   .     S
C694   H775    1.109   .     S
C694   C1901   1.532   1_554 S
C695   H720    1.111   .     S
C695   H719    1.108   .     S
C695   C1900   1.532   .     S
C695   C428    1.528   1_655 S
C696   H722    1.110   .     S
C696   H723    1.111   .     S
C696   H721    1.109   .     S
C697   H725    1.110   .     S
C697   H726    1.111   .     S
C697   N778    1.447   .     S
C698   O790    1.418   .     S
C698   H728    1.111   .     S
C698   C431    1.532   1_655 S
C698   H462    1.116   1_655 S
C699   C700    1.525   .     S
C699   H732    1.109   .     S
C700   H734    1.109   .     S
C700   H733    1.111   .     S
C701   H737    1.111   .     S
C701   N779    1.445   .     S
C701   H739    1.108   .     S
C701   H1140   1.112   .     S
C702   H742    1.109   .     S
C702   N780    1.450   .     S
C702   H744    1.110   .     S
C702   H743    1.111   .     S
C703   H748    1.111   .     S
C703   H746    1.109   .     S
C703   N781    1.448   .     S
C703   H747    1.110   .     S
C704   C714    1.424   .     A
C704   C713    1.423   .     A
C705   C706    1.532   .     S
C705   H750    1.116   .     S
C705   O791    1.420   .     S
C705   H1955   1.109   .     S
C706   C707    1.524   .     S
C706   H753    1.110   .     S
C706   H752    1.111   .     S
C707   H754    1.110   .     S
C707   H1023   1.108   .     S
C708   H759    1.112   .     S
C708   H758    1.111   .     S
C708   N782    1.446   .     S
C708   H760    1.109   .     S
C709   O792    1.419   .     S
C709   H763    1.118   .     S
C709   H761    1.111   .     S
C709   C710    1.532   .     S
C710   C711    1.523   .     S
C710   H765    1.110   .     S
C710   H764    1.110   .     S
C711   H766    1.109   .     S
C711   H767    1.111   .     S
C711   H768    1.111   .     S
C712   H771    1.110   .     S
C712   H770    1.111   .     S
C712   H772    1.110   .     S
C712   N783    1.449   .     S
C713   C1923   1.422   .     S
C714   C1921   1.406   .     S
C715   C716    1.421   .     A
C715   C1920   1.406   1_554 S
C716   C717    1.417   .     A
C716   N783    1.432   .     S
C717   N777    1.426   .     S
C717   C1919   1.422   1_554 S
H724   N778    1.031   .     S
H727   C429    1.112   1_655 S
H731   C431    1.112   1_655 S
H735   C432    1.108   1_655 S
H741   N780    1.031   .     S
H745   N781    1.031   .     S
H749   C1911   1.109   1_554 S
H751   N777    1.031   .     S
H755   C37     1.108   1_655 S
H756   C439    1.111   1_655 S
H757   N782    1.029   .     S
H762   C424    1.110   1_655 S
H769   N783    1.029   .     S
N779   C1086   1.427   .     S
N779   H1138   1.032   .     S
O784   Zn801   1.955   .     S
O784   Zn804   1.931   .     S
O784   Zn802   1.933   .     S
O784   Zn803   1.940   .     S
O785   Zn802   1.919   .     S
O786   Zn804   1.924   .     S
O787   Zn803   1.915   .     S
O788   Zn801   1.911   .     S
O790   C413    1.397   1_655 S
O793   Zn801   1.934   .     S
O794   Zn804   1.941   .     S
O795   Zn802   1.931   .     S
O796   Zn803   1.936   .     S
O797   Zn804   1.932   .     S
O798   Zn801   1.929   .     S
O799   Zn802   1.945   .     S
O800   Zn803   1.937   .     S
C805   C815    1.440   .     S
C805   O929    1.261   .     A
C805   O931    1.265   .     A
C806   C848    1.407   .     A
C806   C807    1.403   .     A
C806   H874    1.078   .     S
C807   N915    1.430   .     S
C807   C2015   1.418   .     S
C808   O932    1.275   .     A
C808   C814    1.461   .     S
C808   O930    1.285   .     A
C809   C810    1.426   .     A
C809   C811    1.426   .     A
C809   C2013   1.418   1_554 S
C810   C849    1.426   .     A
C810   C813    1.405   .     A
C811   C812    1.409   .     A
C811   O923    1.387   .     S
C812   C824    1.403   .     A
C812   N914    1.426   .     S
C813   C824    1.387   .     A
C813   H863    1.081   .     S
C814   C949    1.353   .     S
C814   N1046   1.429   .     S
C815   C1082   1.353   1_455 S
C815   O1192   1.397   1_455 S
C816   C825    1.413   .     A
C816   N916    1.422   .     S
C816   C823    1.411   .     A
C817   C820    1.453   .     S
C817   C14     1.344   1_565 S
C817   H48     1.088   1_565 S
C818   C819    1.431   .     S
C819   O933    1.265   .     A
C819   O927    1.273   .     A
C820   O934    1.276   .     A
C820   O928    1.264   .     A
C821   C824    1.457   .     S
C821   O921    1.279   .     A
C821   O919    1.274   .     A
C822   C823    1.494   .     S
C822   O922    1.291   .     A
C822   O920    1.289   .     A
C823   C827    1.406   .     A
C825   C847    1.422   .     A
C825   O925    1.392   .     S
C826   N911    1.446   .     S
C826   H908    1.110   .     S
C826   H907    1.106   .     S
C826   H1164   1.110   1_455 S
C827   O926    1.388   .     S
C827   C838    1.422   .     A
C828   H910    1.113   .     S
C828   O923    1.419   .     S
C828   H909    1.109   .     S
C828   C2035   1.532   1_554 S
C829   H854    1.111   .     S
C829   H853    1.108   .     S
C829   C2034   1.532   .     S
C829   C964    1.528   .     S
C830   H856    1.110   .     S
C830   H857    1.111   .     S
C830   H855    1.109   .     S
C830   C1097   1.528   1_455 S
C831   H859    1.110   .     S
C831   H860    1.111   .     S
C831   N912    1.447   .     S
C831   H1129   1.112   1_455 S
C832   O924    1.418   .     S
C832   H862    1.111   .     S
C832   C967    1.532   .     S
C832   H998    1.116   .     S
C833   C834    1.525   .     S
C833   H866    1.109   .     S
C833   C1100   1.532   1_455 S
C833   H1133   1.112   1_455 S
C834   H868    1.109   .     S
C834   H867    1.111   .     S
C834   H1137   1.108   1_455 S
C835   H871    1.111   .     S
C835   N913    1.445   .     S
C835   H873    1.108   .     S
C835   H68     1.112   1_565 S
C836   H876    1.109   .     S
C836   N914    1.450   .     S
C836   H878    1.110   .     S
C836   H877    1.111   .     S
C837   H882    1.111   .     S
C837   H880    1.109   .     S
C837   N915    1.448   .     S
C837   H881    1.110   .     S
C838   C848    1.424   .     A
C838   C847    1.423   .     A
C839   C840    1.532   .     S
C839   H884    1.116   .     S
C839   O925    1.420   .     S
C839   H2089   1.109   .     S
C840   C841    1.524   .     S
C840   H887    1.110   .     S
C840   H886    1.111   .     S
C841   H888    1.110   .     S
C841   H353    1.108   1_465 S
C841   H1158   1.111   1_455 S
C842   H893    1.112   .     S
C842   H892    1.111   .     S
C842   N916    1.446   .     S
C842   H894    1.109   .     S
C843   O926    1.419   .     S
C843   H897    1.118   .     S
C843   H895    1.111   .     S
C843   C844    1.532   .     S
C844   C845    1.523   .     S
C844   H899    1.110   .     S
C844   H898    1.110   .     S
C845   H900    1.109   .     S
C845   H901    1.111   .     S
C845   H902    1.111   .     S
C846   H905    1.110   .     S
C846   H904    1.111   .     S
C846   H906    1.110   .     S
C846   N917    1.449   .     S
C847   C2057   1.422   .     S
C848   C2055   1.406   .     S
C849   C850    1.421   .     A
C849   C2054   1.406   1_554 S
C850   C851    1.417   .     A
C850   N917    1.432   .     S
C851   N911    1.426   .     S
C851   C2053   1.422   1_554 S
H858   N912    1.031   .     S
H861   C965    1.112   .     S
H864   C1100   1.116   1_455 S
H865   C967    1.112   .     S
H869   C968    1.108   .     S
H875   N914    1.031   .     S
H879   N915    1.031   .     S
H883   C2045   1.109   1_554 S
H885   N911    1.031   .     S
H890   C975    1.111   .     S
H891   N916    1.029   .     S
H896   C960    1.110   .     S
H903   N917    1.029   .     S
N912   C1082   1.429   1_455 S
N913   C14     1.427   1_565 S
N913   H66     1.032   1_565 S
O918   Zn935   1.955   .     S
O918   Zn938   1.931   .     S
O918   Zn936   1.933   .     S
O918   Zn937   1.940   .     S
O919   Zn936   1.919   .     S
O920   Zn938   1.924   .     S
O921   Zn937   1.915   .     S
O922   Zn935   1.911   .     S
O924   C949    1.397   .     S
O927   Zn935   1.934   .     S
O928   Zn938   1.941   .     S
O929   Zn936   1.931   .     S
O930   Zn937   1.936   .     S
O931   Zn938   1.932   .     S
O932   Zn935   1.929   .     S
O933   Zn936   1.945   .     S
O934   Zn937   1.937   .     S
C939   C949    1.440   .     S
C939   O1063   1.261   .     A
C939   O1065   1.265   .     A
C940   C982    1.407   .     A
C940   C941    1.403   .     A
C940   H1008   1.078   .     S
C941   N1049   1.430   .     S
C941   C2149   1.418   .     S
C942   O1066   1.275   .     A
C942   C948    1.461   .     S
C942   O1064   1.285   .     A
C943   C944    1.426   .     A
C943   C945    1.426   .     A
C943   C2147   1.418   1_554 S
C944   C983    1.426   .     A
C944   C947    1.405   .     A
C945   C946    1.409   .     A
C945   O1057   1.387   .     S
C946   C958    1.403   .     A
C946   N1048   1.426   .     S
C947   C958    1.387   .     A
C947   H997    1.081   .     S
C948   C1083   1.353   .     S
C948   N1180   1.429   .     S
C950   C959    1.413   .     A
C950   N1050   1.422   .     S
C950   C957    1.411   .     A
C951   C954    1.453   .     S
C951   C148    1.344   1_565 S
C951   H182    1.088   1_565 S
C952   C953    1.431   .     S
C953   O1067   1.265   .     A
C953   O1061   1.273   .     A
C954   O1068   1.276   .     A
C954   O1062   1.264   .     A
C955   C958    1.457   .     S
C955   O1055   1.279   .     A
C955   O1053   1.274   .     A
C956   C957    1.494   .     S
C956   O1056   1.291   .     A
C956   O1054   1.289   .     A
C957   C961    1.406   .     A
C959   C981    1.422   .     A
C959   O1059   1.392   .     S
C960   N1045   1.446   .     S
C960   H1042   1.110   .     S
C960   H1041   1.106   .     S
C961   O1060   1.388   .     S
C961   C972    1.422   .     A
C962   H1044   1.113   .     S
C962   O1057   1.419   .     S
C962   H1043   1.109   .     S
C962   C2169   1.532   1_554 S
C963   H988    1.111   .     S
C963   H987    1.108   .     S
C963   C2168   1.532   .     S
C963   C1098   1.528   .     S
C964   H990    1.110   .     S
C964   H991    1.111   .     S
C964   H989    1.109   .     S
C965   H993    1.110   .     S
C965   H994    1.111   .     S
C965   N1046   1.447   .     S
C966   O1058   1.418   .     S
C966   H996    1.111   .     S
C966   C1101   1.532   .     S
C966   H1132   1.116   .     S
C967   C968    1.525   .     S
C967   H1000   1.109   .     S
C968   H1002   1.109   .     S
C968   H1001   1.111   .     S
C969   H1005   1.111   .     S
C969   N1047   1.445   .     S
C969   H1007   1.108   .     S
C969   H202    1.112   1_565 S
C970   H1010   1.109   .     S
C970   N1048   1.450   .     S
C970   H1012   1.110   .     S
C970   H1011   1.111   .     S
C971   H1016   1.111   .     S
C971   H1014   1.109   .     S
C971   N1049   1.448   .     S
C971   H1015   1.110   .     S
C972   C982    1.424   .     A
C972   C981    1.423   .     A
C973   C974    1.532   .     S
C973   H1018   1.116   .     S
C973   O1059   1.420   .     S
C973   H2223   1.109   .     S
C974   C975    1.524   .     S
C974   H1021   1.110   .     S
C974   H1020   1.111   .     S
C975   H1022   1.110   .     S
C975   H85     1.108   1_565 S
C976   H1027   1.112   .     S
C976   H1026   1.111   .     S
C976   N1050   1.446   .     S
C976   H1028   1.109   .     S
C977   O1060   1.419   .     S
C977   H1031   1.118   .     S
C977   H1029   1.111   .     S
C977   C978    1.532   .     S
C978   C979    1.523   .     S
C978   H1033   1.110   .     S
C978   H1032   1.110   .     S
C979   H1034   1.109   .     S
C979   H1035   1.111   .     S
C979   H1036   1.111   .     S
C980   H1039   1.110   .     S
C980   H1038   1.111   .     S
C980   H1040   1.110   .     S
C980   N1051   1.449   .     S
C981   C2191   1.422   .     S
C982   C2189   1.406   .     S
C983   C984    1.421   .     A
C983   C2188   1.406   1_554 S
C984   C985    1.417   .     A
C984   N1051   1.432   .     S
C985   N1045   1.426   .     S
C985   C2187   1.422   1_554 S
H992   N1046   1.031   .     S
H995   C1099   1.112   .     S
H999   C1101   1.112   .     S
H1003  C1102   1.108   .     S
H1009  N1048   1.031   .     S
H1013  N1049   1.031   .     S
H1017  C2179   1.109   1_554 S
H1019  N1045   1.031   .     S
H1024  C1109   1.111   .     S
H1025  N1050   1.029   .     S
H1030  C1094   1.110   .     S
H1037  N1051   1.029   .     S
N1047  C148    1.427   1_565 S
N1047  H200    1.032   1_565 S
O1052  Zn1069  1.955   .     S
O1052  Zn1072  1.931   .     S
O1052  Zn1070  1.933   .     S
O1052  Zn1071  1.940   .     S
O1053  Zn1070  1.919   .     S
O1054  Zn1072  1.924   .     S
O1055  Zn1071  1.915   .     S
O1056  Zn1069  1.911   .     S
O1058  C1083   1.397   .     S
O1061  Zn1069  1.934   .     S
O1062  Zn1072  1.941   .     S
O1063  Zn1070  1.931   .     S
O1064  Zn1071  1.936   .     S
O1065  Zn1072  1.932   .     S
O1066  Zn1069  1.929   .     S
O1067  Zn1070  1.945   .     S
O1068  Zn1071  1.937   .     S
C1073  C1083   1.440   .     S
C1073  O1197   1.261   .     A
C1073  O1199   1.265   .     A
C1074  C1116   1.407   .     A
C1074  C1075   1.403   .     A
C1074  H1142   1.078   .     S
C1075  N1183   1.430   .     S
C1075  C2283   1.418   .     S
C1076  O1200   1.275   .     A
C1076  C1082   1.461   .     S
C1076  O1198   1.285   .     A
C1077  C1078   1.426   .     A
C1077  C1079   1.426   .     A
C1077  C2281   1.418   1_554 S
C1078  C1117   1.426   .     A
C1078  C1081   1.405   .     A
C1079  C1080   1.409   .     A
C1079  O1191   1.387   .     S
C1080  C1092   1.403   .     A
C1080  N1182   1.426   .     S
C1081  C1092   1.387   .     A
C1081  H1131   1.081   .     S
C1082  C815    1.353   1_655 S
C1082  N912    1.429   1_655 S
C1084  C1093   1.413   .     A
C1084  N1184   1.422   .     S
C1084  C1091   1.411   .     A
C1085  C1088   1.453   .     S
C1085  C282    1.344   1_565 S
C1085  H316    1.088   1_565 S
C1086  C1087   1.431   .     S
C1087  O1201   1.265   .     A
C1087  O1195   1.273   .     A
C1088  O1202   1.276   .     A
C1088  O1196   1.264   .     A
C1089  C1092   1.457   .     S
C1089  O1189   1.279   .     A
C1089  O1187   1.274   .     A
C1090  C1091   1.494   .     S
C1090  O1190   1.291   .     A
C1090  O1188   1.289   .     A
C1091  C1095   1.406   .     A
C1093  C1115   1.422   .     A
C1093  O1193   1.392   .     S
C1094  N1179   1.446   .     S
C1094  H1176   1.110   .     S
C1094  H1175   1.106   .     S
C1095  O1194   1.388   .     S
C1095  C1106   1.422   .     A
C1096  H1178   1.113   .     S
C1096  O1191   1.419   .     S
C1096  H1177   1.109   .     S
C1096  C2303   1.532   1_554 S
C1097  H1122   1.111   .     S
C1097  H1121   1.108   .     S
C1097  C2302   1.532   .     S
C1097  C830    1.528   1_655 S
C1098  H1124   1.110   .     S
C1098  H1125   1.111   .     S
C1098  H1123   1.109   .     S
C1099  H1127   1.110   .     S
C1099  H1128   1.111   .     S
C1099  N1180   1.447   .     S
C1100  O1192   1.418   .     S
C1100  H1130   1.111   .     S
C1100  C833    1.532   1_655 S
C1100  H864    1.116   1_655 S
C1101  C1102   1.525   .     S
C1101  H1134   1.109   .     S
C1102  H1136   1.109   .     S
C1102  H1135   1.111   .     S
C1103  H1139   1.111   .     S
C1103  N1181   1.445   .     S
C1103  H1141   1.108   .     S
C1103  H336    1.112   1_565 S
C1104  H1144   1.109   .     S
C1104  N1182   1.450   .     S
C1104  H1146   1.110   .     S
C1104  H1145   1.111   .     S
C1105  H1150   1.111   .     S
C1105  H1148   1.109   .     S
C1105  N1183   1.448   .     S
C1105  H1149   1.110   .     S
C1106  C1116   1.424   .     A
C1106  C1115   1.423   .     A
C1107  C1108   1.532   .     S
C1107  H1152   1.116   .     S
C1107  O1193   1.420   .     S
C1107  H2357   1.109   .     S
C1108  C1109   1.524   .     S
C1108  H1155   1.110   .     S
C1108  H1154   1.111   .     S
C1109  H1156   1.110   .     S
C1109  H219    1.108   1_565 S
C1110  H1161   1.112   .     S
C1110  H1160   1.111   .     S
C1110  N1184   1.446   .     S
C1110  H1162   1.109   .     S
C1111  O1194   1.419   .     S
C1111  H1165   1.118   .     S
C1111  H1163   1.111   .     S
C1111  C1112   1.532   .     S
C1112  C1113   1.523   .     S
C1112  H1167   1.110   .     S
C1112  H1166   1.110   .     S
C1113  H1168   1.109   .     S
C1113  H1169   1.111   .     S
C1113  H1170   1.111   .     S
C1114  H1173   1.110   .     S
C1114  H1172   1.111   .     S
C1114  H1174   1.110   .     S
C1114  N1185   1.449   .     S
C1115  C2325   1.422   .     S
C1116  C2323   1.406   .     S
C1117  C1118   1.421   .     A
C1117  C2322   1.406   1_554 S
C1118  C1119   1.417   .     A
C1118  N1185   1.432   .     S
C1119  N1179   1.426   .     S
C1119  C2321   1.422   1_554 S
H1126  N1180   1.031   .     S
H1129  C831    1.112   1_655 S
H1133  C833    1.112   1_655 S
H1137  C834    1.108   1_655 S
H1143  N1182   1.031   .     S
H1147  N1183   1.031   .     S
H1151  C2313   1.109   1_554 S
H1153  N1179   1.031   .     S
H1157  C439    1.108   1_655 S
H1158  C841    1.111   1_655 S
H1159  N1184   1.029   .     S
H1164  C826    1.110   1_655 S
H1171  N1185   1.029   .     S
N1181  C282    1.427   1_565 S
N1181  H334    1.032   1_565 S
O1186  Zn1203  1.955   .     S
O1186  Zn1206  1.931   .     S
O1186  Zn1204  1.933   .     S
O1186  Zn1205  1.940   .     S
O1187  Zn1204  1.919   .     S
O1188  Zn1206  1.924   .     S
O1189  Zn1205  1.915   .     S
O1190  Zn1203  1.911   .     S
O1192  C815    1.397   1_655 S
O1195  Zn1203  1.934   .     S
O1196  Zn1206  1.941   .     S
O1197  Zn1204  1.931   .     S
O1198  Zn1205  1.936   .     S
O1199  Zn1206  1.932   .     S
O1200  Zn1203  1.929   .     S
O1201  Zn1204  1.945   .     S
O1202  Zn1205  1.937   .     S
C1207  C1217   1.440   .     S
C1207  O1331   1.261   .     A
C1207  O1333   1.265   .     A
C1208  C1250   1.407   .     A
C1208  C1209   1.403   .     A
C1208  H1276   1.078   .     S
C1209  N1317   1.430   .     S
C1209  C5      1.418   1_556 S
C1210  O1334   1.275   .     A
C1210  C1216   1.461   .     S
C1210  O1332   1.285   .     A
C1211  C1212   1.426   .     A
C1211  C1213   1.426   .     A
C1212  C1251   1.426   .     A
C1212  C1215   1.405   .     A
C1213  C1214   1.409   .     A
C1213  O1325   1.387   .     S
C1214  C1226   1.403   .     A
C1214  N1316   1.426   .     S
C1215  C1226   1.387   .     A
C1215  H1265   1.081   .     S
C1216  C1351   1.353   .     S
C1216  N1448   1.429   .     S
C1217  C1484   1.353   1_455 S
C1217  O1594   1.397   1_455 S
C1218  C1227   1.413   .     A
C1218  N1318   1.422   .     S
C1218  C1225   1.411   .     A
C1219  C1222   1.453   .     S
C1219  C1622   1.344   .     S
C1219  H1656   1.088   .     S
C1220  C1221   1.431   .     S
C1220  C2023   1.344   1_545 S
C1220  N2119   1.427   1_545 S
C1221  O1335   1.265   .     A
C1221  O1329   1.273   .     A
C1222  O1336   1.276   .     A
C1222  O1330   1.264   .     A
C1223  C1226   1.457   .     S
C1223  O1323   1.279   .     A
C1223  O1321   1.274   .     A
C1224  C1225   1.494   .     S
C1224  O1324   1.291   .     A
C1224  O1322   1.289   .     A
C1225  C1229   1.406   .     A
C1227  C1249   1.422   .     A
C1227  O1327   1.392   .     S
C1228  N1313   1.446   .     S
C1228  H1310   1.110   .     S
C1228  H1309   1.106   .     S
C1228  H1566   1.110   1_455 S
C1229  O1328   1.388   .     S
C1229  C1240   1.422   .     A
C1230  H1312   1.113   .     S
C1230  O1325   1.419   .     S
C1230  H1311   1.109   .     S
C1231  H1256   1.111   .     S
C1231  H1255   1.108   .     S
C1231  C24     1.532   1_556 S
C1231  C1366   1.528   .     S
C1232  H1258   1.110   .     S
C1232  H1259   1.111   .     S
C1232  H1257   1.109   .     S
C1232  C1499   1.528   1_455 S
C1233  H1261   1.110   .     S
C1233  H1262   1.111   .     S
C1233  N1314   1.447   .     S
C1233  H1531   1.112   1_455 S
C1234  O1326   1.418   .     S
C1234  H1264   1.111   .     S
C1234  C1369   1.532   .     S
C1234  H1400   1.116   .     S
C1235  C1236   1.525   .     S
C1235  H1268   1.109   .     S
C1235  C1502   1.532   1_455 S
C1235  H1535   1.112   1_455 S
C1236  H1270   1.109   .     S
C1236  H1269   1.111   .     S
C1236  H1539   1.108   1_455 S
C1237  H1273   1.111   .     S
C1237  N1315   1.445   .     S
C1237  H1275   1.108   .     S
C1237  H1676   1.112   .     S
C1238  H1278   1.109   .     S
C1238  N1316   1.450   .     S
C1238  H1280   1.110   .     S
C1238  H1279   1.111   .     S
C1239  H1284   1.111   .     S
C1239  H1282   1.109   .     S
C1239  N1317   1.448   .     S
C1239  H1283   1.110   .     S
C1240  C1250   1.424   .     A
C1240  C1249   1.423   .     A
C1241  C1242   1.532   .     S
C1241  H1286   1.116   .     S
C1241  O1327   1.420   .     S
C1241  H79     1.109   1_556 S
C1242  C1243   1.524   .     S
C1242  H1289   1.110   .     S
C1242  H1288   1.111   .     S
C1243  H1290   1.110   .     S
C1243  H1961   1.108   1_455 S
C1243  H1560   1.111   1_455 S
C1244  H1295   1.112   .     S
C1244  H1294   1.111   .     S
C1244  N1318   1.446   .     S
C1244  H1296   1.109   .     S
C1245  O1328   1.419   .     S
C1245  H1299   1.118   .     S
C1245  H1297   1.111   .     S
C1245  C1246   1.532   .     S
C1246  C1247   1.523   .     S
C1246  H1301   1.110   .     S
C1246  H1300   1.110   .     S
C1247  H1302   1.109   .     S
C1247  H1303   1.111   .     S
C1247  H1304   1.111   .     S
C1248  H1307   1.110   .     S
C1248  H1306   1.111   .     S
C1248  H1308   1.110   .     S
C1248  N1319   1.449   .     S
C1249  C47     1.422   1_556 S
C1250  C45     1.406   1_556 S
C1251  C1252   1.421   .     A
C1252  C1253   1.417   .     A
C1252  N1319   1.432   .     S
C1253  N1313   1.426   .     S
H1254  C2023   1.088   1_545 S
H1260  N1314   1.031   .     S
H1263  C1367   1.112   .     S
H1266  C1502   1.116   1_455 S
H1267  C1369   1.112   .     S
H1271  C1370   1.108   .     S
H1272  N2119   1.032   1_545 S
H1274  C2041   1.112   1_545 S
H1277  N1316   1.031   .     S
H1281  N1317   1.031   .     S
H1287  N1313   1.031   .     S
H1291  C2181   1.108   1_545 S
H1292  C1377   1.111   .     S
H1293  N1318   1.029   .     S
H1298  C1362   1.110   .     S
H1305  N1319   1.029   .     S
N1314  C1484   1.429   1_455 S
N1315  C1622   1.427   .     S
N1315  H1674   1.032   .     S
O1320  Zn1337  1.955   .     S
O1320  Zn1340  1.931   .     S
O1320  Zn1338  1.933   .     S
O1320  Zn1339  1.940   .     S
O1321  Zn1338  1.919   .     S
O1322  Zn1340  1.924   .     S
O1323  Zn1339  1.915   .     S
O1324  Zn1337  1.911   .     S
O1326  C1351   1.397   .     S
O1329  Zn1337  1.934   .     S
O1330  Zn1340  1.941   .     S
O1331  Zn1338  1.931   .     S
O1332  Zn1339  1.936   .     S
O1333  Zn1340  1.932   .     S
O1334  Zn1337  1.929   .     S
O1335  Zn1338  1.945   .     S
O1336  Zn1339  1.937   .     S
C1341  C1351   1.440   .     S
C1341  O1465   1.261   .     A
C1341  O1467   1.265   .     A
C1342  C1384   1.407   .     A
C1342  C1343   1.403   .     A
C1342  H1410   1.078   .     S
C1343  N1451   1.430   .     S
C1343  C139    1.418   1_556 S
C1344  O1468   1.275   .     A
C1344  C1350   1.461   .     S
C1344  O1466   1.285   .     A
C1345  C1346   1.426   .     A
C1345  C1347   1.426   .     A
C1346  C1385   1.426   .     A
C1346  C1349   1.405   .     A
C1347  C1348   1.409   .     A
C1347  O1459   1.387   .     S
C1348  C1360   1.403   .     A
C1348  N1450   1.426   .     S
C1349  C1360   1.387   .     A
C1349  H1399   1.081   .     S
C1350  C1485   1.353   .     S
C1350  N1582   1.429   .     S
C1352  C1361   1.413   .     A
C1352  N1452   1.422   .     S
C1352  C1359   1.411   .     A
C1353  C1356   1.453   .     S
C1353  C1756   1.344   .     S
C1353  H1790   1.088   .     S
C1354  C1355   1.431   .     S
C1354  C2157   1.344   1_545 S
C1354  N2253   1.427   1_545 S
C1355  O1469   1.265   .     A
C1355  O1463   1.273   .     A
C1356  O1470   1.276   .     A
C1356  O1464   1.264   .     A
C1357  C1360   1.457   .     S
C1357  O1457   1.279   .     A
C1357  O1455   1.274   .     A
C1358  C1359   1.494   .     S
C1358  O1458   1.291   .     A
C1358  O1456   1.289   .     A
C1359  C1363   1.406   .     A
C1361  C1383   1.422   .     A
C1361  O1461   1.392   .     S
C1362  N1447   1.446   .     S
C1362  H1444   1.110   .     S
C1362  H1443   1.106   .     S
C1363  O1462   1.388   .     S
C1363  C1374   1.422   .     A
C1364  H1446   1.113   .     S
C1364  O1459   1.419   .     S
C1364  H1445   1.109   .     S
C1365  H1390   1.111   .     S
C1365  H1389   1.108   .     S
C1365  C158    1.532   1_556 S
C1365  C1500   1.528   .     S
C1366  H1392   1.110   .     S
C1366  H1393   1.111   .     S
C1366  H1391   1.109   .     S
C1367  H1395   1.110   .     S
C1367  H1396   1.111   .     S
C1367  N1448   1.447   .     S
C1368  O1460   1.418   .     S
C1368  H1398   1.111   .     S
C1368  C1503   1.532   .     S
C1368  H1534   1.116   .     S
C1369  C1370   1.525   .     S
C1369  H1402   1.109   .     S
C1370  H1404   1.109   .     S
C1370  H1403   1.111   .     S
C1371  H1407   1.111   .     S
C1371  N1449   1.445   .     S
C1371  H1409   1.108   .     S
C1371  H1810   1.112   .     S
C1372  H1412   1.109   .     S
C1372  N1450   1.450   .     S
C1372  H1414   1.110   .     S
C1372  H1413   1.111   .     S
C1373  H1418   1.111   .     S
C1373  H1416   1.109   .     S
C1373  N1451   1.448   .     S
C1373  H1417   1.110   .     S
C1374  C1384   1.424   .     A
C1374  C1383   1.423   .     A
C1375  C1376   1.532   .     S
C1375  H1420   1.116   .     S
C1375  O1461   1.420   .     S
C1375  H213    1.109   1_556 S
C1376  C1377   1.524   .     S
C1376  H1423   1.110   .     S
C1376  H1422   1.111   .     S
C1377  H1424   1.110   .     S
C1377  H1693   1.108   .     S
C1378  H1429   1.112   .     S
C1378  H1428   1.111   .     S
C1378  N1452   1.446   .     S
C1378  H1430   1.109   .     S
C1379  O1462   1.419   .     S
C1379  H1433   1.118   .     S
C1379  H1431   1.111   .     S
C1379  C1380   1.532   .     S
C1380  C1381   1.523   .     S
C1380  H1435   1.110   .     S
C1380  H1434   1.110   .     S
C1381  H1436   1.109   .     S
C1381  H1437   1.111   .     S
C1381  H1438   1.111   .     S
C1382  H1441   1.110   .     S
C1382  H1440   1.111   .     S
C1382  H1442   1.110   .     S
C1382  N1453   1.449   .     S
C1383  C181    1.422   1_556 S
C1384  C179    1.406   1_556 S
C1385  C1386   1.421   .     A
C1386  C1387   1.417   .     A
C1386  N1453   1.432   .     S
C1387  N1447   1.426   .     S
H1388  C2157   1.088   1_545 S
H1394  N1448   1.031   .     S
H1397  C1501   1.112   .     S
H1401  C1503   1.112   .     S
H1405  C1504   1.108   .     S
H1406  N2253   1.032   1_545 S
H1408  C2175   1.112   1_545 S
H1411  N1450   1.031   .     S
H1415  N1451   1.031   .     S
H1421  N1447   1.031   .     S
H1425  C2315   1.108   1_545 S
H1426  C1511   1.111   .     S
H1427  N1452   1.029   .     S
H1432  C1496   1.110   .     S
H1439  N1453   1.029   .     S
N1449  C1756   1.427   .     S
N1449  H1808   1.032   .     S
O1454  Zn1471  1.955   .     S
O1454  Zn1474  1.931   .     S
O1454  Zn1472  1.933   .     S
O1454  Zn1473  1.940   .     S
O1455  Zn1472  1.919   .     S
O1456  Zn1474  1.924   .     S
O1457  Zn1473  1.915   .     S
O1458  Zn1471  1.911   .     S
O1460  C1485   1.397   .     S
O1463  Zn1471  1.934   .     S
O1464  Zn1474  1.941   .     S
O1465  Zn1472  1.931   .     S
O1466  Zn1473  1.936   .     S
O1467  Zn1474  1.932   .     S
O1468  Zn1471  1.929   .     S
O1469  Zn1472  1.945   .     S
O1470  Zn1473  1.937   .     S
C1475  C1485   1.440   .     S
C1475  O1599   1.261   .     A
C1475  O1601   1.265   .     A
C1476  C1518   1.407   .     A
C1476  C1477   1.403   .     A
C1476  H1544   1.078   .     S
C1477  N1585   1.430   .     S
C1477  C273    1.418   1_556 S
C1478  O1602   1.275   .     A
C1478  C1484   1.461   .     S
C1478  O1600   1.285   .     A
C1479  C1480   1.426   .     A
C1479  C1481   1.426   .     A
C1480  C1519   1.426   .     A
C1480  C1483   1.405   .     A
C1481  C1482   1.409   .     A
C1481  O1593   1.387   .     S
C1482  C1494   1.403   .     A
C1482  N1584   1.426   .     S
C1483  C1494   1.387   .     A
C1483  H1533   1.081   .     S
C1484  C1217   1.353   1_655 S
C1484  N1314   1.429   1_655 S
C1486  C1495   1.413   .     A
C1486  N1586   1.422   .     S
C1486  C1493   1.411   .     A
C1487  C1490   1.453   .     S
C1487  C1890   1.344   .     S
C1487  H1924   1.088   .     S
C1488  C1489   1.431   .     S
C1488  C2291   1.344   1_545 S
C1488  N2387   1.427   1_545 S
C1489  O1603   1.265   .     A
C1489  O1597   1.273   .     A
C1490  O1604   1.276   .     A
C1490  O1598   1.264   .     A
C1491  C1494   1.457   .     S
C1491  O1591   1.279   .     A
C1491  O1589   1.274   .     A
C1492  C1493   1.494   .     S
C1492  O1592   1.291   .     A
C1492  O1590   1.289   .     A
C1493  C1497   1.406   .     A
C1495  C1517   1.422   .     A
C1495  O1595   1.392   .     S
C1496  N1581   1.446   .     S
C1496  H1578   1.110   .     S
C1496  H1577   1.106   .     S
C1497  O1596   1.388   .     S
C1497  C1508   1.422   .     A
C1498  H1580   1.113   .     S
C1498  O1593   1.419   .     S
C1498  H1579   1.109   .     S
C1499  H1524   1.111   .     S
C1499  H1523   1.108   .     S
C1499  C292    1.532   1_556 S
C1499  C1232   1.528   1_655 S
C1500  H1526   1.110   .     S
C1500  H1527   1.111   .     S
C1500  H1525   1.109   .     S
C1501  H1529   1.110   .     S
C1501  H1530   1.111   .     S
C1501  N1582   1.447   .     S
C1502  O1594   1.418   .     S
C1502  H1532   1.111   .     S
C1502  C1235   1.532   1_655 S
C1502  H1266   1.116   1_655 S
C1503  C1504   1.525   .     S
C1503  H1536   1.109   .     S
C1504  H1538   1.109   .     S
C1504  H1537   1.111   .     S
C1505  H1541   1.111   .     S
C1505  N1583   1.445   .     S
C1505  H1543   1.108   .     S
C1505  H1944   1.112   .     S
C1506  H1546   1.109   .     S
C1506  N1584   1.450   .     S
C1506  H1548   1.110   .     S
C1506  H1547   1.111   .     S
C1507  H1552   1.111   .     S
C1507  H1550   1.109   .     S
C1507  N1585   1.448   .     S
C1507  H1551   1.110   .     S
C1508  C1518   1.424   .     A
C1508  C1517   1.423   .     A
C1509  C1510   1.532   .     S
C1509  H1554   1.116   .     S
C1509  O1595   1.420   .     S
C1509  H347    1.109   1_556 S
C1510  C1511   1.524   .     S
C1510  H1557   1.110   .     S
C1510  H1556   1.111   .     S
C1511  H1558   1.110   .     S
C1511  H1827   1.108   .     S
C1512  H1563   1.112   .     S
C1512  H1562   1.111   .     S
C1512  N1586   1.446   .     S
C1512  H1564   1.109   .     S
C1513  O1596   1.419   .     S
C1513  H1567   1.118   .     S
C1513  H1565   1.111   .     S
C1513  C1514   1.532   .     S
C1514  C1515   1.523   .     S
C1514  H1569   1.110   .     S
C1514  H1568   1.110   .     S
C1515  H1570   1.109   .     S
C1515  H1571   1.111   .     S
C1515  H1572   1.111   .     S
C1516  H1575   1.110   .     S
C1516  H1574   1.111   .     S
C1516  H1576   1.110   .     S
C1516  N1587   1.449   .     S
C1517  C315    1.422   1_556 S
C1518  C313    1.406   1_556 S
C1519  C1520   1.421   .     A
C1520  C1521   1.417   .     A
C1520  N1587   1.432   .     S
C1521  N1581   1.426   .     S
H1522  C2291   1.088   1_545 S
H1528  N1582   1.031   .     S
H1531  C1233   1.112   1_655 S
H1535  C1235   1.112   1_655 S
H1539  C1236   1.108   1_655 S
H1540  N2387   1.032   1_545 S
H1542  C2309   1.112   1_545 S
H1545  N1584   1.031   .     S
H1549  N1585   1.031   .     S
H1555  N1581   1.031   .     S
H1559  C2047   1.108   1_645 S
H1560  C1243   1.111   1_655 S
H1561  N1586   1.029   .     S
H1566  C1228   1.110   1_655 S
H1573  N1587   1.029   .     S
N1583  C1890   1.427   .     S
N1583  H1942   1.032   .     S
O1588  Zn1605  1.955   .     S
O1588  Zn1608  1.931   .     S
O1588  Zn1606  1.933   .     S
O1588  Zn1607  1.940   .     S
O1589  Zn1606  1.919   .     S
O1590  Zn1608  1.924   .     S
O1591  Zn1607  1.915   .     S
O1592  Zn1605  1.911   .     S
O1594  C1217   1.397   1_655 S
O1597  Zn1605  1.934   .     S
O1598  Zn1608  1.941   .     S
O1599  Zn1606  1.931   .     S
O1600  Zn1607  1.936   .     S
O1601  Zn1608  1.932   .     S
O1602  Zn1605  1.929   .     S
O1603  Zn1606  1.945   .     S
O1604  Zn1607  1.937   .     S
C1609  C1619   1.440   .     S
C1609  O1733   1.261   .     A
C1609  O1735   1.265   .     A
C1610  C1652   1.407   .     A
C1610  C1611   1.403   .     A
C1610  H1678   1.078   .     S
C1611  N1719   1.430   .     S
C1611  C407    1.418   1_556 S
C1612  O1736   1.275   .     A
C1612  C1618   1.461   .     S
C1612  O1734   1.285   .     A
C1613  C1614   1.426   .     A
C1613  C1615   1.426   .     A
C1614  C1653   1.426   .     A
C1614  C1617   1.405   .     A
C1615  C1616   1.409   .     A
C1615  O1727   1.387   .     S
C1616  C1628   1.403   .     A
C1616  N1718   1.426   .     S
C1617  C1628   1.387   .     A
C1617  H1667   1.081   .     S
C1618  C1753   1.353   .     S
C1618  N1850   1.429   .     S
C1619  C1886   1.353   1_455 S
C1619  O1996   1.397   1_455 S
C1620  C1629   1.413   .     A
C1620  N1720   1.422   .     S
C1620  C1627   1.411   .     A
C1621  C1624   1.453   .     S
C1621  C2024   1.344   .     S
C1621  H2058   1.088   .     S
C1622  C1623   1.431   .     S
C1623  O1737   1.265   .     A
C1623  O1731   1.273   .     A
C1624  O1738   1.276   .     A
C1624  O1732   1.264   .     A
C1625  C1628   1.457   .     S
C1625  O1725   1.279   .     A
C1625  O1723   1.274   .     A
C1626  C1627   1.494   .     S
C1626  O1726   1.291   .     A
C1626  O1724   1.289   .     A
C1627  C1631   1.406   .     A
C1629  C1651   1.422   .     A
C1629  O1729   1.392   .     S
C1630  N1715   1.446   .     S
C1630  H1712   1.110   .     S
C1630  H1711   1.106   .     S
C1630  H1968   1.110   1_455 S
C1631  O1730   1.388   .     S
C1631  C1642   1.422   .     A
C1632  H1714   1.113   .     S
C1632  O1727   1.419   .     S
C1632  H1713   1.109   .     S
C1633  H1658   1.111   .     S
C1633  H1657   1.108   .     S
C1633  C426    1.532   1_556 S
C1633  C1768   1.528   .     S
C1634  H1660   1.110   .     S
C1634  H1661   1.111   .     S
C1634  H1659   1.109   .     S
C1634  C1901   1.528   1_455 S
C1635  H1663   1.110   .     S
C1635  H1664   1.111   .     S
C1635  N1716   1.447   .     S
C1635  H1933   1.112   1_455 S
C1636  O1728   1.418   .     S
C1636  H1666   1.111   .     S
C1636  C1771   1.532   .     S
C1636  H1802   1.116   .     S
C1637  C1638   1.525   .     S
C1637  H1670   1.109   .     S
C1637  C1904   1.532   1_455 S
C1637  H1937   1.112   1_455 S
C1638  H1672   1.109   .     S
C1638  H1671   1.111   .     S
C1638  H1941   1.108   1_455 S
C1639  H1675   1.111   .     S
C1639  N1717   1.445   .     S
C1639  H1677   1.108   .     S
C1639  H2078   1.112   .     S
C1640  H1680   1.109   .     S
C1640  N1718   1.450   .     S
C1640  H1682   1.110   .     S
C1640  H1681   1.111   .     S
C1641  H1686   1.111   .     S
C1641  H1684   1.109   .     S
C1641  N1719   1.448   .     S
C1641  H1685   1.110   .     S
C1642  C1652   1.424   .     A
C1642  C1651   1.423   .     A
C1643  C1644   1.532   .     S
C1643  H1688   1.116   .     S
C1643  O1729   1.420   .     S
C1643  H481    1.109   1_556 S
C1644  C1645   1.524   .     S
C1644  H1691   1.110   .     S
C1644  H1690   1.111   .     S
C1645  H1692   1.110   .     S
C1645  H2363   1.108   1_455 S
C1645  H1962   1.111   1_455 S
C1646  H1697   1.112   .     S
C1646  H1696   1.111   .     S
C1646  N1720   1.446   .     S
C1646  H1698   1.109   .     S
C1647  O1730   1.419   .     S
C1647  H1701   1.118   .     S
C1647  H1699   1.111   .     S
C1647  C1648   1.532   .     S
C1648  C1649   1.523   .     S
C1648  H1703   1.110   .     S
C1648  H1702   1.110   .     S
C1649  H1704   1.109   .     S
C1649  H1705   1.111   .     S
C1649  H1706   1.111   .     S
C1650  H1709   1.110   .     S
C1650  H1708   1.111   .     S
C1650  H1710   1.110   .     S
C1650  N1721   1.449   .     S
C1651  C449    1.422   1_556 S
C1652  C447    1.406   1_556 S
C1653  C1654   1.421   .     A
C1654  C1655   1.417   .     A
C1654  N1721   1.432   .     S
C1655  N1715   1.426   .     S
H1662  N1716   1.031   .     S
H1665  C1769   1.112   .     S
H1668  C1904   1.116   1_455 S
H1669  C1771   1.112   .     S
H1673  C1772   1.108   .     S
H1679  N1718   1.031   .     S
H1683  N1719   1.031   .     S
H1689  N1715   1.031   .     S
H1694  C1779   1.111   .     S
H1695  N1720   1.029   .     S
H1700  C1764   1.110   .     S
H1707  N1721   1.029   .     S
N1716  C1886   1.429   1_455 S
N1717  C2024   1.427   .     S
N1717  H2076   1.032   .     S
O1722  Zn1739  1.955   .     S
O1722  Zn1742  1.931   .     S
O1722  Zn1740  1.933   .     S
O1722  Zn1741  1.940   .     S
O1723  Zn1740  1.919   .     S
O1724  Zn1742  1.924   .     S
O1725  Zn1741  1.915   .     S
O1726  Zn1739  1.911   .     S
O1728  C1753   1.397   .     S
O1731  Zn1739  1.934   .     S
O1732  Zn1742  1.941   .     S
O1733  Zn1740  1.931   .     S
O1734  Zn1741  1.936   .     S
O1735  Zn1742  1.932   .     S
O1736  Zn1739  1.929   .     S
O1737  Zn1740  1.945   .     S
O1738  Zn1741  1.937   .     S
C1743  C1753   1.440   .     S
C1743  O1867   1.261   .     A
C1743  O1869   1.265   .     A
C1744  C1786   1.407   .     A
C1744  C1745   1.403   .     A
C1744  H1812   1.078   .     S
C1745  N1853   1.430   .     S
C1745  C541    1.418   1_556 S
C1746  O1870   1.275   .     A
C1746  C1752   1.461   .     S
C1746  O1868   1.285   .     A
C1747  C1748   1.426   .     A
C1747  C1749   1.426   .     A
C1748  C1787   1.426   .     A
C1748  C1751   1.405   .     A
C1749  C1750   1.409   .     A
C1749  O1861   1.387   .     S
C1750  C1762   1.403   .     A
C1750  N1852   1.426   .     S
C1751  C1762   1.387   .     A
C1751  H1801   1.081   .     S
C1752  C1887   1.353   .     S
C1752  N1984   1.429   .     S
C1754  C1763   1.413   .     A
C1754  N1854   1.422   .     S
C1754  C1761   1.411   .     A
C1755  C1758   1.453   .     S
C1755  C2158   1.344   .     S
C1755  H2192   1.088   .     S
C1756  C1757   1.431   .     S
C1757  O1871   1.265   .     A
C1757  O1865   1.273   .     A
C1758  O1872   1.276   .     A
C1758  O1866   1.264   .     A
C1759  C1762   1.457   .     S
C1759  O1859   1.279   .     A
C1759  O1857   1.274   .     A
C1760  C1761   1.494   .     S
C1760  O1860   1.291   .     A
C1760  O1858   1.289   .     A
C1761  C1765   1.406   .     A
C1763  C1785   1.422   .     A
C1763  O1863   1.392   .     S
C1764  N1849   1.446   .     S
C1764  H1846   1.110   .     S
C1764  H1845   1.106   .     S
C1765  O1864   1.388   .     S
C1765  C1776   1.422   .     A
C1766  H1848   1.113   .     S
C1766  O1861   1.419   .     S
C1766  H1847   1.109   .     S
C1767  H1792   1.111   .     S
C1767  H1791   1.108   .     S
C1767  C560    1.532   1_556 S
C1767  C1902   1.528   .     S
C1768  H1794   1.110   .     S
C1768  H1795   1.111   .     S
C1768  H1793   1.109   .     S
C1769  H1797   1.110   .     S
C1769  H1798   1.111   .     S
C1769  N1850   1.447   .     S
C1770  O1862   1.418   .     S
C1770  H1800   1.111   .     S
C1770  C1905   1.532   .     S
C1770  H1936   1.116   .     S
C1771  C1772   1.525   .     S
C1771  H1804   1.109   .     S
C1772  H1806   1.109   .     S
C1772  H1805   1.111   .     S
C1773  H1809   1.111   .     S
C1773  N1851   1.445   .     S
C1773  H1811   1.108   .     S
C1773  H2212   1.112   .     S
C1774  H1814   1.109   .     S
C1774  N1852   1.450   .     S
C1774  H1816   1.110   .     S
C1774  H1815   1.111   .     S
C1775  H1820   1.111   .     S
C1775  H1818   1.109   .     S
C1775  N1853   1.448   .     S
C1775  H1819   1.110   .     S
C1776  C1786   1.424   .     A
C1776  C1785   1.423   .     A
C1777  C1778   1.532   .     S
C1777  H1822   1.116   .     S
C1777  O1863   1.420   .     S
C1777  H615    1.109   1_556 S
C1778  C1779   1.524   .     S
C1778  H1825   1.110   .     S
C1778  H1824   1.111   .     S
C1779  H1826   1.110   .     S
C1779  H2095   1.108   .     S
C1780  H1831   1.112   .     S
C1780  H1830   1.111   .     S
C1780  N1854   1.446   .     S
C1780  H1832   1.109   .     S
C1781  O1864   1.419   .     S
C1781  H1835   1.118   .     S
C1781  H1833   1.111   .     S
C1781  C1782   1.532   .     S
C1782  C1783   1.523   .     S
C1782  H1837   1.110   .     S
C1782  H1836   1.110   .     S
C1783  H1838   1.109   .     S
C1783  H1839   1.111   .     S
C1783  H1840   1.111   .     S
C1784  H1843   1.110   .     S
C1784  H1842   1.111   .     S
C1784  H1844   1.110   .     S
C1784  N1855   1.449   .     S
C1785  C583    1.422   1_556 S
C1786  C581    1.406   1_556 S
C1787  C1788   1.421   .     A
C1788  C1789   1.417   .     A
C1788  N1855   1.432   .     S
C1789  N1849   1.426   .     S
H1796  N1850   1.031   .     S
H1799  C1903   1.112   .     S
H1803  C1905   1.112   .     S
H1807  C1906   1.108   .     S
H1813  N1852   1.031   .     S
H1817  N1853   1.031   .     S
H1823  N1849   1.031   .     S
H1828  C1913   1.111   .     S
H1829  N1854   1.029   .     S
H1834  C1898   1.110   .     S
H1841  N1855   1.029   .     S
N1851  C2158   1.427   .     S
N1851  H2210   1.032   .     S
O1856  Zn1873  1.955   .     S
O1856  Zn1876  1.931   .     S
O1856  Zn1874  1.933   .     S
O1856  Zn1875  1.940   .     S
O1857  Zn1874  1.919   .     S
O1858  Zn1876  1.924   .     S
O1859  Zn1875  1.915   .     S
O1860  Zn1873  1.911   .     S
O1862  C1887   1.397   .     S
O1865  Zn1873  1.934   .     S
O1866  Zn1876  1.941   .     S
O1867  Zn1874  1.931   .     S
O1868  Zn1875  1.936   .     S
O1869  Zn1876  1.932   .     S
O1870  Zn1873  1.929   .     S
O1871  Zn1874  1.945   .     S
O1872  Zn1875  1.937   .     S
C1877  C1887   1.440   .     S
C1877  O2001   1.261   .     A
C1877  O2003   1.265   .     A
C1878  C1920   1.407   .     A
C1878  C1879   1.403   .     A
C1878  H1946   1.078   .     S
C1879  N1987   1.430   .     S
C1879  C675    1.418   1_556 S
C1880  O2004   1.275   .     A
C1880  C1886   1.461   .     S
C1880  O2002   1.285   .     A
C1881  C1882   1.426   .     A
C1881  C1883   1.426   .     A
C1882  C1921   1.426   .     A
C1882  C1885   1.405   .     A
C1883  C1884   1.409   .     A
C1883  O1995   1.387   .     S
C1884  C1896   1.403   .     A
C1884  N1986   1.426   .     S
C1885  C1896   1.387   .     A
C1885  H1935   1.081   .     S
C1886  C1619   1.353   1_655 S
C1886  N1716   1.429   1_655 S
C1888  C1897   1.413   .     A
C1888  N1988   1.422   .     S
C1888  C1895   1.411   .     A
C1889  C1892   1.453   .     S
C1889  C2292   1.344   .     S
C1889  H2326   1.088   .     S
C1890  C1891   1.431   .     S
C1891  O2005   1.265   .     A
C1891  O1999   1.273   .     A
C1892  O2006   1.276   .     A
C1892  O2000   1.264   .     A
C1893  C1896   1.457   .     S
C1893  O1993   1.279   .     A
C1893  O1991   1.274   .     A
C1894  C1895   1.494   .     S
C1894  O1994   1.291   .     A
C1894  O1992   1.289   .     A
C1895  C1899   1.406   .     A
C1897  C1919   1.422   .     A
C1897  O1997   1.392   .     S
C1898  N1983   1.446   .     S
C1898  H1980   1.110   .     S
C1898  H1979   1.106   .     S
C1899  O1998   1.388   .     S
C1899  C1910   1.422   .     A
C1900  H1982   1.113   .     S
C1900  O1995   1.419   .     S
C1900  H1981   1.109   .     S
C1901  H1926   1.111   .     S
C1901  H1925   1.108   .     S
C1901  C694    1.532   1_556 S
C1901  C1634   1.528   1_655 S
C1902  H1928   1.110   .     S
C1902  H1929   1.111   .     S
C1902  H1927   1.109   .     S
C1903  H1931   1.110   .     S
C1903  H1932   1.111   .     S
C1903  N1984   1.447   .     S
C1904  O1996   1.418   .     S
C1904  H1934   1.111   .     S
C1904  C1637   1.532   1_655 S
C1904  H1668   1.116   1_655 S
C1905  C1906   1.525   .     S
C1905  H1938   1.109   .     S
C1906  H1940   1.109   .     S
C1906  H1939   1.111   .     S
C1907  H1943   1.111   .     S
C1907  N1985   1.445   .     S
C1907  H1945   1.108   .     S
C1907  H2346   1.112   .     S
C1908  H1948   1.109   .     S
C1908  N1986   1.450   .     S
C1908  H1950   1.110   .     S
C1908  H1949   1.111   .     S
C1909  H1954   1.111   .     S
C1909  H1952   1.109   .     S
C1909  N1987   1.448   .     S
C1909  H1953   1.110   .     S
C1910  C1920   1.424   .     A
C1910  C1919   1.423   .     A
C1911  C1912   1.532   .     S
C1911  H1956   1.116   .     S
C1911  O1997   1.420   .     S
C1911  H749    1.109   1_556 S
C1912  C1913   1.524   .     S
C1912  H1959   1.110   .     S
C1912  H1958   1.111   .     S
C1913  H1960   1.110   .     S
C1913  H2229   1.108   .     S
C1914  H1965   1.112   .     S
C1914  H1964   1.111   .     S
C1914  N1988   1.446   .     S
C1914  H1966   1.109   .     S
C1915  O1998   1.419   .     S
C1915  H1969   1.118   .     S
C1915  H1967   1.111   .     S
C1915  C1916   1.532   .     S
C1916  C1917   1.523   .     S
C1916  H1971   1.110   .     S
C1916  H1970   1.110   .     S
C1917  H1972   1.109   .     S
C1917  H1973   1.111   .     S
C1917  H1974   1.111   .     S
C1918  H1977   1.110   .     S
C1918  H1976   1.111   .     S
C1918  H1978   1.110   .     S
C1918  N1989   1.449   .     S
C1919  C717    1.422   1_556 S
C1920  C715    1.406   1_556 S
C1921  C1922   1.421   .     A
C1922  C1923   1.417   .     A
C1922  N1989   1.432   .     S
C1923  N1983   1.426   .     S
H1930  N1984   1.031   .     S
H1933  C1635   1.112   1_655 S
H1937  C1637   1.112   1_655 S
H1941  C1638   1.108   1_655 S
H1947  N1986   1.031   .     S
H1951  N1987   1.031   .     S
H1957  N1983   1.031   .     S
H1961  C1243   1.108   1_655 S
H1962  C1645   1.111   1_655 S
H1963  N1988   1.029   .     S
H1968  C1630   1.110   1_655 S
H1975  N1989   1.029   .     S
N1985  C2292   1.427   .     S
N1985  H2344   1.032   .     S
O1990  Zn2007  1.955   .     S
O1990  Zn2010  1.931   .     S
O1990  Zn2008  1.933   .     S
O1990  Zn2009  1.940   .     S
O1991  Zn2008  1.919   .     S
O1992  Zn2010  1.924   .     S
O1993  Zn2009  1.915   .     S
O1994  Zn2007  1.911   .     S
O1996  C1619   1.397   1_655 S
O1999  Zn2007  1.934   .     S
O2000  Zn2010  1.941   .     S
O2001  Zn2008  1.931   .     S
O2002  Zn2009  1.936   .     S
O2003  Zn2010  1.932   .     S
O2004  Zn2007  1.929   .     S
O2005  Zn2008  1.945   .     S
O2006  Zn2009  1.937   .     S
C2011  C2021   1.440   .     S
C2011  O2135   1.261   .     A
C2011  O2137   1.265   .     A
C2012  C2054   1.407   .     A
C2012  C2013   1.403   .     A
C2012  H2080   1.078   .     S
C2013  N2121   1.430   .     S
C2013  C809    1.418   1_556 S
C2014  O2138   1.275   .     A
C2014  C2020   1.461   .     S
C2014  O2136   1.285   .     A
C2015  C2016   1.426   .     A
C2015  C2017   1.426   .     A
C2016  C2055   1.426   .     A
C2016  C2019   1.405   .     A
C2017  C2018   1.409   .     A
C2017  O2129   1.387   .     S
C2018  C2030   1.403   .     A
C2018  N2120   1.426   .     S
C2019  C2030   1.387   .     A
C2019  H2069   1.081   .     S
C2020  C2155   1.353   .     S
C2020  N2252   1.429   .     S
C2021  C2288   1.353   1_455 S
C2021  O2398   1.397   1_455 S
C2022  C2031   1.413   .     A
C2022  N2122   1.422   .     S
C2022  C2029   1.411   .     A
C2023  C2026   1.453   .     S
C2023  C1220   1.344   1_565 S
C2023  H1254   1.088   1_565 S
C2024  C2025   1.431   .     S
C2025  O2139   1.265   .     A
C2025  O2133   1.273   .     A
C2026  O2140   1.276   .     A
C2026  O2134   1.264   .     A
C2027  C2030   1.457   .     S
C2027  O2127   1.279   .     A
C2027  O2125   1.274   .     A
C2028  C2029   1.494   .     S
C2028  O2128   1.291   .     A
C2028  O2126   1.289   .     A
C2029  C2033   1.406   .     A
C2031  C2053   1.422   .     A
C2031  O2131   1.392   .     S
C2032  N2117   1.446   .     S
C2032  H2114   1.110   .     S
C2032  H2113   1.106   .     S
C2032  H2370   1.110   1_455 S
C2033  O2132   1.388   .     S
C2033  C2044   1.422   .     A
C2034  H2116   1.113   .     S
C2034  O2129   1.419   .     S
C2034  H2115   1.109   .     S
C2035  H2060   1.111   .     S
C2035  H2059   1.108   .     S
C2035  C828    1.532   1_556 S
C2035  C2170   1.528   .     S
C2036  H2062   1.110   .     S
C2036  H2063   1.111   .     S
C2036  H2061   1.109   .     S
C2036  C2303   1.528   1_455 S
C2037  H2065   1.110   .     S
C2037  H2066   1.111   .     S
C2037  N2118   1.447   .     S
C2037  H2335   1.112   1_455 S
C2038  O2130   1.418   .     S
C2038  H2068   1.111   .     S
C2038  C2173   1.532   .     S
C2038  H2204   1.116   .     S
C2039  C2040   1.525   .     S
C2039  H2072   1.109   .     S
C2039  C2306   1.532   1_455 S
C2039  H2339   1.112   1_455 S
C2040  H2074   1.109   .     S
C2040  H2073   1.111   .     S
C2040  H2343   1.108   1_455 S
C2041  H2077   1.111   .     S
C2041  N2119   1.445   .     S
C2041  H2079   1.108   .     S
C2041  H1274   1.112   1_565 S
C2042  H2082   1.109   .     S
C2042  N2120   1.450   .     S
C2042  H2084   1.110   .     S
C2042  H2083   1.111   .     S
C2043  H2088   1.111   .     S
C2043  H2086   1.109   .     S
C2043  N2121   1.448   .     S
C2043  H2087   1.110   .     S
C2044  C2054   1.424   .     A
C2044  C2053   1.423   .     A
C2045  C2046   1.532   .     S
C2045  H2090   1.116   .     S
C2045  O2131   1.420   .     S
C2045  H883    1.109   1_556 S
C2046  C2047   1.524   .     S
C2046  H2093   1.110   .     S
C2046  H2092   1.111   .     S
C2047  H2094   1.110   .     S
C2047  H1559   1.108   1_465 S
C2047  H2364   1.111   1_455 S
C2048  H2099   1.112   .     S
C2048  H2098   1.111   .     S
C2048  N2122   1.446   .     S
C2048  H2100   1.109   .     S
C2049  O2132   1.419   .     S
C2049  H2103   1.118   .     S
C2049  H2101   1.111   .     S
C2049  C2050   1.532   .     S
C2050  C2051   1.523   .     S
C2050  H2105   1.110   .     S
C2050  H2104   1.110   .     S
C2051  H2106   1.109   .     S
C2051  H2107   1.111   .     S
C2051  H2108   1.111   .     S
C2052  H2111   1.110   .     S
C2052  H2110   1.111   .     S
C2052  H2112   1.110   .     S
C2052  N2123   1.449   .     S
C2053  C851    1.422   1_556 S
C2054  C849    1.406   1_556 S
C2055  C2056   1.421   .     A
C2056  C2057   1.417   .     A
C2056  N2123   1.432   .     S
C2057  N2117   1.426   .     S
H2064  N2118   1.031   .     S
H2067  C2171   1.112   .     S
H2070  C2306   1.116   1_455 S
H2071  C2173   1.112   .     S
H2075  C2174   1.108   .     S
H2081  N2120   1.031   .     S
H2085  N2121   1.031   .     S
H2091  N2117   1.031   .     S
H2096  C2181   1.111   .     S
H2097  N2122   1.029   .     S
H2102  C2166   1.110   .     S
H2109  N2123   1.029   .     S
N2118  C2288   1.429   1_455 S
N2119  C1220   1.427   1_565 S
N2119  H1272   1.032   1_565 S
O2124  Zn2141  1.955   .     S
O2124  Zn2144  1.931   .     S
O2124  Zn2142  1.933   .     S
O2124  Zn2143  1.940   .     S
O2125  Zn2142  1.919   .     S
O2126  Zn2144  1.924   .     S
O2127  Zn2143  1.915   .     S
O2128  Zn2141  1.911   .     S
O2130  C2155   1.397   .     S
O2133  Zn2141  1.934   .     S
O2134  Zn2144  1.941   .     S
O2135  Zn2142  1.931   .     S
O2136  Zn2143  1.936   .     S
O2137  Zn2144  1.932   .     S
O2138  Zn2141  1.929   .     S
O2139  Zn2142  1.945   .     S
O2140  Zn2143  1.937   .     S
C2145  C2155   1.440   .     S
C2145  O2269   1.261   .     A
C2145  O2271   1.265   .     A
C2146  C2188   1.407   .     A
C2146  C2147   1.403   .     A
C2146  H2214   1.078   .     S
C2147  N2255   1.430   .     S
C2147  C943    1.418   1_556 S
C2148  O2272   1.275   .     A
C2148  C2154   1.461   .     S
C2148  O2270   1.285   .     A
C2149  C2150   1.426   .     A
C2149  C2151   1.426   .     A
C2150  C2189   1.426   .     A
C2150  C2153   1.405   .     A
C2151  C2152   1.409   .     A
C2151  O2263   1.387   .     S
C2152  C2164   1.403   .     A
C2152  N2254   1.426   .     S
C2153  C2164   1.387   .     A
C2153  H2203   1.081   .     S
C2154  C2289   1.353   .     S
C2154  N2386   1.429   .     S
C2156  C2165   1.413   .     A
C2156  N2256   1.422   .     S
C2156  C2163   1.411   .     A
C2157  C2160   1.453   .     S
C2157  C1354   1.344   1_565 S
C2157  H1388   1.088   1_565 S
C2158  C2159   1.431   .     S
C2159  O2273   1.265   .     A
C2159  O2267   1.273   .     A
C2160  O2274   1.276   .     A
C2160  O2268   1.264   .     A
C2161  C2164   1.457   .     S
C2161  O2261   1.279   .     A
C2161  O2259   1.274   .     A
C2162  C2163   1.494   .     S
C2162  O2262   1.291   .     A
C2162  O2260   1.289   .     A
C2163  C2167   1.406   .     A
C2165  C2187   1.422   .     A
C2165  O2265   1.392   .     S
C2166  N2251   1.446   .     S
C2166  H2248   1.110   .     S
C2166  H2247   1.106   .     S
C2167  O2266   1.388   .     S
C2167  C2178   1.422   .     A
C2168  H2250   1.113   .     S
C2168  O2263   1.419   .     S
C2168  H2249   1.109   .     S
C2169  H2194   1.111   .     S
C2169  H2193   1.108   .     S
C2169  C962    1.532   1_556 S
C2169  C2304   1.528   .     S
C2170  H2196   1.110   .     S
C2170  H2197   1.111   .     S
C2170  H2195   1.109   .     S
C2171  H2199   1.110   .     S
C2171  H2200   1.111   .     S
C2171  N2252   1.447   .     S
C2172  O2264   1.418   .     S
C2172  H2202   1.111   .     S
C2172  C2307   1.532   .     S
C2172  H2338   1.116   .     S
C2173  C2174   1.525   .     S
C2173  H2206   1.109   .     S
C2174  H2208   1.109   .     S
C2174  H2207   1.111   .     S
C2175  H2211   1.111   .     S
C2175  N2253   1.445   .     S
C2175  H2213   1.108   .     S
C2175  H1408   1.112   1_565 S
C2176  H2216   1.109   .     S
C2176  N2254   1.450   .     S
C2176  H2218   1.110   .     S
C2176  H2217   1.111   .     S
C2177  H2222   1.111   .     S
C2177  H2220   1.109   .     S
C2177  N2255   1.448   .     S
C2177  H2221   1.110   .     S
C2178  C2188   1.424   .     A
C2178  C2187   1.423   .     A
C2179  C2180   1.532   .     S
C2179  H2224   1.116   .     S
C2179  O2265   1.420   .     S
C2179  H1017   1.109   1_556 S
C2180  C2181   1.524   .     S
C2180  H2227   1.110   .     S
C2180  H2226   1.111   .     S
C2181  H2228   1.110   .     S
C2181  H1291   1.108   1_565 S
C2182  H2233   1.112   .     S
C2182  H2232   1.111   .     S
C2182  N2256   1.446   .     S
C2182  H2234   1.109   .     S
C2183  O2266   1.419   .     S
C2183  H2237   1.118   .     S
C2183  H2235   1.111   .     S
C2183  C2184   1.532   .     S
C2184  C2185   1.523   .     S
C2184  H2239   1.110   .     S
C2184  H2238   1.110   .     S
C2185  H2240   1.109   .     S
C2185  H2241   1.111   .     S
C2185  H2242   1.111   .     S
C2186  H2245   1.110   .     S
C2186  H2244   1.111   .     S
C2186  H2246   1.110   .     S
C2186  N2257   1.449   .     S
C2187  C985    1.422   1_556 S
C2188  C983    1.406   1_556 S
C2189  C2190   1.421   .     A
C2190  C2191   1.417   .     A
C2190  N2257   1.432   .     S
C2191  N2251   1.426   .     S
H2198  N2252   1.031   .     S
H2201  C2305   1.112   .     S
H2205  C2307   1.112   .     S
H2209  C2308   1.108   .     S
H2215  N2254   1.031   .     S
H2219  N2255   1.031   .     S
H2225  N2251   1.031   .     S
H2230  C2315   1.111   .     S
H2231  N2256   1.029   .     S
H2236  C2300   1.110   .     S
H2243  N2257   1.029   .     S
N2253  C1354   1.427   1_565 S
N2253  H1406   1.032   1_565 S
O2258  Zn2275  1.955   .     S
O2258  Zn2278  1.931   .     S
O2258  Zn2276  1.933   .     S
O2258  Zn2277  1.940   .     S
O2259  Zn2276  1.919   .     S
O2260  Zn2278  1.924   .     S
O2261  Zn2277  1.915   .     S
O2262  Zn2275  1.911   .     S
O2264  C2289   1.397   .     S
O2267  Zn2275  1.934   .     S
O2268  Zn2278  1.941   .     S
O2269  Zn2276  1.931   .     S
O2270  Zn2277  1.936   .     S
O2271  Zn2278  1.932   .     S
O2272  Zn2275  1.929   .     S
O2273  Zn2276  1.945   .     S
O2274  Zn2277  1.937   .     S
C2279  C2289   1.440   .     S
C2279  O2403   1.261   .     A
C2279  O2405   1.265   .     A
C2280  C2322   1.407   .     A
C2280  C2281   1.403   .     A
C2280  H2348   1.078   .     S
C2281  N2389   1.430   .     S
C2281  C1077   1.418   1_556 S
C2282  O2406   1.275   .     A
C2282  C2288   1.461   .     S
C2282  O2404   1.285   .     A
C2283  C2284   1.426   .     A
C2283  C2285   1.426   .     A
C2284  C2323   1.426   .     A
C2284  C2287   1.405   .     A
C2285  C2286   1.409   .     A
C2285  O2397   1.387   .     S
C2286  C2298   1.403   .     A
C2286  N2388   1.426   .     S
C2287  C2298   1.387   .     A
C2287  H2337   1.081   .     S
C2288  C2021   1.353   1_655 S
C2288  N2118   1.429   1_655 S
C2290  C2299   1.413   .     A
C2290  N2390   1.422   .     S
C2290  C2297   1.411   .     A
C2291  C2294   1.453   .     S
C2291  C1488   1.344   1_565 S
C2291  H1522   1.088   1_565 S
C2292  C2293   1.431   .     S
C2293  O2407   1.265   .     A
C2293  O2401   1.273   .     A
C2294  O2408   1.276   .     A
C2294  O2402   1.264   .     A
C2295  C2298   1.457   .     S
C2295  O2395   1.279   .     A
C2295  O2393   1.274   .     A
C2296  C2297   1.494   .     S
C2296  O2396   1.291   .     A
C2296  O2394   1.289   .     A
C2297  C2301   1.406   .     A
C2299  C2321   1.422   .     A
C2299  O2399   1.392   .     S
C2300  N2385   1.446   .     S
C2300  H2382   1.110   .     S
C2300  H2381   1.106   .     S
C2301  O2400   1.388   .     S
C2301  C2312   1.422   .     A
C2302  H2384   1.113   .     S
C2302  O2397   1.419   .     S
C2302  H2383   1.109   .     S
C2303  H2328   1.111   .     S
C2303  H2327   1.108   .     S
C2303  C1096   1.532   1_556 S
C2303  C2036   1.528   1_655 S
C2304  H2330   1.110   .     S
C2304  H2331   1.111   .     S
C2304  H2329   1.109   .     S
C2305  H2333   1.110   .     S
C2305  H2334   1.111   .     S
C2305  N2386   1.447   .     S
C2306  O2398   1.418   .     S
C2306  H2336   1.111   .     S
C2306  C2039   1.532   1_655 S
C2306  H2070   1.116   1_655 S
C2307  C2308   1.525   .     S
C2307  H2340   1.109   .     S
C2308  H2342   1.109   .     S
C2308  H2341   1.111   .     S
C2309  H2345   1.111   .     S
C2309  N2387   1.445   .     S
C2309  H2347   1.108   .     S
C2309  H1542   1.112   1_565 S
C2310  H2350   1.109   .     S
C2310  N2388   1.450   .     S
C2310  H2352   1.110   .     S
C2310  H2351   1.111   .     S
C2311  H2356   1.111   .     S
C2311  H2354   1.109   .     S
C2311  N2389   1.448   .     S
C2311  H2355   1.110   .     S
C2312  C2322   1.424   .     A
C2312  C2321   1.423   .     A
C2313  C2314   1.532   .     S
C2313  H2358   1.116   .     S
C2313  O2399   1.420   .     S
C2313  H1151   1.109   1_556 S
C2314  C2315   1.524   .     S
C2314  H2361   1.110   .     S
C2314  H2360   1.111   .     S
C2315  H2362   1.110   .     S
C2315  H1425   1.108   1_565 S
C2316  H2367   1.112   .     S
C2316  H2366   1.111   .     S
C2316  N2390   1.446   .     S
C2316  H2368   1.109   .     S
C2317  O2400   1.419   .     S
C2317  H2371   1.118   .     S
C2317  H2369   1.111   .     S
C2317  C2318   1.532   .     S
C2318  C2319   1.523   .     S
C2318  H2373   1.110   .     S
C2318  H2372   1.110   .     S
C2319  H2374   1.109   .     S
C2319  H2375   1.111   .     S
C2319  H2376   1.111   .     S
C2320  H2379   1.110   .     S
C2320  H2378   1.111   .     S
C2320  H2380   1.110   .     S
C2320  N2391   1.449   .     S
C2321  C1119   1.422   1_556 S
C2322  C1117   1.406   1_556 S
C2323  C2324   1.421   .     A
C2324  C2325   1.417   .     A
C2324  N2391   1.432   .     S
C2325  N2385   1.426   .     S
H2332  N2386   1.031   .     S
H2335  C2037   1.112   1_655 S
H2339  C2039   1.112   1_655 S
H2343  C2040   1.108   1_655 S
H2349  N2388   1.031   .     S
H2353  N2389   1.031   .     S
H2359  N2385   1.031   .     S
H2363  C1645   1.108   1_655 S
H2364  C2047   1.111   1_655 S
H2365  N2390   1.029   .     S
H2370  C2032   1.110   1_655 S
H2377  N2391   1.029   .     S
N2387  C1488   1.427   1_565 S
N2387  H1540   1.032   1_565 S
O2392  Zn2409  1.955   .     S
O2392  Zn2412  1.931   .     S
O2392  Zn2410  1.933   .     S
O2392  Zn2411  1.940   .     S
O2393  Zn2410  1.919   .     S
O2394  Zn2412  1.924   .     S
O2395  Zn2411  1.915   .     S
O2396  Zn2409  1.911   .     S
O2398  C2021   1.397   1_655 S
O2401  Zn2409  1.934   .     S
O2402  Zn2412  1.941   .     S
O2403  Zn2410  1.931   .     S
O2404  Zn2411  1.936   .     S
O2405  Zn2412  1.932   .     S
O2406  Zn2409  1.929   .     S
O2407  Zn2410  1.945   .     S
O2408  Zn2411  1.937   .     S
