data_str_m1_o10_o16_pcu_sym.207
_audit_creation_date              2020-01-03
_audit_creation_method            'Materials Studio'
_symmetry_space_group_name_H-M    'P1'
_symmetry_Int_Tables_number       1
_symmetry_cell_setting            triclinic
loop_
_symmetry_equiv_pos_as_xyz
  x,y,z
_cell_length_a                    32.7337
_cell_length_b                    32.6303
_cell_length_c                    31.0449
_cell_angle_alpha                 97.2520
_cell_angle_beta                  74.4549
_cell_angle_gamma                 98.3636
loop_
_atom_site_label
_atom_site_type_symbol
_atom_site_fract_x
_atom_site_fract_y
_atom_site_fract_z
_atom_site_U_iso_or_equiv
_atom_site_adp_type
_atom_site_occupancy
C1     C     0.05300   0.15996   0.25989   0.00000  Uiso   1.00
C2     C     0.17040   0.16449   0.06042   0.00000  Uiso   1.00
C3     C     0.20998   0.10588   0.05691   0.00000  Uiso   1.00
C4     C     0.28062   0.17367   0.24015   0.00000  Uiso   1.00
C5     C     0.14236   0.19578   0.42011   0.00000  Uiso   1.00
C6     C     0.32652   0.17515   0.23586   0.00000  Uiso   1.00
C7     C     0.00798   0.15758   0.26515   0.00000  Uiso   1.00
C8     C     0.17990   0.32255   0.23896   0.00000  Uiso   1.00
C9     C     0.15005   0.01254   0.26428   0.00000  Uiso   1.00
C10    C     0.15629   0.05611   0.25979   0.00000  Uiso   1.00
C11    C     0.17626   0.27785   0.24056   0.00000  Uiso   1.00
C12    C     0.14534   0.25191   0.47963   0.00000  Uiso   1.00
C13    C     0.18545   0.14765   0.12947   0.00000  Uiso   1.00
C14    C     0.14824   0.18491   0.37108   0.00000  Uiso   1.00
C15    C     0.20595   0.09349   0.01349   0.00000  Uiso   1.00
C16    C     0.19070   0.14048   0.08104   0.00000  Uiso   1.00
C17    C     0.13615   0.23739   0.43846   0.00000  Uiso   1.00
C18    C     0.23078   0.08055   0.07755   0.00000  Uiso   1.00
C19    C     0.31513   0.13828   0.30458   0.00000  Uiso   1.00
C20    C     0.10958   0.32995   0.29295   0.00000  Uiso   1.00
C21    C     0.18221   0.05954   0.43174   0.00000  Uiso   1.00
C22    C     0.14143   0.19249   0.08905   0.00000  Uiso   1.00
C23    C     0.15999   0.22562   0.00240   0.00000  Uiso   1.00
C24    C     0.12324   0.26652   0.41438   0.00000  Uiso   1.00
C25    C     0.14205   0.29458   0.49845   0.00000  Uiso   1.00
C26    C     0.15991   0.18277   0.48874   0.00000  Uiso   1.00
C27    C     0.15040   0.16728   0.44728   0.00000  Uiso   1.00
C28    C     0.17201   0.15546   0.01412   0.00000  Uiso   1.00
C29    C     0.18499   0.11674   0.49260   0.00000  Uiso   1.00
C30    C     0.17372   0.10083   0.45246   0.00000  Uiso   1.00
C31    C     0.15093   0.12393   0.43381   0.00000  Uiso   1.00
H32    H     0.20821   0.00386   0.21643   0.00000  Uiso   1.00
H33    H     0.21816   0.06491   0.49672   0.00000  Uiso   1.00
H34    H     0.17256   0.23958   0.03036   0.00000  Uiso   1.00
H35    H     0.14294   0.09160   0.37507   0.00000  Uiso   1.00
H36    H     0.10149   0.11943   0.40275   0.00000  Uiso   1.00
H37    H     0.01709   0.18081   0.16936   0.00000  Uiso   1.00
H38    H     0.01668   0.22627   0.20227   0.00000  Uiso   1.00
N39    N     0.24741   0.06027   0.09411   0.00000  Uiso   1.00
N40    N     0.29440   0.12287   0.33611   0.00000  Uiso   1.00
N41    N     0.07717   0.31741   0.31582   0.00000  Uiso   1.00
N42    N     0.18918   0.02668   0.41497   0.00000  Uiso   1.00
N43    N     0.11832   0.21460   0.11200   0.00000  Uiso   1.00
N44    N     0.11289   0.28985   0.39535   0.00000  Uiso   1.00
N45    N     0.13933   0.32862   0.01370   0.00000  Uiso   1.00
N46    N     0.12412   0.10156   0.40646   0.00000  Uiso   1.00
N47    N     0.02288   0.19537   0.19948   0.00000  Uiso   1.00
O48    O     0.16667   0.16667   0.25000   0.00000  Uiso   1.00
O49    O     0.15451   0.12637   0.15458   0.00000  Uiso   1.00
O50    O     0.12940   0.20391   0.34968   0.00000  Uiso   1.00
O51    O     0.20824   0.17759   0.14606   0.00000  Uiso   1.00
O52    O     0.17451   0.15880   0.34968   0.00000  Uiso   1.00
O53    O     0.17930   0.08019   0.28213   0.00000  Uiso   1.00
O54    O     0.14632   0.26085   0.27013   0.00000  Uiso   1.00
O55    O     0.07412   0.13291   0.23413   0.00000  Uiso   1.00
O56    O     0.26693   0.19272   0.21360   0.00000  Uiso   1.00
O57    O     0.07071   0.18878   0.28213   0.00000  Uiso   1.00
O58    O     0.25491   0.15226   0.27013   0.00000  Uiso   1.00
O59    O     0.13760   0.06944   0.23413   0.00000  Uiso   1.00
O60    O     0.20345   0.25620   0.21360   0.00000  Uiso   1.00
Zn61   Zn    0.19338   0.13994   0.28734   0.00000  Uiso   1.00
Zn62   Zn    0.13379   0.12458   0.21875   0.00000  Uiso   1.00
Zn63   Zn    0.21056   0.19775   0.20657   0.00000  Uiso   1.00
Zn64   Zn    0.12893   0.20439   0.28733   0.00000  Uiso   1.00
C65    C     0.38633   0.15996   0.25989   0.00000  Uiso   1.00
C66    C     0.50373   0.16449   0.06042   0.00000  Uiso   1.00
C67    C     0.54331   0.10588   0.05691   0.00000  Uiso   1.00
C68    C     0.61396   0.17367   0.24015   0.00000  Uiso   1.00
C69    C     0.47570   0.19578   0.42011   0.00000  Uiso   1.00
C70    C     0.65986   0.17515   0.23586   0.00000  Uiso   1.00
C71    C     0.34131   0.15758   0.26515   0.00000  Uiso   1.00
C72    C     0.51324   0.32255   0.23896   0.00000  Uiso   1.00
C73    C     0.48338   0.01254   0.26428   0.00000  Uiso   1.00
C74    C     0.48963   0.05611   0.25979   0.00000  Uiso   1.00
C75    C     0.50960   0.27785   0.24056   0.00000  Uiso   1.00
C76    C     0.47867   0.25191   0.47963   0.00000  Uiso   1.00
C77    C     0.51879   0.14765   0.12947   0.00000  Uiso   1.00
C78    C     0.48158   0.18491   0.37108   0.00000  Uiso   1.00
C79    C     0.53929   0.09349   0.01349   0.00000  Uiso   1.00
C80    C     0.52403   0.14048   0.08104   0.00000  Uiso   1.00
C81    C     0.46948   0.23739   0.43846   0.00000  Uiso   1.00
C82    C     0.56412   0.08055   0.07755   0.00000  Uiso   1.00
C83    C     0.64846   0.13828   0.30458   0.00000  Uiso   1.00
C84    C     0.44291   0.32995   0.29295   0.00000  Uiso   1.00
C85    C     0.51554   0.05954   0.43174   0.00000  Uiso   1.00
C86    C     0.47476   0.19249   0.08905   0.00000  Uiso   1.00
C87    C     0.49332   0.22562   0.00240   0.00000  Uiso   1.00
C88    C     0.45657   0.26652   0.41438   0.00000  Uiso   1.00
C89    C     0.47538   0.29458   0.49845   0.00000  Uiso   1.00
C90    C     0.49324   0.18277   0.48874   0.00000  Uiso   1.00
C91    C     0.48373   0.16728   0.44728   0.00000  Uiso   1.00
C92    C     0.50534   0.15546   0.01412   0.00000  Uiso   1.00
C93    C     0.51833   0.11674   0.49260   0.00000  Uiso   1.00
C94    C     0.50705   0.10083   0.45246   0.00000  Uiso   1.00
C95    C     0.48426   0.12393   0.43381   0.00000  Uiso   1.00
H96    H     0.54154   0.00386   0.21643   0.00000  Uiso   1.00
H97    H     0.55149   0.06491   0.49672   0.00000  Uiso   1.00
H98    H     0.50589   0.23958   0.03036   0.00000  Uiso   1.00
H99    H     0.47627   0.09160   0.37507   0.00000  Uiso   1.00
H100   H     0.43483   0.11943   0.40275   0.00000  Uiso   1.00
H101   H     0.35043   0.18081   0.16936   0.00000  Uiso   1.00
H102   H     0.35001   0.22627   0.20227   0.00000  Uiso   1.00
N103   N     0.58075   0.06027   0.09411   0.00000  Uiso   1.00
N104   N     0.62773   0.12287   0.33611   0.00000  Uiso   1.00
N105   N     0.41051   0.31741   0.31582   0.00000  Uiso   1.00
N106   N     0.52252   0.02668   0.41497   0.00000  Uiso   1.00
N107   N     0.45166   0.21460   0.11200   0.00000  Uiso   1.00
N108   N     0.44622   0.28985   0.39535   0.00000  Uiso   1.00
N109   N     0.47266   0.32862   0.01370   0.00000  Uiso   1.00
N110   N     0.45745   0.10156   0.40646   0.00000  Uiso   1.00
N111   N     0.35621   0.19537   0.19948   0.00000  Uiso   1.00
O112   O     0.50000   0.16667   0.25000   0.00000  Uiso   1.00
O113   O     0.48784   0.12637   0.15458   0.00000  Uiso   1.00
O114   O     0.46274   0.20391   0.34968   0.00000  Uiso   1.00
O115   O     0.54157   0.17759   0.14606   0.00000  Uiso   1.00
O116   O     0.50785   0.15880   0.34968   0.00000  Uiso   1.00
O117   O     0.51264   0.08019   0.28213   0.00000  Uiso   1.00
O118   O     0.47965   0.26085   0.27013   0.00000  Uiso   1.00
O119   O     0.40745   0.13291   0.23413   0.00000  Uiso   1.00
O120   O     0.60026   0.19272   0.21360   0.00000  Uiso   1.00
O121   O     0.40405   0.18878   0.28213   0.00000  Uiso   1.00
O122   O     0.58824   0.15226   0.27013   0.00000  Uiso   1.00
O123   O     0.47093   0.06944   0.23413   0.00000  Uiso   1.00
O124   O     0.53678   0.25620   0.21360   0.00000  Uiso   1.00
Zn125  Zn    0.52672   0.13994   0.28734   0.00000  Uiso   1.00
Zn126  Zn    0.46713   0.12458   0.21875   0.00000  Uiso   1.00
Zn127  Zn    0.54389   0.19775   0.20657   0.00000  Uiso   1.00
Zn128  Zn    0.46226   0.20439   0.28733   0.00000  Uiso   1.00
C129   C     0.71967   0.15996   0.25989   0.00000  Uiso   1.00
C130   C     0.83707   0.16449   0.06042   0.00000  Uiso   1.00
C131   C     0.87664   0.10588   0.05691   0.00000  Uiso   1.00
C132   C     0.94729   0.17367   0.24015   0.00000  Uiso   1.00
C133   C     0.80903   0.19578   0.42011   0.00000  Uiso   1.00
C134   C     0.99319   0.17515   0.23586   0.00000  Uiso   1.00
C135   C     0.67465   0.15758   0.26515   0.00000  Uiso   1.00
C136   C     0.84657   0.32255   0.23896   0.00000  Uiso   1.00
C137   C     0.81671   0.01254   0.26428   0.00000  Uiso   1.00
C138   C     0.82296   0.05611   0.25979   0.00000  Uiso   1.00
C139   C     0.84293   0.27785   0.24056   0.00000  Uiso   1.00
C140   C     0.81200   0.25191   0.47963   0.00000  Uiso   1.00
C141   C     0.85212   0.14765   0.12947   0.00000  Uiso   1.00
C142   C     0.81491   0.18491   0.37108   0.00000  Uiso   1.00
C143   C     0.87262   0.09349   0.01349   0.00000  Uiso   1.00
C144   C     0.85736   0.14048   0.08104   0.00000  Uiso   1.00
C145   C     0.80282   0.23739   0.43846   0.00000  Uiso   1.00
C146   C     0.89745   0.08055   0.07755   0.00000  Uiso   1.00
C147   C     0.98180   0.13828   0.30458   0.00000  Uiso   1.00
C148   C     0.77624   0.32995   0.29295   0.00000  Uiso   1.00
C149   C     0.84888   0.05954   0.43174   0.00000  Uiso   1.00
C150   C     0.80809   0.19249   0.08905   0.00000  Uiso   1.00
C151   C     0.82665   0.22562   0.00240   0.00000  Uiso   1.00
C152   C     0.78990   0.26652   0.41438   0.00000  Uiso   1.00
C153   C     0.80871   0.29458   0.49845   0.00000  Uiso   1.00
C154   C     0.82658   0.18277   0.48874   0.00000  Uiso   1.00
C155   C     0.81707   0.16728   0.44728   0.00000  Uiso   1.00
C156   C     0.83867   0.15546   0.01412   0.00000  Uiso   1.00
C157   C     0.85166   0.11674   0.49260   0.00000  Uiso   1.00
C158   C     0.84038   0.10083   0.45246   0.00000  Uiso   1.00
C159   C     0.81760   0.12393   0.43381   0.00000  Uiso   1.00
H160   H     0.87488   0.00386   0.21643   0.00000  Uiso   1.00
H161   H     0.88483   0.06491   0.49672   0.00000  Uiso   1.00
H162   H     0.83922   0.23958   0.03036   0.00000  Uiso   1.00
H163   H     0.80960   0.09160   0.37507   0.00000  Uiso   1.00
H164   H     0.76816   0.11943   0.40275   0.00000  Uiso   1.00
H165   H     0.68376   0.18081   0.16936   0.00000  Uiso   1.00
H166   H     0.68334   0.22627   0.20227   0.00000  Uiso   1.00
N167   N     0.91408   0.06027   0.09411   0.00000  Uiso   1.00
N168   N     0.96106   0.12287   0.33611   0.00000  Uiso   1.00
N169   N     0.74384   0.31741   0.31582   0.00000  Uiso   1.00
N170   N     0.85585   0.02668   0.41497   0.00000  Uiso   1.00
N171   N     0.78499   0.21460   0.11200   0.00000  Uiso   1.00
N172   N     0.77956   0.28985   0.39535   0.00000  Uiso   1.00
N173   N     0.80599   0.32862   0.01370   0.00000  Uiso   1.00
N174   N     0.79079   0.10156   0.40646   0.00000  Uiso   1.00
N175   N     0.68955   0.19537   0.19948   0.00000  Uiso   1.00
O176   O     0.83333   0.16667   0.25000   0.00000  Uiso   1.00
O177   O     0.82118   0.12637   0.15458   0.00000  Uiso   1.00
O178   O     0.79607   0.20391   0.34968   0.00000  Uiso   1.00
O179   O     0.87491   0.17759   0.14606   0.00000  Uiso   1.00
O180   O     0.84118   0.15880   0.34968   0.00000  Uiso   1.00
O181   O     0.84597   0.08019   0.28213   0.00000  Uiso   1.00
O182   O     0.81298   0.26085   0.27013   0.00000  Uiso   1.00
O183   O     0.74078   0.13291   0.23413   0.00000  Uiso   1.00
O184   O     0.93360   0.19272   0.21360   0.00000  Uiso   1.00
O185   O     0.73738   0.18878   0.28213   0.00000  Uiso   1.00
O186   O     0.92158   0.15226   0.27013   0.00000  Uiso   1.00
O187   O     0.80426   0.06944   0.23413   0.00000  Uiso   1.00
O188   O     0.87012   0.25620   0.21360   0.00000  Uiso   1.00
Zn189  Zn    0.86005   0.13994   0.28734   0.00000  Uiso   1.00
Zn190  Zn    0.80046   0.12458   0.21875   0.00000  Uiso   1.00
Zn191  Zn    0.87723   0.19775   0.20657   0.00000  Uiso   1.00
Zn192  Zn    0.79560   0.20439   0.28733   0.00000  Uiso   1.00
C193   C     0.05300   0.49329   0.25989   0.00000  Uiso   1.00
C194   C     0.17040   0.49783   0.06042   0.00000  Uiso   1.00
C195   C     0.20998   0.43922   0.05691   0.00000  Uiso   1.00
C196   C     0.28062   0.50700   0.24015   0.00000  Uiso   1.00
C197   C     0.14236   0.52912   0.42011   0.00000  Uiso   1.00
C198   C     0.32652   0.50848   0.23586   0.00000  Uiso   1.00
C199   C     0.00798   0.49091   0.26515   0.00000  Uiso   1.00
C200   C     0.17990   0.65588   0.23896   0.00000  Uiso   1.00
C201   C     0.15005   0.34588   0.26428   0.00000  Uiso   1.00
C202   C     0.15629   0.38945   0.25979   0.00000  Uiso   1.00
C203   C     0.17626   0.61118   0.24056   0.00000  Uiso   1.00
C204   C     0.14534   0.58525   0.47963   0.00000  Uiso   1.00
C205   C     0.18545   0.48099   0.12947   0.00000  Uiso   1.00
C206   C     0.14824   0.51824   0.37108   0.00000  Uiso   1.00
C207   C     0.20595   0.42682   0.01349   0.00000  Uiso   1.00
C208   C     0.19070   0.47381   0.08104   0.00000  Uiso   1.00
C209   C     0.13615   0.57073   0.43846   0.00000  Uiso   1.00
C210   C     0.23078   0.41388   0.07755   0.00000  Uiso   1.00
C211   C     0.31513   0.47161   0.30458   0.00000  Uiso   1.00
C212   C     0.10958   0.66329   0.29295   0.00000  Uiso   1.00
C213   C     0.18221   0.39287   0.43174   0.00000  Uiso   1.00
C214   C     0.14143   0.52582   0.08905   0.00000  Uiso   1.00
C215   C     0.15999   0.55895   0.00240   0.00000  Uiso   1.00
C216   C     0.12324   0.59985   0.41438   0.00000  Uiso   1.00
C217   C     0.14205   0.62791   0.49845   0.00000  Uiso   1.00
C218   C     0.15991   0.51610   0.48874   0.00000  Uiso   1.00
C219   C     0.15040   0.50061   0.44728   0.00000  Uiso   1.00
C220   C     0.17201   0.48880   0.01412   0.00000  Uiso   1.00
C221   C     0.18499   0.45008   0.49260   0.00000  Uiso   1.00
C222   C     0.17372   0.43416   0.45246   0.00000  Uiso   1.00
C223   C     0.15093   0.45726   0.43381   0.00000  Uiso   1.00
H224   H     0.20821   0.33720   0.21643   0.00000  Uiso   1.00
H225   H     0.21816   0.39824   0.49672   0.00000  Uiso   1.00
H226   H     0.17256   0.57292   0.03036   0.00000  Uiso   1.00
H227   H     0.14294   0.42493   0.37507   0.00000  Uiso   1.00
H228   H     0.10149   0.45277   0.40275   0.00000  Uiso   1.00
H229   H     0.01709   0.51414   0.16936   0.00000  Uiso   1.00
H230   H     0.01668   0.55960   0.20227   0.00000  Uiso   1.00
N231   N     0.24741   0.39360   0.09411   0.00000  Uiso   1.00
N232   N     0.29440   0.45620   0.33611   0.00000  Uiso   1.00
N233   N     0.07717   0.65074   0.31582   0.00000  Uiso   1.00
N234   N     0.18918   0.36001   0.41497   0.00000  Uiso   1.00
N235   N     0.11832   0.54794   0.11200   0.00000  Uiso   1.00
N236   N     0.11289   0.62319   0.39535   0.00000  Uiso   1.00
N237   N     0.13933   0.66196   0.01370   0.00000  Uiso   1.00
N238   N     0.12412   0.43489   0.40646   0.00000  Uiso   1.00
N239   N     0.02288   0.52871   0.19948   0.00000  Uiso   1.00
O240   O     0.16667   0.50000   0.25000   0.00000  Uiso   1.00
O241   O     0.15451   0.45970   0.15458   0.00000  Uiso   1.00
O242   O     0.12940   0.53724   0.34968   0.00000  Uiso   1.00
O243   O     0.20824   0.51092   0.14606   0.00000  Uiso   1.00
O244   O     0.17451   0.49213   0.34968   0.00000  Uiso   1.00
O245   O     0.17930   0.41352   0.28213   0.00000  Uiso   1.00
O246   O     0.14632   0.59418   0.27013   0.00000  Uiso   1.00
O247   O     0.07412   0.46625   0.23413   0.00000  Uiso   1.00
O248   O     0.26693   0.52605   0.21360   0.00000  Uiso   1.00
O249   O     0.07071   0.52211   0.28213   0.00000  Uiso   1.00
O250   O     0.25491   0.48559   0.27013   0.00000  Uiso   1.00
O251   O     0.13760   0.40277   0.23413   0.00000  Uiso   1.00
O252   O     0.20345   0.58953   0.21360   0.00000  Uiso   1.00
Zn253  Zn    0.19338   0.47327   0.28734   0.00000  Uiso   1.00
Zn254  Zn    0.13379   0.45791   0.21875   0.00000  Uiso   1.00
Zn255  Zn    0.21056   0.53109   0.20657   0.00000  Uiso   1.00
Zn256  Zn    0.12893   0.53773   0.28733   0.00000  Uiso   1.00
C257   C     0.38633   0.49329   0.25989   0.00000  Uiso   1.00
C258   C     0.50373   0.49783   0.06042   0.00000  Uiso   1.00
C259   C     0.54331   0.43922   0.05691   0.00000  Uiso   1.00
C260   C     0.61396   0.50700   0.24015   0.00000  Uiso   1.00
C261   C     0.47570   0.52912   0.42011   0.00000  Uiso   1.00
C262   C     0.65986   0.50848   0.23586   0.00000  Uiso   1.00
C263   C     0.34131   0.49091   0.26515   0.00000  Uiso   1.00
C264   C     0.51324   0.65588   0.23896   0.00000  Uiso   1.00
C265   C     0.48338   0.34588   0.26428   0.00000  Uiso   1.00
C266   C     0.48963   0.38945   0.25979   0.00000  Uiso   1.00
C267   C     0.50960   0.61118   0.24056   0.00000  Uiso   1.00
C268   C     0.47867   0.58525   0.47963   0.00000  Uiso   1.00
C269   C     0.51879   0.48099   0.12947   0.00000  Uiso   1.00
C270   C     0.48158   0.51824   0.37108   0.00000  Uiso   1.00
C271   C     0.53929   0.42682   0.01349   0.00000  Uiso   1.00
C272   C     0.52403   0.47381   0.08104   0.00000  Uiso   1.00
C273   C     0.46948   0.57073   0.43846   0.00000  Uiso   1.00
C274   C     0.56412   0.41388   0.07755   0.00000  Uiso   1.00
C275   C     0.64846   0.47161   0.30458   0.00000  Uiso   1.00
C276   C     0.44291   0.66329   0.29295   0.00000  Uiso   1.00
C277   C     0.51554   0.39287   0.43174   0.00000  Uiso   1.00
C278   C     0.47476   0.52582   0.08905   0.00000  Uiso   1.00
C279   C     0.49332   0.55895   0.00240   0.00000  Uiso   1.00
C280   C     0.45657   0.59985   0.41438   0.00000  Uiso   1.00
C281   C     0.47538   0.62791   0.49845   0.00000  Uiso   1.00
C282   C     0.49324   0.51610   0.48874   0.00000  Uiso   1.00
C283   C     0.48373   0.50061   0.44728   0.00000  Uiso   1.00
C284   C     0.50534   0.48880   0.01412   0.00000  Uiso   1.00
C285   C     0.51833   0.45008   0.49260   0.00000  Uiso   1.00
C286   C     0.50705   0.43416   0.45246   0.00000  Uiso   1.00
C287   C     0.48426   0.45726   0.43381   0.00000  Uiso   1.00
H288   H     0.54154   0.33720   0.21643   0.00000  Uiso   1.00
H289   H     0.55149   0.39824   0.49672   0.00000  Uiso   1.00
H290   H     0.50589   0.57292   0.03036   0.00000  Uiso   1.00
H291   H     0.47627   0.42493   0.37507   0.00000  Uiso   1.00
H292   H     0.43483   0.45277   0.40275   0.00000  Uiso   1.00
H293   H     0.35043   0.51414   0.16936   0.00000  Uiso   1.00
H294   H     0.35001   0.55960   0.20227   0.00000  Uiso   1.00
N295   N     0.58075   0.39360   0.09411   0.00000  Uiso   1.00
N296   N     0.62773   0.45620   0.33611   0.00000  Uiso   1.00
N297   N     0.41051   0.65074   0.31582   0.00000  Uiso   1.00
N298   N     0.52252   0.36001   0.41497   0.00000  Uiso   1.00
N299   N     0.45166   0.54794   0.11200   0.00000  Uiso   1.00
N300   N     0.44622   0.62319   0.39535   0.00000  Uiso   1.00
N301   N     0.47266   0.66196   0.01370   0.00000  Uiso   1.00
N302   N     0.45745   0.43489   0.40646   0.00000  Uiso   1.00
N303   N     0.35621   0.52871   0.19948   0.00000  Uiso   1.00
O304   O     0.50000   0.50000   0.25000   0.00000  Uiso   1.00
O305   O     0.48784   0.45970   0.15458   0.00000  Uiso   1.00
O306   O     0.46274   0.53724   0.34968   0.00000  Uiso   1.00
O307   O     0.54157   0.51092   0.14606   0.00000  Uiso   1.00
O308   O     0.50785   0.49213   0.34968   0.00000  Uiso   1.00
O309   O     0.51264   0.41352   0.28213   0.00000  Uiso   1.00
O310   O     0.47965   0.59418   0.27013   0.00000  Uiso   1.00
O311   O     0.40745   0.46625   0.23413   0.00000  Uiso   1.00
O312   O     0.60026   0.52605   0.21360   0.00000  Uiso   1.00
O313   O     0.40405   0.52211   0.28213   0.00000  Uiso   1.00
O314   O     0.58824   0.48559   0.27013   0.00000  Uiso   1.00
O315   O     0.47093   0.40277   0.23413   0.00000  Uiso   1.00
O316   O     0.53678   0.58953   0.21360   0.00000  Uiso   1.00
Zn317  Zn    0.52672   0.47327   0.28734   0.00000  Uiso   1.00
Zn318  Zn    0.46713   0.45791   0.21875   0.00000  Uiso   1.00
Zn319  Zn    0.54389   0.53109   0.20657   0.00000  Uiso   1.00
Zn320  Zn    0.46226   0.53773   0.28733   0.00000  Uiso   1.00
C321   C     0.71967   0.49329   0.25989   0.00000  Uiso   1.00
C322   C     0.83707   0.49783   0.06042   0.00000  Uiso   1.00
C323   C     0.87664   0.43922   0.05691   0.00000  Uiso   1.00
C324   C     0.94729   0.50700   0.24015   0.00000  Uiso   1.00
C325   C     0.80903   0.52912   0.42011   0.00000  Uiso   1.00
C326   C     0.99319   0.50848   0.23586   0.00000  Uiso   1.00
C327   C     0.67465   0.49091   0.26515   0.00000  Uiso   1.00
C328   C     0.84657   0.65588   0.23896   0.00000  Uiso   1.00
C329   C     0.81671   0.34588   0.26428   0.00000  Uiso   1.00
C330   C     0.82296   0.38945   0.25979   0.00000  Uiso   1.00
C331   C     0.84293   0.61118   0.24056   0.00000  Uiso   1.00
C332   C     0.81200   0.58525   0.47963   0.00000  Uiso   1.00
C333   C     0.85212   0.48099   0.12947   0.00000  Uiso   1.00
C334   C     0.81491   0.51824   0.37108   0.00000  Uiso   1.00
C335   C     0.87262   0.42682   0.01349   0.00000  Uiso   1.00
C336   C     0.85736   0.47381   0.08104   0.00000  Uiso   1.00
C337   C     0.80282   0.57073   0.43846   0.00000  Uiso   1.00
C338   C     0.89745   0.41388   0.07755   0.00000  Uiso   1.00
C339   C     0.98180   0.47161   0.30458   0.00000  Uiso   1.00
C340   C     0.77624   0.66329   0.29295   0.00000  Uiso   1.00
C341   C     0.84888   0.39287   0.43174   0.00000  Uiso   1.00
C342   C     0.80809   0.52582   0.08905   0.00000  Uiso   1.00
C343   C     0.82665   0.55895   0.00240   0.00000  Uiso   1.00
C344   C     0.78990   0.59985   0.41438   0.00000  Uiso   1.00
C345   C     0.80871   0.62791   0.49845   0.00000  Uiso   1.00
C346   C     0.82658   0.51610   0.48874   0.00000  Uiso   1.00
C347   C     0.81707   0.50061   0.44728   0.00000  Uiso   1.00
C348   C     0.83867   0.48880   0.01412   0.00000  Uiso   1.00
C349   C     0.85166   0.45008   0.49260   0.00000  Uiso   1.00
C350   C     0.84038   0.43416   0.45246   0.00000  Uiso   1.00
C351   C     0.81760   0.45726   0.43381   0.00000  Uiso   1.00
H352   H     0.87488   0.33720   0.21643   0.00000  Uiso   1.00
H353   H     0.88483   0.39824   0.49672   0.00000  Uiso   1.00
H354   H     0.83922   0.57292   0.03036   0.00000  Uiso   1.00
H355   H     0.80960   0.42493   0.37507   0.00000  Uiso   1.00
H356   H     0.76816   0.45277   0.40275   0.00000  Uiso   1.00
H357   H     0.68376   0.51414   0.16936   0.00000  Uiso   1.00
H358   H     0.68334   0.55960   0.20227   0.00000  Uiso   1.00
N359   N     0.91408   0.39360   0.09411   0.00000  Uiso   1.00
N360   N     0.96106   0.45620   0.33611   0.00000  Uiso   1.00
N361   N     0.74384   0.65074   0.31582   0.00000  Uiso   1.00
N362   N     0.85585   0.36001   0.41497   0.00000  Uiso   1.00
N363   N     0.78499   0.54794   0.11200   0.00000  Uiso   1.00
N364   N     0.77956   0.62319   0.39535   0.00000  Uiso   1.00
N365   N     0.80599   0.66196   0.01370   0.00000  Uiso   1.00
N366   N     0.79079   0.43489   0.40646   0.00000  Uiso   1.00
N367   N     0.68955   0.52871   0.19948   0.00000  Uiso   1.00
O368   O     0.83333   0.50000   0.25000   0.00000  Uiso   1.00
O369   O     0.82118   0.45970   0.15458   0.00000  Uiso   1.00
O370   O     0.79607   0.53724   0.34968   0.00000  Uiso   1.00
O371   O     0.87491   0.51092   0.14606   0.00000  Uiso   1.00
O372   O     0.84118   0.49213   0.34968   0.00000  Uiso   1.00
O373   O     0.84597   0.41352   0.28213   0.00000  Uiso   1.00
O374   O     0.81298   0.59418   0.27013   0.00000  Uiso   1.00
O375   O     0.74078   0.46625   0.23413   0.00000  Uiso   1.00
O376   O     0.93360   0.52605   0.21360   0.00000  Uiso   1.00
O377   O     0.73738   0.52211   0.28213   0.00000  Uiso   1.00
O378   O     0.92158   0.48559   0.27013   0.00000  Uiso   1.00
O379   O     0.80426   0.40277   0.23413   0.00000  Uiso   1.00
O380   O     0.87012   0.58953   0.21360   0.00000  Uiso   1.00
Zn381  Zn    0.86005   0.47327   0.28734   0.00000  Uiso   1.00
Zn382  Zn    0.80046   0.45791   0.21875   0.00000  Uiso   1.00
Zn383  Zn    0.87723   0.53109   0.20657   0.00000  Uiso   1.00
Zn384  Zn    0.79560   0.53773   0.28733   0.00000  Uiso   1.00
C385   C     0.05300   0.82663   0.25989   0.00000  Uiso   1.00
C386   C     0.17040   0.83116   0.06042   0.00000  Uiso   1.00
C387   C     0.20998   0.77255   0.05691   0.00000  Uiso   1.00
C388   C     0.28062   0.84034   0.24015   0.00000  Uiso   1.00
C389   C     0.14236   0.86245   0.42011   0.00000  Uiso   1.00
C390   C     0.32652   0.84181   0.23586   0.00000  Uiso   1.00
C391   C     0.00798   0.82424   0.26515   0.00000  Uiso   1.00
C392   C     0.17990   0.98922   0.23896   0.00000  Uiso   1.00
C393   C     0.15005   0.67921   0.26428   0.00000  Uiso   1.00
C394   C     0.15629   0.72278   0.25979   0.00000  Uiso   1.00
C395   C     0.17626   0.94452   0.24056   0.00000  Uiso   1.00
C396   C     0.14534   0.91858   0.47963   0.00000  Uiso   1.00
C397   C     0.18545   0.81432   0.12947   0.00000  Uiso   1.00
C398   C     0.14824   0.85157   0.37108   0.00000  Uiso   1.00
C399   C     0.20595   0.76016   0.01349   0.00000  Uiso   1.00
C400   C     0.19070   0.80714   0.08104   0.00000  Uiso   1.00
C401   C     0.13615   0.90406   0.43846   0.00000  Uiso   1.00
C402   C     0.23078   0.74722   0.07755   0.00000  Uiso   1.00
C403   C     0.31513   0.80494   0.30458   0.00000  Uiso   1.00
C404   C     0.10958   0.99662   0.29295   0.00000  Uiso   1.00
C405   C     0.18221   0.72620   0.43174   0.00000  Uiso   1.00
C406   C     0.14143   0.85916   0.08905   0.00000  Uiso   1.00
C407   C     0.15999   0.89228   0.00240   0.00000  Uiso   1.00
C408   C     0.12324   0.93319   0.41438   0.00000  Uiso   1.00
C409   C     0.14205   0.96125   0.49845   0.00000  Uiso   1.00
C410   C     0.15991   0.84943   0.48874   0.00000  Uiso   1.00
C411   C     0.15040   0.83395   0.44728   0.00000  Uiso   1.00
C412   C     0.17201   0.82213   0.01412   0.00000  Uiso   1.00
C413   C     0.18499   0.78341   0.49260   0.00000  Uiso   1.00
C414   C     0.17372   0.76750   0.45246   0.00000  Uiso   1.00
C415   C     0.15093   0.79059   0.43381   0.00000  Uiso   1.00
H416   H     0.20821   0.67053   0.21643   0.00000  Uiso   1.00
H417   H     0.21816   0.73158   0.49672   0.00000  Uiso   1.00
H418   H     0.17256   0.90625   0.03036   0.00000  Uiso   1.00
H419   H     0.14294   0.75827   0.37507   0.00000  Uiso   1.00
H420   H     0.10149   0.78610   0.40275   0.00000  Uiso   1.00
H421   H     0.01709   0.84747   0.16936   0.00000  Uiso   1.00
H422   H     0.01668   0.89293   0.20227   0.00000  Uiso   1.00
N423   N     0.24741   0.72693   0.09411   0.00000  Uiso   1.00
N424   N     0.29440   0.78954   0.33611   0.00000  Uiso   1.00
N425   N     0.07717   0.98407   0.31582   0.00000  Uiso   1.00
N426   N     0.18918   0.69335   0.41497   0.00000  Uiso   1.00
N427   N     0.11832   0.88127   0.11200   0.00000  Uiso   1.00
N428   N     0.11289   0.95652   0.39535   0.00000  Uiso   1.00
N429   N     0.13933   0.99529   0.01370   0.00000  Uiso   1.00
N430   N     0.12412   0.76822   0.40646   0.00000  Uiso   1.00
N431   N     0.02288   0.86204   0.19948   0.00000  Uiso   1.00
O432   O     0.16667   0.83333   0.25000   0.00000  Uiso   1.00
O433   O     0.15451   0.79304   0.15458   0.00000  Uiso   1.00
O434   O     0.12940   0.87058   0.34968   0.00000  Uiso   1.00
O435   O     0.20824   0.84425   0.14606   0.00000  Uiso   1.00
O436   O     0.17451   0.82546   0.34968   0.00000  Uiso   1.00
O437   O     0.17930   0.74686   0.28213   0.00000  Uiso   1.00
O438   O     0.14632   0.92751   0.27013   0.00000  Uiso   1.00
O439   O     0.07412   0.79958   0.23413   0.00000  Uiso   1.00
O440   O     0.26693   0.85939   0.21360   0.00000  Uiso   1.00
O441   O     0.07071   0.85544   0.28213   0.00000  Uiso   1.00
O442   O     0.25491   0.81892   0.27013   0.00000  Uiso   1.00
O443   O     0.13760   0.73610   0.23413   0.00000  Uiso   1.00
O444   O     0.20345   0.92286   0.21360   0.00000  Uiso   1.00
Zn445  Zn    0.19338   0.80661   0.28734   0.00000  Uiso   1.00
Zn446  Zn    0.13379   0.79124   0.21875   0.00000  Uiso   1.00
Zn447  Zn    0.21056   0.86442   0.20657   0.00000  Uiso   1.00
Zn448  Zn    0.12893   0.87106   0.28733   0.00000  Uiso   1.00
C449   C     0.38633   0.82663   0.25989   0.00000  Uiso   1.00
C450   C     0.50373   0.83116   0.06042   0.00000  Uiso   1.00
C451   C     0.54331   0.77255   0.05691   0.00000  Uiso   1.00
C452   C     0.61396   0.84034   0.24015   0.00000  Uiso   1.00
C453   C     0.47570   0.86245   0.42011   0.00000  Uiso   1.00
C454   C     0.65986   0.84181   0.23586   0.00000  Uiso   1.00
C455   C     0.34131   0.82424   0.26515   0.00000  Uiso   1.00
C456   C     0.51324   0.98922   0.23896   0.00000  Uiso   1.00
C457   C     0.48338   0.67921   0.26428   0.00000  Uiso   1.00
C458   C     0.48963   0.72278   0.25979   0.00000  Uiso   1.00
C459   C     0.50960   0.94452   0.24056   0.00000  Uiso   1.00
C460   C     0.47867   0.91858   0.47963   0.00000  Uiso   1.00
C461   C     0.51879   0.81432   0.12947   0.00000  Uiso   1.00
C462   C     0.48158   0.85157   0.37108   0.00000  Uiso   1.00
C463   C     0.53929   0.76016   0.01349   0.00000  Uiso   1.00
C464   C     0.52403   0.80714   0.08104   0.00000  Uiso   1.00
C465   C     0.46948   0.90406   0.43846   0.00000  Uiso   1.00
C466   C     0.56412   0.74722   0.07755   0.00000  Uiso   1.00
C467   C     0.64846   0.80494   0.30458   0.00000  Uiso   1.00
C468   C     0.44291   0.99662   0.29295   0.00000  Uiso   1.00
C469   C     0.51554   0.72620   0.43174   0.00000  Uiso   1.00
C470   C     0.47476   0.85916   0.08905   0.00000  Uiso   1.00
C471   C     0.49332   0.89228   0.00240   0.00000  Uiso   1.00
C472   C     0.45657   0.93319   0.41438   0.00000  Uiso   1.00
C473   C     0.47538   0.96125   0.49845   0.00000  Uiso   1.00
C474   C     0.49324   0.84943   0.48874   0.00000  Uiso   1.00
C475   C     0.48373   0.83395   0.44728   0.00000  Uiso   1.00
C476   C     0.50534   0.82213   0.01412   0.00000  Uiso   1.00
C477   C     0.51833   0.78341   0.49260   0.00000  Uiso   1.00
C478   C     0.50705   0.76750   0.45246   0.00000  Uiso   1.00
C479   C     0.48426   0.79059   0.43381   0.00000  Uiso   1.00
H480   H     0.54154   0.67053   0.21643   0.00000  Uiso   1.00
H481   H     0.55149   0.73158   0.49672   0.00000  Uiso   1.00
H482   H     0.50589   0.90625   0.03036   0.00000  Uiso   1.00
H483   H     0.47627   0.75827   0.37507   0.00000  Uiso   1.00
H484   H     0.43483   0.78610   0.40275   0.00000  Uiso   1.00
H485   H     0.35043   0.84747   0.16936   0.00000  Uiso   1.00
H486   H     0.35001   0.89293   0.20227   0.00000  Uiso   1.00
N487   N     0.58075   0.72693   0.09411   0.00000  Uiso   1.00
N488   N     0.62773   0.78954   0.33611   0.00000  Uiso   1.00
N489   N     0.41051   0.98407   0.31582   0.00000  Uiso   1.00
N490   N     0.52252   0.69335   0.41497   0.00000  Uiso   1.00
N491   N     0.45166   0.88127   0.11200   0.00000  Uiso   1.00
N492   N     0.44622   0.95652   0.39535   0.00000  Uiso   1.00
N493   N     0.47266   0.99529   0.01370   0.00000  Uiso   1.00
N494   N     0.45745   0.76822   0.40646   0.00000  Uiso   1.00
N495   N     0.35621   0.86204   0.19948   0.00000  Uiso   1.00
O496   O     0.50000   0.83333   0.25000   0.00000  Uiso   1.00
O497   O     0.48784   0.79304   0.15458   0.00000  Uiso   1.00
O498   O     0.46274   0.87058   0.34968   0.00000  Uiso   1.00
O499   O     0.54157   0.84425   0.14606   0.00000  Uiso   1.00
O500   O     0.50785   0.82546   0.34968   0.00000  Uiso   1.00
O501   O     0.51264   0.74686   0.28213   0.00000  Uiso   1.00
O502   O     0.47965   0.92751   0.27013   0.00000  Uiso   1.00
O503   O     0.40745   0.79958   0.23413   0.00000  Uiso   1.00
O504   O     0.60026   0.85939   0.21360   0.00000  Uiso   1.00
O505   O     0.40405   0.85544   0.28213   0.00000  Uiso   1.00
O506   O     0.58824   0.81892   0.27013   0.00000  Uiso   1.00
O507   O     0.47093   0.73610   0.23413   0.00000  Uiso   1.00
O508   O     0.53678   0.92286   0.21360   0.00000  Uiso   1.00
Zn509  Zn    0.52672   0.80661   0.28734   0.00000  Uiso   1.00
Zn510  Zn    0.46713   0.79124   0.21875   0.00000  Uiso   1.00
Zn511  Zn    0.54389   0.86442   0.20657   0.00000  Uiso   1.00
Zn512  Zn    0.46226   0.87106   0.28733   0.00000  Uiso   1.00
C513   C     0.71967   0.82663   0.25989   0.00000  Uiso   1.00
C514   C     0.83707   0.83116   0.06042   0.00000  Uiso   1.00
C515   C     0.87664   0.77255   0.05691   0.00000  Uiso   1.00
C516   C     0.94729   0.84034   0.24015   0.00000  Uiso   1.00
C517   C     0.80903   0.86245   0.42011   0.00000  Uiso   1.00
C518   C     0.99319   0.84181   0.23586   0.00000  Uiso   1.00
C519   C     0.67465   0.82424   0.26515   0.00000  Uiso   1.00
C520   C     0.84657   0.98922   0.23896   0.00000  Uiso   1.00
C521   C     0.81671   0.67921   0.26428   0.00000  Uiso   1.00
C522   C     0.82296   0.72278   0.25979   0.00000  Uiso   1.00
C523   C     0.84293   0.94452   0.24056   0.00000  Uiso   1.00
C524   C     0.81200   0.91858   0.47963   0.00000  Uiso   1.00
C525   C     0.85212   0.81432   0.12947   0.00000  Uiso   1.00
C526   C     0.81491   0.85157   0.37108   0.00000  Uiso   1.00
C527   C     0.87262   0.76016   0.01349   0.00000  Uiso   1.00
C528   C     0.85736   0.80714   0.08104   0.00000  Uiso   1.00
C529   C     0.80282   0.90406   0.43846   0.00000  Uiso   1.00
C530   C     0.89745   0.74722   0.07755   0.00000  Uiso   1.00
C531   C     0.98180   0.80494   0.30458   0.00000  Uiso   1.00
C532   C     0.77624   0.99662   0.29295   0.00000  Uiso   1.00
C533   C     0.84888   0.72620   0.43174   0.00000  Uiso   1.00
C534   C     0.80809   0.85916   0.08905   0.00000  Uiso   1.00
C535   C     0.82665   0.89228   0.00240   0.00000  Uiso   1.00
C536   C     0.78990   0.93319   0.41438   0.00000  Uiso   1.00
C537   C     0.80871   0.96125   0.49845   0.00000  Uiso   1.00
C538   C     0.82658   0.84943   0.48874   0.00000  Uiso   1.00
C539   C     0.81707   0.83395   0.44728   0.00000  Uiso   1.00
C540   C     0.83867   0.82213   0.01412   0.00000  Uiso   1.00
C541   C     0.85166   0.78341   0.49260   0.00000  Uiso   1.00
C542   C     0.84038   0.76750   0.45246   0.00000  Uiso   1.00
C543   C     0.81760   0.79059   0.43381   0.00000  Uiso   1.00
H544   H     0.87488   0.67053   0.21643   0.00000  Uiso   1.00
H545   H     0.88483   0.73158   0.49672   0.00000  Uiso   1.00
H546   H     0.83922   0.90625   0.03036   0.00000  Uiso   1.00
H547   H     0.80960   0.75827   0.37507   0.00000  Uiso   1.00
H548   H     0.76816   0.78610   0.40275   0.00000  Uiso   1.00
H549   H     0.68376   0.84747   0.16936   0.00000  Uiso   1.00
H550   H     0.68334   0.89293   0.20227   0.00000  Uiso   1.00
N551   N     0.91408   0.72693   0.09411   0.00000  Uiso   1.00
N552   N     0.96106   0.78954   0.33611   0.00000  Uiso   1.00
N553   N     0.74384   0.98407   0.31582   0.00000  Uiso   1.00
N554   N     0.85585   0.69335   0.41497   0.00000  Uiso   1.00
N555   N     0.78499   0.88127   0.11200   0.00000  Uiso   1.00
N556   N     0.77956   0.95652   0.39535   0.00000  Uiso   1.00
N557   N     0.80599   0.99529   0.01370   0.00000  Uiso   1.00
N558   N     0.79079   0.76822   0.40646   0.00000  Uiso   1.00
N559   N     0.68955   0.86204   0.19948   0.00000  Uiso   1.00
O560   O     0.83333   0.83333   0.25000   0.00000  Uiso   1.00
O561   O     0.82118   0.79304   0.15458   0.00000  Uiso   1.00
O562   O     0.79607   0.87058   0.34968   0.00000  Uiso   1.00
O563   O     0.87491   0.84425   0.14606   0.00000  Uiso   1.00
O564   O     0.84118   0.82546   0.34968   0.00000  Uiso   1.00
O565   O     0.84597   0.74686   0.28213   0.00000  Uiso   1.00
O566   O     0.81298   0.92751   0.27013   0.00000  Uiso   1.00
O567   O     0.74078   0.79958   0.23413   0.00000  Uiso   1.00
O568   O     0.93360   0.85939   0.21360   0.00000  Uiso   1.00
O569   O     0.73738   0.85544   0.28213   0.00000  Uiso   1.00
O570   O     0.92158   0.81892   0.27013   0.00000  Uiso   1.00
O571   O     0.80426   0.73610   0.23413   0.00000  Uiso   1.00
O572   O     0.87012   0.92286   0.21360   0.00000  Uiso   1.00
Zn573  Zn    0.86005   0.80661   0.28734   0.00000  Uiso   1.00
Zn574  Zn    0.80046   0.79124   0.21875   0.00000  Uiso   1.00
Zn575  Zn    0.87723   0.86442   0.20657   0.00000  Uiso   1.00
Zn576  Zn    0.79560   0.87106   0.28733   0.00000  Uiso   1.00
C577   C     0.05300   0.15996   0.75989   0.00000  Uiso   1.00
C578   C     0.17040   0.16449   0.56042   0.00000  Uiso   1.00
C579   C     0.20998   0.10588   0.55691   0.00000  Uiso   1.00
C580   C     0.28062   0.17367   0.74015   0.00000  Uiso   1.00
C581   C     0.14236   0.19578   0.92011   0.00000  Uiso   1.00
C582   C     0.32652   0.17515   0.73586   0.00000  Uiso   1.00
C583   C     0.00798   0.15758   0.76515   0.00000  Uiso   1.00
C584   C     0.17990   0.32255   0.73896   0.00000  Uiso   1.00
C585   C     0.15005   0.01254   0.76428   0.00000  Uiso   1.00
C586   C     0.15629   0.05611   0.75979   0.00000  Uiso   1.00
C587   C     0.17626   0.27785   0.74056   0.00000  Uiso   1.00
C588   C     0.14534   0.25191   0.97963   0.00000  Uiso   1.00
C589   C     0.18545   0.14765   0.62947   0.00000  Uiso   1.00
C590   C     0.14824   0.18491   0.87108   0.00000  Uiso   1.00
C591   C     0.20595   0.09349   0.51349   0.00000  Uiso   1.00
C592   C     0.19070   0.14048   0.58104   0.00000  Uiso   1.00
C593   C     0.13615   0.23739   0.93846   0.00000  Uiso   1.00
C594   C     0.23078   0.08055   0.57755   0.00000  Uiso   1.00
C595   C     0.31513   0.13828   0.80458   0.00000  Uiso   1.00
C596   C     0.10958   0.32995   0.79295   0.00000  Uiso   1.00
C597   C     0.18221   0.05954   0.93174   0.00000  Uiso   1.00
C598   C     0.14143   0.19249   0.58905   0.00000  Uiso   1.00
C599   C     0.15999   0.22562   0.50240   0.00000  Uiso   1.00
C600   C     0.12324   0.26652   0.91438   0.00000  Uiso   1.00
C601   C     0.14205   0.29458   0.99845   0.00000  Uiso   1.00
C602   C     0.15991   0.18277   0.98874   0.00000  Uiso   1.00
C603   C     0.15040   0.16728   0.94728   0.00000  Uiso   1.00
C604   C     0.17201   0.15546   0.51412   0.00000  Uiso   1.00
C605   C     0.18499   0.11674   0.99260   0.00000  Uiso   1.00
C606   C     0.17372   0.10083   0.95246   0.00000  Uiso   1.00
C607   C     0.15093   0.12393   0.93381   0.00000  Uiso   1.00
H608   H     0.20821   0.00386   0.71643   0.00000  Uiso   1.00
H609   H     0.21816   0.06491   0.99672   0.00000  Uiso   1.00
H610   H     0.17256   0.23958   0.53036   0.00000  Uiso   1.00
H611   H     0.14294   0.09160   0.87507   0.00000  Uiso   1.00
H612   H     0.10149   0.11943   0.90275   0.00000  Uiso   1.00
H613   H     0.01709   0.18081   0.66936   0.00000  Uiso   1.00
H614   H     0.01668   0.22627   0.70227   0.00000  Uiso   1.00
N615   N     0.24741   0.06027   0.59411   0.00000  Uiso   1.00
N616   N     0.29440   0.12287   0.83611   0.00000  Uiso   1.00
N617   N     0.07717   0.31741   0.81582   0.00000  Uiso   1.00
N618   N     0.18918   0.02668   0.91497   0.00000  Uiso   1.00
N619   N     0.11832   0.21460   0.61200   0.00000  Uiso   1.00
N620   N     0.11289   0.28985   0.89535   0.00000  Uiso   1.00
N621   N     0.13933   0.32862   0.51370   0.00000  Uiso   1.00
N622   N     0.12412   0.10156   0.90646   0.00000  Uiso   1.00
N623   N     0.02288   0.19537   0.69948   0.00000  Uiso   1.00
O624   O     0.16667   0.16667   0.75000   0.00000  Uiso   1.00
O625   O     0.15451   0.12637   0.65458   0.00000  Uiso   1.00
O626   O     0.12940   0.20391   0.84968   0.00000  Uiso   1.00
O627   O     0.20824   0.17759   0.64606   0.00000  Uiso   1.00
O628   O     0.17451   0.15880   0.84968   0.00000  Uiso   1.00
O629   O     0.17930   0.08019   0.78213   0.00000  Uiso   1.00
O630   O     0.14632   0.26085   0.77013   0.00000  Uiso   1.00
O631   O     0.07412   0.13291   0.73413   0.00000  Uiso   1.00
O632   O     0.26693   0.19272   0.71360   0.00000  Uiso   1.00
O633   O     0.07071   0.18878   0.78213   0.00000  Uiso   1.00
O634   O     0.25491   0.15226   0.77013   0.00000  Uiso   1.00
O635   O     0.13760   0.06944   0.73413   0.00000  Uiso   1.00
O636   O     0.20345   0.25620   0.71360   0.00000  Uiso   1.00
Zn637  Zn    0.19338   0.13994   0.78734   0.00000  Uiso   1.00
Zn638  Zn    0.13379   0.12458   0.71875   0.00000  Uiso   1.00
Zn639  Zn    0.21056   0.19775   0.70657   0.00000  Uiso   1.00
Zn640  Zn    0.12893   0.20439   0.78733   0.00000  Uiso   1.00
C641   C     0.38633   0.15996   0.75989   0.00000  Uiso   1.00
C642   C     0.50373   0.16449   0.56042   0.00000  Uiso   1.00
C643   C     0.54331   0.10588   0.55691   0.00000  Uiso   1.00
C644   C     0.61396   0.17367   0.74015   0.00000  Uiso   1.00
C645   C     0.47570   0.19578   0.92011   0.00000  Uiso   1.00
C646   C     0.65986   0.17515   0.73586   0.00000  Uiso   1.00
C647   C     0.34131   0.15758   0.76515   0.00000  Uiso   1.00
C648   C     0.51324   0.32255   0.73896   0.00000  Uiso   1.00
C649   C     0.48338   0.01254   0.76428   0.00000  Uiso   1.00
C650   C     0.48963   0.05611   0.75979   0.00000  Uiso   1.00
C651   C     0.50960   0.27785   0.74056   0.00000  Uiso   1.00
C652   C     0.47867   0.25191   0.97963   0.00000  Uiso   1.00
C653   C     0.51879   0.14765   0.62947   0.00000  Uiso   1.00
C654   C     0.48158   0.18491   0.87108   0.00000  Uiso   1.00
C655   C     0.53929   0.09349   0.51349   0.00000  Uiso   1.00
C656   C     0.52403   0.14048   0.58104   0.00000  Uiso   1.00
C657   C     0.46948   0.23739   0.93846   0.00000  Uiso   1.00
C658   C     0.56412   0.08055   0.57755   0.00000  Uiso   1.00
C659   C     0.64846   0.13828   0.80458   0.00000  Uiso   1.00
C660   C     0.44291   0.32995   0.79295   0.00000  Uiso   1.00
C661   C     0.51554   0.05954   0.93174   0.00000  Uiso   1.00
C662   C     0.47476   0.19249   0.58905   0.00000  Uiso   1.00
C663   C     0.49332   0.22562   0.50240   0.00000  Uiso   1.00
C664   C     0.45657   0.26652   0.91438   0.00000  Uiso   1.00
C665   C     0.47538   0.29458   0.99845   0.00000  Uiso   1.00
C666   C     0.49324   0.18277   0.98874   0.00000  Uiso   1.00
C667   C     0.48373   0.16728   0.94728   0.00000  Uiso   1.00
C668   C     0.50534   0.15546   0.51412   0.00000  Uiso   1.00
C669   C     0.51833   0.11674   0.99260   0.00000  Uiso   1.00
C670   C     0.50705   0.10083   0.95246   0.00000  Uiso   1.00
C671   C     0.48426   0.12393   0.93381   0.00000  Uiso   1.00
H672   H     0.54154   0.00386   0.71643   0.00000  Uiso   1.00
H673   H     0.55149   0.06491   0.99672   0.00000  Uiso   1.00
H674   H     0.50589   0.23958   0.53036   0.00000  Uiso   1.00
H675   H     0.47627   0.09160   0.87507   0.00000  Uiso   1.00
H676   H     0.43483   0.11943   0.90275   0.00000  Uiso   1.00
H677   H     0.35043   0.18081   0.66936   0.00000  Uiso   1.00
H678   H     0.35001   0.22627   0.70227   0.00000  Uiso   1.00
N679   N     0.58075   0.06027   0.59411   0.00000  Uiso   1.00
N680   N     0.62773   0.12287   0.83611   0.00000  Uiso   1.00
N681   N     0.41051   0.31741   0.81582   0.00000  Uiso   1.00
N682   N     0.52252   0.02668   0.91497   0.00000  Uiso   1.00
N683   N     0.45166   0.21460   0.61200   0.00000  Uiso   1.00
N684   N     0.44622   0.28985   0.89535   0.00000  Uiso   1.00
N685   N     0.47266   0.32862   0.51370   0.00000  Uiso   1.00
N686   N     0.45745   0.10156   0.90646   0.00000  Uiso   1.00
N687   N     0.35621   0.19537   0.69948   0.00000  Uiso   1.00
O688   O     0.50000   0.16667   0.75000   0.00000  Uiso   1.00
O689   O     0.48784   0.12637   0.65458   0.00000  Uiso   1.00
O690   O     0.46274   0.20391   0.84968   0.00000  Uiso   1.00
O691   O     0.54157   0.17759   0.64606   0.00000  Uiso   1.00
O692   O     0.50785   0.15880   0.84968   0.00000  Uiso   1.00
O693   O     0.51264   0.08019   0.78213   0.00000  Uiso   1.00
O694   O     0.47965   0.26085   0.77013   0.00000  Uiso   1.00
O695   O     0.40745   0.13291   0.73413   0.00000  Uiso   1.00
O696   O     0.60026   0.19272   0.71360   0.00000  Uiso   1.00
O697   O     0.40405   0.18878   0.78213   0.00000  Uiso   1.00
O698   O     0.58824   0.15226   0.77013   0.00000  Uiso   1.00
O699   O     0.47093   0.06944   0.73413   0.00000  Uiso   1.00
O700   O     0.53678   0.25620   0.71360   0.00000  Uiso   1.00
Zn701  Zn    0.52672   0.13994   0.78734   0.00000  Uiso   1.00
Zn702  Zn    0.46713   0.12458   0.71875   0.00000  Uiso   1.00
Zn703  Zn    0.54389   0.19775   0.70657   0.00000  Uiso   1.00
Zn704  Zn    0.46226   0.20439   0.78733   0.00000  Uiso   1.00
C705   C     0.71967   0.15996   0.75989   0.00000  Uiso   1.00
C706   C     0.83707   0.16449   0.56042   0.00000  Uiso   1.00
C707   C     0.87664   0.10588   0.55691   0.00000  Uiso   1.00
C708   C     0.94729   0.17367   0.74015   0.00000  Uiso   1.00
C709   C     0.80903   0.19578   0.92011   0.00000  Uiso   1.00
C710   C     0.99319   0.17515   0.73586   0.00000  Uiso   1.00
C711   C     0.67465   0.15758   0.76515   0.00000  Uiso   1.00
C712   C     0.84657   0.32255   0.73896   0.00000  Uiso   1.00
C713   C     0.81671   0.01254   0.76428   0.00000  Uiso   1.00
C714   C     0.82296   0.05611   0.75979   0.00000  Uiso   1.00
C715   C     0.84293   0.27785   0.74056   0.00000  Uiso   1.00
C716   C     0.81200   0.25191   0.97963   0.00000  Uiso   1.00
C717   C     0.85212   0.14765   0.62947   0.00000  Uiso   1.00
C718   C     0.81491   0.18491   0.87108   0.00000  Uiso   1.00
C719   C     0.87262   0.09349   0.51349   0.00000  Uiso   1.00
C720   C     0.85736   0.14048   0.58104   0.00000  Uiso   1.00
C721   C     0.80282   0.23739   0.93846   0.00000  Uiso   1.00
C722   C     0.89745   0.08055   0.57755   0.00000  Uiso   1.00
C723   C     0.98180   0.13828   0.80458   0.00000  Uiso   1.00
C724   C     0.77624   0.32995   0.79295   0.00000  Uiso   1.00
C725   C     0.84888   0.05954   0.93174   0.00000  Uiso   1.00
C726   C     0.80809   0.19249   0.58905   0.00000  Uiso   1.00
C727   C     0.82665   0.22562   0.50240   0.00000  Uiso   1.00
C728   C     0.78990   0.26652   0.91438   0.00000  Uiso   1.00
C729   C     0.80871   0.29458   0.99845   0.00000  Uiso   1.00
C730   C     0.82658   0.18277   0.98874   0.00000  Uiso   1.00
C731   C     0.81707   0.16728   0.94728   0.00000  Uiso   1.00
C732   C     0.83867   0.15546   0.51412   0.00000  Uiso   1.00
C733   C     0.85166   0.11674   0.99260   0.00000  Uiso   1.00
C734   C     0.84038   0.10083   0.95246   0.00000  Uiso   1.00
C735   C     0.81760   0.12393   0.93381   0.00000  Uiso   1.00
H736   H     0.87488   0.00386   0.71643   0.00000  Uiso   1.00
H737   H     0.88483   0.06491   0.99672   0.00000  Uiso   1.00
H738   H     0.83922   0.23958   0.53036   0.00000  Uiso   1.00
H739   H     0.80960   0.09160   0.87507   0.00000  Uiso   1.00
H740   H     0.76816   0.11943   0.90275   0.00000  Uiso   1.00
H741   H     0.68376   0.18081   0.66936   0.00000  Uiso   1.00
H742   H     0.68334   0.22627   0.70227   0.00000  Uiso   1.00
N743   N     0.91408   0.06027   0.59411   0.00000  Uiso   1.00
N744   N     0.96106   0.12287   0.83611   0.00000  Uiso   1.00
N745   N     0.74384   0.31741   0.81582   0.00000  Uiso   1.00
N746   N     0.85585   0.02668   0.91497   0.00000  Uiso   1.00
N747   N     0.78499   0.21460   0.61200   0.00000  Uiso   1.00
N748   N     0.77956   0.28985   0.89535   0.00000  Uiso   1.00
N749   N     0.80599   0.32862   0.51370   0.00000  Uiso   1.00
N750   N     0.79079   0.10156   0.90646   0.00000  Uiso   1.00
N751   N     0.68955   0.19537   0.69948   0.00000  Uiso   1.00
O752   O     0.83333   0.16667   0.75000   0.00000  Uiso   1.00
O753   O     0.82118   0.12637   0.65458   0.00000  Uiso   1.00
O754   O     0.79607   0.20391   0.84968   0.00000  Uiso   1.00
O755   O     0.87491   0.17759   0.64606   0.00000  Uiso   1.00
O756   O     0.84118   0.15880   0.84968   0.00000  Uiso   1.00
O757   O     0.84597   0.08019   0.78213   0.00000  Uiso   1.00
O758   O     0.81298   0.26085   0.77013   0.00000  Uiso   1.00
O759   O     0.74078   0.13291   0.73413   0.00000  Uiso   1.00
O760   O     0.93360   0.19272   0.71360   0.00000  Uiso   1.00
O761   O     0.73738   0.18878   0.78213   0.00000  Uiso   1.00
O762   O     0.92158   0.15226   0.77013   0.00000  Uiso   1.00
O763   O     0.80426   0.06944   0.73413   0.00000  Uiso   1.00
O764   O     0.87012   0.25620   0.71360   0.00000  Uiso   1.00
Zn765  Zn    0.86005   0.13994   0.78734   0.00000  Uiso   1.00
Zn766  Zn    0.80046   0.12458   0.71875   0.00000  Uiso   1.00
Zn767  Zn    0.87723   0.19775   0.70657   0.00000  Uiso   1.00
Zn768  Zn    0.79560   0.20439   0.78733   0.00000  Uiso   1.00
C769   C     0.05300   0.49329   0.75989   0.00000  Uiso   1.00
C770   C     0.17040   0.49783   0.56042   0.00000  Uiso   1.00
C771   C     0.20998   0.43922   0.55691   0.00000  Uiso   1.00
C772   C     0.28062   0.50700   0.74015   0.00000  Uiso   1.00
C773   C     0.14236   0.52912   0.92011   0.00000  Uiso   1.00
C774   C     0.32652   0.50848   0.73586   0.00000  Uiso   1.00
C775   C     0.00798   0.49091   0.76515   0.00000  Uiso   1.00
C776   C     0.17990   0.65588   0.73896   0.00000  Uiso   1.00
C777   C     0.15005   0.34588   0.76428   0.00000  Uiso   1.00
C778   C     0.15629   0.38945   0.75979   0.00000  Uiso   1.00
C779   C     0.17626   0.61118   0.74056   0.00000  Uiso   1.00
C780   C     0.14534   0.58525   0.97963   0.00000  Uiso   1.00
C781   C     0.18545   0.48099   0.62947   0.00000  Uiso   1.00
C782   C     0.14824   0.51824   0.87108   0.00000  Uiso   1.00
C783   C     0.20595   0.42682   0.51349   0.00000  Uiso   1.00
C784   C     0.19070   0.47381   0.58104   0.00000  Uiso   1.00
C785   C     0.13615   0.57073   0.93846   0.00000  Uiso   1.00
C786   C     0.23078   0.41388   0.57755   0.00000  Uiso   1.00
C787   C     0.31513   0.47161   0.80458   0.00000  Uiso   1.00
C788   C     0.10958   0.66329   0.79295   0.00000  Uiso   1.00
C789   C     0.18221   0.39287   0.93174   0.00000  Uiso   1.00
C790   C     0.14143   0.52582   0.58905   0.00000  Uiso   1.00
C791   C     0.15999   0.55895   0.50240   0.00000  Uiso   1.00
C792   C     0.12324   0.59985   0.91438   0.00000  Uiso   1.00
C793   C     0.14205   0.62791   0.99845   0.00000  Uiso   1.00
C794   C     0.15991   0.51610   0.98874   0.00000  Uiso   1.00
C795   C     0.15040   0.50061   0.94728   0.00000  Uiso   1.00
C796   C     0.17201   0.48880   0.51412   0.00000  Uiso   1.00
C797   C     0.18499   0.45008   0.99260   0.00000  Uiso   1.00
C798   C     0.17372   0.43416   0.95246   0.00000  Uiso   1.00
C799   C     0.15093   0.45726   0.93381   0.00000  Uiso   1.00
H800   H     0.20821   0.33720   0.71643   0.00000  Uiso   1.00
H801   H     0.21816   0.39824   0.99672   0.00000  Uiso   1.00
H802   H     0.17256   0.57292   0.53036   0.00000  Uiso   1.00
H803   H     0.14294   0.42493   0.87507   0.00000  Uiso   1.00
H804   H     0.10149   0.45277   0.90275   0.00000  Uiso   1.00
H805   H     0.01709   0.51414   0.66936   0.00000  Uiso   1.00
H806   H     0.01668   0.55960   0.70227   0.00000  Uiso   1.00
N807   N     0.24741   0.39360   0.59411   0.00000  Uiso   1.00
N808   N     0.29440   0.45620   0.83611   0.00000  Uiso   1.00
N809   N     0.07717   0.65074   0.81582   0.00000  Uiso   1.00
N810   N     0.18918   0.36001   0.91497   0.00000  Uiso   1.00
N811   N     0.11832   0.54794   0.61200   0.00000  Uiso   1.00
N812   N     0.11289   0.62319   0.89535   0.00000  Uiso   1.00
N813   N     0.13933   0.66196   0.51370   0.00000  Uiso   1.00
N814   N     0.12412   0.43489   0.90646   0.00000  Uiso   1.00
N815   N     0.02288   0.52871   0.69948   0.00000  Uiso   1.00
O816   O     0.16667   0.50000   0.75000   0.00000  Uiso   1.00
O817   O     0.15451   0.45970   0.65458   0.00000  Uiso   1.00
O818   O     0.12940   0.53724   0.84968   0.00000  Uiso   1.00
O819   O     0.20824   0.51092   0.64606   0.00000  Uiso   1.00
O820   O     0.17451   0.49213   0.84968   0.00000  Uiso   1.00
O821   O     0.17930   0.41352   0.78213   0.00000  Uiso   1.00
O822   O     0.14632   0.59418   0.77013   0.00000  Uiso   1.00
O823   O     0.07412   0.46625   0.73413   0.00000  Uiso   1.00
O824   O     0.26693   0.52605   0.71360   0.00000  Uiso   1.00
O825   O     0.07071   0.52211   0.78213   0.00000  Uiso   1.00
O826   O     0.25491   0.48559   0.77013   0.00000  Uiso   1.00
O827   O     0.13760   0.40277   0.73413   0.00000  Uiso   1.00
O828   O     0.20345   0.58953   0.71360   0.00000  Uiso   1.00
Zn829  Zn    0.19338   0.47327   0.78734   0.00000  Uiso   1.00
Zn830  Zn    0.13379   0.45791   0.71875   0.00000  Uiso   1.00
Zn831  Zn    0.21056   0.53109   0.70657   0.00000  Uiso   1.00
Zn832  Zn    0.12893   0.53773   0.78733   0.00000  Uiso   1.00
C833   C     0.38633   0.49329   0.75989   0.00000  Uiso   1.00
C834   C     0.50373   0.49783   0.56042   0.00000  Uiso   1.00
C835   C     0.54331   0.43922   0.55691   0.00000  Uiso   1.00
C836   C     0.61396   0.50700   0.74015   0.00000  Uiso   1.00
C837   C     0.47570   0.52912   0.92011   0.00000  Uiso   1.00
C838   C     0.65986   0.50848   0.73586   0.00000  Uiso   1.00
C839   C     0.34131   0.49091   0.76515   0.00000  Uiso   1.00
C840   C     0.51324   0.65588   0.73896   0.00000  Uiso   1.00
C841   C     0.48338   0.34588   0.76428   0.00000  Uiso   1.00
C842   C     0.48963   0.38945   0.75979   0.00000  Uiso   1.00
C843   C     0.50960   0.61118   0.74056   0.00000  Uiso   1.00
C844   C     0.47867   0.58525   0.97963   0.00000  Uiso   1.00
C845   C     0.51879   0.48099   0.62947   0.00000  Uiso   1.00
C846   C     0.48158   0.51824   0.87108   0.00000  Uiso   1.00
C847   C     0.53929   0.42682   0.51349   0.00000  Uiso   1.00
C848   C     0.52403   0.47381   0.58104   0.00000  Uiso   1.00
C849   C     0.46948   0.57073   0.93846   0.00000  Uiso   1.00
C850   C     0.56412   0.41388   0.57755   0.00000  Uiso   1.00
C851   C     0.64846   0.47161   0.80458   0.00000  Uiso   1.00
C852   C     0.44291   0.66329   0.79295   0.00000  Uiso   1.00
C853   C     0.51554   0.39287   0.93174   0.00000  Uiso   1.00
C854   C     0.47476   0.52582   0.58905   0.00000  Uiso   1.00
C855   C     0.49332   0.55895   0.50240   0.00000  Uiso   1.00
C856   C     0.45657   0.59985   0.91438   0.00000  Uiso   1.00
C857   C     0.47538   0.62791   0.99845   0.00000  Uiso   1.00
C858   C     0.49324   0.51610   0.98874   0.00000  Uiso   1.00
C859   C     0.48373   0.50061   0.94728   0.00000  Uiso   1.00
C860   C     0.50534   0.48880   0.51412   0.00000  Uiso   1.00
C861   C     0.51833   0.45008   0.99260   0.00000  Uiso   1.00
C862   C     0.50705   0.43416   0.95246   0.00000  Uiso   1.00
C863   C     0.48426   0.45726   0.93381   0.00000  Uiso   1.00
H864   H     0.54154   0.33720   0.71643   0.00000  Uiso   1.00
H865   H     0.55149   0.39824   0.99672   0.00000  Uiso   1.00
H866   H     0.50589   0.57292   0.53036   0.00000  Uiso   1.00
H867   H     0.47627   0.42493   0.87507   0.00000  Uiso   1.00
H868   H     0.43483   0.45277   0.90275   0.00000  Uiso   1.00
H869   H     0.35043   0.51414   0.66936   0.00000  Uiso   1.00
H870   H     0.35001   0.55960   0.70227   0.00000  Uiso   1.00
N871   N     0.58075   0.39360   0.59411   0.00000  Uiso   1.00
N872   N     0.62773   0.45620   0.83611   0.00000  Uiso   1.00
N873   N     0.41051   0.65074   0.81582   0.00000  Uiso   1.00
N874   N     0.52252   0.36001   0.91497   0.00000  Uiso   1.00
N875   N     0.45166   0.54794   0.61200   0.00000  Uiso   1.00
N876   N     0.44622   0.62319   0.89535   0.00000  Uiso   1.00
N877   N     0.47266   0.66196   0.51370   0.00000  Uiso   1.00
N878   N     0.45745   0.43489   0.90646   0.00000  Uiso   1.00
N879   N     0.35621   0.52871   0.69948   0.00000  Uiso   1.00
O880   O     0.50000   0.50000   0.75000   0.00000  Uiso   1.00
O881   O     0.48784   0.45970   0.65458   0.00000  Uiso   1.00
O882   O     0.46274   0.53724   0.84968   0.00000  Uiso   1.00
O883   O     0.54157   0.51092   0.64606   0.00000  Uiso   1.00
O884   O     0.50785   0.49213   0.84968   0.00000  Uiso   1.00
O885   O     0.51264   0.41352   0.78213   0.00000  Uiso   1.00
O886   O     0.47965   0.59418   0.77013   0.00000  Uiso   1.00
O887   O     0.40745   0.46625   0.73413   0.00000  Uiso   1.00
O888   O     0.60026   0.52605   0.71360   0.00000  Uiso   1.00
O889   O     0.40405   0.52211   0.78213   0.00000  Uiso   1.00
O890   O     0.58824   0.48559   0.77013   0.00000  Uiso   1.00
O891   O     0.47093   0.40277   0.73413   0.00000  Uiso   1.00
O892   O     0.53678   0.58953   0.71360   0.00000  Uiso   1.00
Zn893  Zn    0.52672   0.47327   0.78734   0.00000  Uiso   1.00
Zn894  Zn    0.46713   0.45791   0.71875   0.00000  Uiso   1.00
Zn895  Zn    0.54389   0.53109   0.70657   0.00000  Uiso   1.00
Zn896  Zn    0.46226   0.53773   0.78733   0.00000  Uiso   1.00
C897   C     0.71967   0.49329   0.75989   0.00000  Uiso   1.00
C898   C     0.83707   0.49783   0.56042   0.00000  Uiso   1.00
C899   C     0.87664   0.43922   0.55691   0.00000  Uiso   1.00
C900   C     0.94729   0.50700   0.74015   0.00000  Uiso   1.00
C901   C     0.80903   0.52912   0.92011   0.00000  Uiso   1.00
C902   C     0.99319   0.50848   0.73586   0.00000  Uiso   1.00
C903   C     0.67465   0.49091   0.76515   0.00000  Uiso   1.00
C904   C     0.84657   0.65588   0.73896   0.00000  Uiso   1.00
C905   C     0.81671   0.34588   0.76428   0.00000  Uiso   1.00
C906   C     0.82296   0.38945   0.75979   0.00000  Uiso   1.00
C907   C     0.84293   0.61118   0.74056   0.00000  Uiso   1.00
C908   C     0.81200   0.58525   0.97963   0.00000  Uiso   1.00
C909   C     0.85212   0.48099   0.62947   0.00000  Uiso   1.00
C910   C     0.81491   0.51824   0.87108   0.00000  Uiso   1.00
C911   C     0.87262   0.42682   0.51349   0.00000  Uiso   1.00
C912   C     0.85736   0.47381   0.58104   0.00000  Uiso   1.00
C913   C     0.80282   0.57073   0.93846   0.00000  Uiso   1.00
C914   C     0.89745   0.41388   0.57755   0.00000  Uiso   1.00
C915   C     0.98180   0.47161   0.80458   0.00000  Uiso   1.00
C916   C     0.77624   0.66329   0.79295   0.00000  Uiso   1.00
C917   C     0.84888   0.39287   0.93174   0.00000  Uiso   1.00
C918   C     0.80809   0.52582   0.58905   0.00000  Uiso   1.00
C919   C     0.82665   0.55895   0.50240   0.00000  Uiso   1.00
C920   C     0.78990   0.59985   0.91438   0.00000  Uiso   1.00
C921   C     0.80871   0.62791   0.99845   0.00000  Uiso   1.00
C922   C     0.82658   0.51610   0.98874   0.00000  Uiso   1.00
C923   C     0.81707   0.50061   0.94728   0.00000  Uiso   1.00
C924   C     0.83867   0.48880   0.51412   0.00000  Uiso   1.00
C925   C     0.85166   0.45008   0.99260   0.00000  Uiso   1.00
C926   C     0.84038   0.43416   0.95246   0.00000  Uiso   1.00
C927   C     0.81760   0.45726   0.93381   0.00000  Uiso   1.00
H928   H     0.87488   0.33720   0.71643   0.00000  Uiso   1.00
H929   H     0.88483   0.39824   0.99672   0.00000  Uiso   1.00
H930   H     0.83922   0.57292   0.53036   0.00000  Uiso   1.00
H931   H     0.80960   0.42493   0.87507   0.00000  Uiso   1.00
H932   H     0.76816   0.45277   0.90275   0.00000  Uiso   1.00
H933   H     0.68376   0.51414   0.66936   0.00000  Uiso   1.00
H934   H     0.68334   0.55960   0.70227   0.00000  Uiso   1.00
N935   N     0.91408   0.39360   0.59411   0.00000  Uiso   1.00
N936   N     0.96106   0.45620   0.83611   0.00000  Uiso   1.00
N937   N     0.74384   0.65074   0.81582   0.00000  Uiso   1.00
N938   N     0.85585   0.36001   0.91497   0.00000  Uiso   1.00
N939   N     0.78499   0.54794   0.61200   0.00000  Uiso   1.00
N940   N     0.77956   0.62319   0.89535   0.00000  Uiso   1.00
N941   N     0.80599   0.66196   0.51370   0.00000  Uiso   1.00
N942   N     0.79079   0.43489   0.90646   0.00000  Uiso   1.00
N943   N     0.68955   0.52871   0.69948   0.00000  Uiso   1.00
O944   O     0.83333   0.50000   0.75000   0.00000  Uiso   1.00
O945   O     0.82118   0.45970   0.65458   0.00000  Uiso   1.00
O946   O     0.79607   0.53724   0.84968   0.00000  Uiso   1.00
O947   O     0.87491   0.51092   0.64606   0.00000  Uiso   1.00
O948   O     0.84118   0.49213   0.84968   0.00000  Uiso   1.00
O949   O     0.84597   0.41352   0.78213   0.00000  Uiso   1.00
O950   O     0.81298   0.59418   0.77013   0.00000  Uiso   1.00
O951   O     0.74078   0.46625   0.73413   0.00000  Uiso   1.00
O952   O     0.93360   0.52605   0.71360   0.00000  Uiso   1.00
O953   O     0.73738   0.52211   0.78213   0.00000  Uiso   1.00
O954   O     0.92158   0.48559   0.77013   0.00000  Uiso   1.00
O955   O     0.80426   0.40277   0.73413   0.00000  Uiso   1.00
O956   O     0.87012   0.58953   0.71360   0.00000  Uiso   1.00
Zn957  Zn    0.86005   0.47327   0.78734   0.00000  Uiso   1.00
Zn958  Zn    0.80046   0.45791   0.71875   0.00000  Uiso   1.00
Zn959  Zn    0.87723   0.53109   0.70657   0.00000  Uiso   1.00
Zn960  Zn    0.79560   0.53773   0.78733   0.00000  Uiso   1.00
C961   C     0.05300   0.82663   0.75989   0.00000  Uiso   1.00
C962   C     0.17040   0.83116   0.56042   0.00000  Uiso   1.00
C963   C     0.20998   0.77255   0.55691   0.00000  Uiso   1.00
C964   C     0.28062   0.84034   0.74015   0.00000  Uiso   1.00
C965   C     0.14236   0.86245   0.92011   0.00000  Uiso   1.00
C966   C     0.32652   0.84181   0.73586   0.00000  Uiso   1.00
C967   C     0.00798   0.82424   0.76515   0.00000  Uiso   1.00
C968   C     0.17990   0.98922   0.73896   0.00000  Uiso   1.00
C969   C     0.15005   0.67921   0.76428   0.00000  Uiso   1.00
C970   C     0.15629   0.72278   0.75979   0.00000  Uiso   1.00
C971   C     0.17626   0.94452   0.74056   0.00000  Uiso   1.00
C972   C     0.14534   0.91858   0.97963   0.00000  Uiso   1.00
C973   C     0.18545   0.81432   0.62947   0.00000  Uiso   1.00
C974   C     0.14824   0.85157   0.87108   0.00000  Uiso   1.00
C975   C     0.20595   0.76016   0.51349   0.00000  Uiso   1.00
C976   C     0.19070   0.80714   0.58104   0.00000  Uiso   1.00
C977   C     0.13615   0.90406   0.93846   0.00000  Uiso   1.00
C978   C     0.23078   0.74722   0.57755   0.00000  Uiso   1.00
C979   C     0.31513   0.80494   0.80458   0.00000  Uiso   1.00
C980   C     0.10958   0.99662   0.79295   0.00000  Uiso   1.00
C981   C     0.18221   0.72620   0.93174   0.00000  Uiso   1.00
C982   C     0.14143   0.85916   0.58905   0.00000  Uiso   1.00
C983   C     0.15999   0.89228   0.50240   0.00000  Uiso   1.00
C984   C     0.12324   0.93319   0.91438   0.00000  Uiso   1.00
C985   C     0.14205   0.96125   0.99845   0.00000  Uiso   1.00
C986   C     0.15991   0.84943   0.98874   0.00000  Uiso   1.00
C987   C     0.15040   0.83395   0.94728   0.00000  Uiso   1.00
C988   C     0.17201   0.82213   0.51412   0.00000  Uiso   1.00
C989   C     0.18499   0.78341   0.99260   0.00000  Uiso   1.00
C990   C     0.17372   0.76750   0.95246   0.00000  Uiso   1.00
C991   C     0.15093   0.79059   0.93381   0.00000  Uiso   1.00
H992   H     0.20821   0.67053   0.71643   0.00000  Uiso   1.00
H993   H     0.21816   0.73158   0.99672   0.00000  Uiso   1.00
H994   H     0.17256   0.90625   0.53036   0.00000  Uiso   1.00
H995   H     0.14294   0.75827   0.87507   0.00000  Uiso   1.00
H996   H     0.10149   0.78610   0.90275   0.00000  Uiso   1.00
H997   H     0.01709   0.84747   0.66936   0.00000  Uiso   1.00
H998   H     0.01668   0.89293   0.70227   0.00000  Uiso   1.00
N999   N     0.24741   0.72693   0.59411   0.00000  Uiso   1.00
N1000  N     0.29440   0.78954   0.83611   0.00000  Uiso   1.00
N1001  N     0.07717   0.98407   0.81582   0.00000  Uiso   1.00
N1002  N     0.18918   0.69335   0.91497   0.00000  Uiso   1.00
N1003  N     0.11832   0.88127   0.61200   0.00000  Uiso   1.00
N1004  N     0.11289   0.95652   0.89535   0.00000  Uiso   1.00
N1005  N     0.13933   0.99529   0.51370   0.00000  Uiso   1.00
N1006  N     0.12412   0.76822   0.90646   0.00000  Uiso   1.00
N1007  N     0.02288   0.86204   0.69948   0.00000  Uiso   1.00
O1008  O     0.16667   0.83333   0.75000   0.00000  Uiso   1.00
O1009  O     0.15451   0.79304   0.65458   0.00000  Uiso   1.00
O1010  O     0.12940   0.87058   0.84968   0.00000  Uiso   1.00
O1011  O     0.20824   0.84425   0.64606   0.00000  Uiso   1.00
O1012  O     0.17451   0.82546   0.84968   0.00000  Uiso   1.00
O1013  O     0.17930   0.74686   0.78213   0.00000  Uiso   1.00
O1014  O     0.14632   0.92751   0.77013   0.00000  Uiso   1.00
O1015  O     0.07412   0.79958   0.73413   0.00000  Uiso   1.00
O1016  O     0.26693   0.85939   0.71360   0.00000  Uiso   1.00
O1017  O     0.07071   0.85544   0.78213   0.00000  Uiso   1.00
O1018  O     0.25491   0.81892   0.77013   0.00000  Uiso   1.00
O1019  O     0.13760   0.73610   0.73413   0.00000  Uiso   1.00
O1020  O     0.20345   0.92286   0.71360   0.00000  Uiso   1.00
Zn1021 Zn    0.19338   0.80661   0.78734   0.00000  Uiso   1.00
Zn1022 Zn    0.13379   0.79124   0.71875   0.00000  Uiso   1.00
Zn1023 Zn    0.21056   0.86442   0.70657   0.00000  Uiso   1.00
Zn1024 Zn    0.12893   0.87106   0.78733   0.00000  Uiso   1.00
C1025  C     0.38633   0.82663   0.75989   0.00000  Uiso   1.00
C1026  C     0.50373   0.83116   0.56042   0.00000  Uiso   1.00
C1027  C     0.54331   0.77255   0.55691   0.00000  Uiso   1.00
C1028  C     0.61396   0.84034   0.74015   0.00000  Uiso   1.00
C1029  C     0.47570   0.86245   0.92011   0.00000  Uiso   1.00
C1030  C     0.65986   0.84181   0.73586   0.00000  Uiso   1.00
C1031  C     0.34131   0.82424   0.76515   0.00000  Uiso   1.00
C1032  C     0.51324   0.98922   0.73896   0.00000  Uiso   1.00
C1033  C     0.48338   0.67921   0.76428   0.00000  Uiso   1.00
C1034  C     0.48963   0.72278   0.75979   0.00000  Uiso   1.00
C1035  C     0.50960   0.94452   0.74056   0.00000  Uiso   1.00
C1036  C     0.47867   0.91858   0.97963   0.00000  Uiso   1.00
C1037  C     0.51879   0.81432   0.62947   0.00000  Uiso   1.00
C1038  C     0.48158   0.85157   0.87108   0.00000  Uiso   1.00
C1039  C     0.53929   0.76016   0.51349   0.00000  Uiso   1.00
C1040  C     0.52403   0.80714   0.58104   0.00000  Uiso   1.00
C1041  C     0.46948   0.90406   0.93846   0.00000  Uiso   1.00
C1042  C     0.56412   0.74722   0.57755   0.00000  Uiso   1.00
C1043  C     0.64846   0.80494   0.80458   0.00000  Uiso   1.00
C1044  C     0.44291   0.99662   0.79295   0.00000  Uiso   1.00
C1045  C     0.51554   0.72620   0.93174   0.00000  Uiso   1.00
C1046  C     0.47476   0.85916   0.58905   0.00000  Uiso   1.00
C1047  C     0.49332   0.89228   0.50240   0.00000  Uiso   1.00
C1048  C     0.45657   0.93319   0.91438   0.00000  Uiso   1.00
C1049  C     0.47538   0.96125   0.99845   0.00000  Uiso   1.00
C1050  C     0.49324   0.84943   0.98874   0.00000  Uiso   1.00
C1051  C     0.48373   0.83395   0.94728   0.00000  Uiso   1.00
C1052  C     0.50534   0.82213   0.51412   0.00000  Uiso   1.00
C1053  C     0.51833   0.78341   0.99260   0.00000  Uiso   1.00
C1054  C     0.50705   0.76750   0.95246   0.00000  Uiso   1.00
C1055  C     0.48426   0.79059   0.93381   0.00000  Uiso   1.00
H1056  H     0.54154   0.67053   0.71643   0.00000  Uiso   1.00
H1057  H     0.55149   0.73158   0.99672   0.00000  Uiso   1.00
H1058  H     0.50589   0.90625   0.53036   0.00000  Uiso   1.00
H1059  H     0.47627   0.75827   0.87507   0.00000  Uiso   1.00
H1060  H     0.43483   0.78610   0.90275   0.00000  Uiso   1.00
H1061  H     0.35043   0.84747   0.66936   0.00000  Uiso   1.00
H1062  H     0.35001   0.89293   0.70227   0.00000  Uiso   1.00
N1063  N     0.58075   0.72693   0.59411   0.00000  Uiso   1.00
N1064  N     0.62773   0.78954   0.83611   0.00000  Uiso   1.00
N1065  N     0.41051   0.98407   0.81582   0.00000  Uiso   1.00
N1066  N     0.52252   0.69335   0.91497   0.00000  Uiso   1.00
N1067  N     0.45166   0.88127   0.61200   0.00000  Uiso   1.00
N1068  N     0.44622   0.95652   0.89535   0.00000  Uiso   1.00
N1069  N     0.47266   0.99529   0.51370   0.00000  Uiso   1.00
N1070  N     0.45745   0.76822   0.90646   0.00000  Uiso   1.00
N1071  N     0.35621   0.86204   0.69948   0.00000  Uiso   1.00
O1072  O     0.50000   0.83333   0.75000   0.00000  Uiso   1.00
O1073  O     0.48784   0.79304   0.65458   0.00000  Uiso   1.00
O1074  O     0.46274   0.87058   0.84968   0.00000  Uiso   1.00
O1075  O     0.54157   0.84425   0.64606   0.00000  Uiso   1.00
O1076  O     0.50785   0.82546   0.84968   0.00000  Uiso   1.00
O1077  O     0.51264   0.74686   0.78213   0.00000  Uiso   1.00
O1078  O     0.47965   0.92751   0.77013   0.00000  Uiso   1.00
O1079  O     0.40745   0.79958   0.73413   0.00000  Uiso   1.00
O1080  O     0.60026   0.85939   0.71360   0.00000  Uiso   1.00
O1081  O     0.40405   0.85544   0.78213   0.00000  Uiso   1.00
O1082  O     0.58824   0.81892   0.77013   0.00000  Uiso   1.00
O1083  O     0.47093   0.73610   0.73413   0.00000  Uiso   1.00
O1084  O     0.53678   0.92286   0.71360   0.00000  Uiso   1.00
Zn1085 Zn    0.52672   0.80661   0.78734   0.00000  Uiso   1.00
Zn1086 Zn    0.46713   0.79124   0.71875   0.00000  Uiso   1.00
Zn1087 Zn    0.54389   0.86442   0.70657   0.00000  Uiso   1.00
Zn1088 Zn    0.46226   0.87106   0.78733   0.00000  Uiso   1.00
C1089  C     0.71967   0.82663   0.75989   0.00000  Uiso   1.00
C1090  C     0.83707   0.83116   0.56042   0.00000  Uiso   1.00
C1091  C     0.87664   0.77255   0.55691   0.00000  Uiso   1.00
C1092  C     0.94729   0.84034   0.74015   0.00000  Uiso   1.00
C1093  C     0.80903   0.86245   0.92011   0.00000  Uiso   1.00
C1094  C     0.99319   0.84181   0.73586   0.00000  Uiso   1.00
C1095  C     0.67465   0.82424   0.76515   0.00000  Uiso   1.00
C1096  C     0.84657   0.98922   0.73896   0.00000  Uiso   1.00
C1097  C     0.81671   0.67921   0.76428   0.00000  Uiso   1.00
C1098  C     0.82296   0.72278   0.75979   0.00000  Uiso   1.00
C1099  C     0.84293   0.94452   0.74056   0.00000  Uiso   1.00
C1100  C     0.81200   0.91858   0.97963   0.00000  Uiso   1.00
C1101  C     0.85212   0.81432   0.62947   0.00000  Uiso   1.00
C1102  C     0.81491   0.85157   0.87108   0.00000  Uiso   1.00
C1103  C     0.87262   0.76016   0.51349   0.00000  Uiso   1.00
C1104  C     0.85736   0.80714   0.58104   0.00000  Uiso   1.00
C1105  C     0.80282   0.90406   0.93846   0.00000  Uiso   1.00
C1106  C     0.89745   0.74722   0.57755   0.00000  Uiso   1.00
C1107  C     0.98180   0.80494   0.80458   0.00000  Uiso   1.00
C1108  C     0.77624   0.99662   0.79295   0.00000  Uiso   1.00
C1109  C     0.84888   0.72620   0.93174   0.00000  Uiso   1.00
C1110  C     0.80809   0.85916   0.58905   0.00000  Uiso   1.00
C1111  C     0.82665   0.89228   0.50240   0.00000  Uiso   1.00
C1112  C     0.78990   0.93319   0.91438   0.00000  Uiso   1.00
C1113  C     0.80871   0.96125   0.99845   0.00000  Uiso   1.00
C1114  C     0.82658   0.84943   0.98874   0.00000  Uiso   1.00
C1115  C     0.81707   0.83395   0.94728   0.00000  Uiso   1.00
C1116  C     0.83867   0.82213   0.51412   0.00000  Uiso   1.00
C1117  C     0.85166   0.78341   0.99260   0.00000  Uiso   1.00
C1118  C     0.84038   0.76750   0.95246   0.00000  Uiso   1.00
C1119  C     0.81760   0.79059   0.93381   0.00000  Uiso   1.00
H1120  H     0.87488   0.67053   0.71643   0.00000  Uiso   1.00
H1121  H     0.88483   0.73158   0.99672   0.00000  Uiso   1.00
H1122  H     0.83922   0.90625   0.53036   0.00000  Uiso   1.00
H1123  H     0.80960   0.75827   0.87507   0.00000  Uiso   1.00
H1124  H     0.76816   0.78610   0.90275   0.00000  Uiso   1.00
H1125  H     0.68376   0.84747   0.66936   0.00000  Uiso   1.00
H1126  H     0.68334   0.89293   0.70227   0.00000  Uiso   1.00
N1127  N     0.91408   0.72693   0.59411   0.00000  Uiso   1.00
N1128  N     0.96106   0.78954   0.83611   0.00000  Uiso   1.00
N1129  N     0.74384   0.98407   0.81582   0.00000  Uiso   1.00
N1130  N     0.85585   0.69335   0.91497   0.00000  Uiso   1.00
N1131  N     0.78499   0.88127   0.61200   0.00000  Uiso   1.00
N1132  N     0.77956   0.95652   0.89535   0.00000  Uiso   1.00
N1133  N     0.80599   0.99529   0.51370   0.00000  Uiso   1.00
N1134  N     0.79079   0.76822   0.90646   0.00000  Uiso   1.00
N1135  N     0.68955   0.86204   0.69948   0.00000  Uiso   1.00
O1136  O     0.83333   0.83333   0.75000   0.00000  Uiso   1.00
O1137  O     0.82118   0.79304   0.65458   0.00000  Uiso   1.00
O1138  O     0.79607   0.87058   0.84968   0.00000  Uiso   1.00
O1139  O     0.87491   0.84425   0.64606   0.00000  Uiso   1.00
O1140  O     0.84118   0.82546   0.84968   0.00000  Uiso   1.00
O1141  O     0.84597   0.74686   0.78213   0.00000  Uiso   1.00
O1142  O     0.81298   0.92751   0.77013   0.00000  Uiso   1.00
O1143  O     0.74078   0.79958   0.73413   0.00000  Uiso   1.00
O1144  O     0.93360   0.85939   0.71360   0.00000  Uiso   1.00
O1145  O     0.73738   0.85544   0.78213   0.00000  Uiso   1.00
O1146  O     0.92158   0.81892   0.77013   0.00000  Uiso   1.00
O1147  O     0.80426   0.73610   0.73413   0.00000  Uiso   1.00
O1148  O     0.87012   0.92286   0.71360   0.00000  Uiso   1.00
Zn1149 Zn    0.86005   0.80661   0.78734   0.00000  Uiso   1.00
Zn1150 Zn    0.80046   0.79124   0.71875   0.00000  Uiso   1.00
Zn1151 Zn    0.87723   0.86442   0.70657   0.00000  Uiso   1.00
Zn1152 Zn    0.79560   0.87106   0.78733   0.00000  Uiso   1.00
loop_
_geom_bond_atom_site_label_1
_geom_bond_atom_site_label_2
_geom_bond_distance
_geom_bond_site_symmetry_2
_ccdc_geom_bond_type
C1     O57     1.261   .     A
C1     O55     1.265   .     A
C1     C7      1.430   .     S
C2     C22     1.456   .     S
C2     C16     1.404   .     A
C2     C28     1.419   .     A
C3     C15     1.393   .     A
C3     C18     1.445   .     S
C3     C16     1.405   .     A
C4     O56     1.294   .     A
C4     C6      1.467   .     S
C4     O58     1.279   .     A
C5     C27     1.426   .     A
C5     C14     1.485   .     S
C5     C17     1.426   .     A
C6     C71     1.356   .     S
C6     N111    1.438   .     S
C7     C134    1.356   1_455 S
C7     C147    1.451   1_455 S
C8     C11     1.452   .     S
C8     C201    1.344   .     S
C8     H224    1.088   .     S
C9     C10     1.426   .     S
C9     C392    1.344   1_545 S
C9     C404    1.450   1_545 S
C10    O59     1.274   .     A
C10    O53     1.279   .     A
C11    O54     1.265   .     A
C11    O60     1.275   .     A
C12    C17     1.400   .     A
C12    C25     1.448   .     S
C12    C599    1.386   .     S
C13    O49     1.275   .     A
C13    O51     1.282   .     A
C13    C16     1.459   .     S
C14    O50     1.281   .     A
C14    O52     1.293   .     A
C15    C605    1.407   1_554 S
C15    H609    1.084   1_554 S
C17    C24     1.451   .     S
C18    N39     1.157   .     T
C19    N40     1.158   .     T
C19    C71     1.451   .     S
C20    N41     1.158   .     T
C20    C201    1.450   .     S
C21    C30     1.449   .     S
C21    N42     1.157   .     T
C22    N43     1.158   .     T
C23    H34     1.081   .     S
C23    C588    1.386   1_554 S
C23    C602    1.409   1_554 S
C24    N44     1.157   .     T
C25    N621    1.157   .     S
C26    C27     1.419   .     A
C26    C599    1.409   .     S
C26    C604    1.421   .     S
C27    C31     1.425   .     A
C28    C602    1.421   1_554 S
C28    C605    1.419   1_554 S
C29    C30     1.409   .     A
C29    C604    1.419   .     S
C29    C591    1.407   .     S
C30    C31     1.402   .     A
C31    N46     1.442   .     S
H32    C392    1.088   1_545 S
H33    C591    1.084   .     S
H35    N46     1.044   .     S
H36    N46     1.044   .     S
H37    N47     1.045   .     S
H38    N47     1.045   .     S
N45    C601    1.157   1_554 S
N47    C134    1.438   1_455 S
O48    Zn64    1.923   .     S
O48    Zn61    1.972   .     S
O48    Zn63    1.948   .     S
O48    Zn62    1.944   .     S
O49    Zn62    1.930   .     S
O50    Zn64    1.942   .     S
O51    Zn63    1.928   .     S
O52    Zn61    1.917   .     S
O53    Zn61    1.934   .     S
O54    Zn64    1.945   .     S
O55    Zn62    1.934   .     S
O56    Zn63    1.947   .     S
O57    Zn64    1.944   .     S
O58    Zn61    1.935   .     S
O59    Zn62    1.948   .     S
O60    Zn63    1.933   .     S
C65    O121    1.261   .     A
C65    O119    1.265   .     A
C65    C71     1.430   .     S
C66    C86     1.456   .     S
C66    C80     1.404   .     A
C66    C92     1.419   .     A
C67    C79     1.393   .     A
C67    C82     1.445   .     S
C67    C80     1.405   .     A
C68    O120    1.294   .     A
C68    C70     1.467   .     S
C68    O122    1.279   .     A
C69    C91     1.426   .     A
C69    C78     1.485   .     S
C69    C81     1.426   .     A
C70    C135    1.356   .     S
C70    N175    1.438   .     S
C72    C75     1.452   .     S
C72    C265    1.344   .     S
C72    H288    1.088   .     S
C73    C74     1.426   .     S
C73    C456    1.344   1_545 S
C73    C468    1.450   1_545 S
C74    O123    1.274   .     A
C74    O117    1.279   .     A
C75    O118    1.265   .     A
C75    O124    1.275   .     A
C76    C81     1.400   .     A
C76    C89     1.448   .     S
C76    C663    1.386   .     S
C77    O113    1.275   .     A
C77    O115    1.282   .     A
C77    C80     1.459   .     S
C78    O114    1.281   .     A
C78    O116    1.293   .     A
C79    C669    1.407   1_554 S
C79    H673    1.084   1_554 S
C81    C88     1.451   .     S
C82    N103    1.157   .     T
C83    N104    1.158   .     T
C83    C135    1.451   .     S
C84    N105    1.158   .     T
C84    C265    1.450   .     S
C85    C94     1.449   .     S
C85    N106    1.157   .     T
C86    N107    1.158   .     T
C87    H98     1.081   .     S
C87    C652    1.386   1_554 S
C87    C666    1.409   1_554 S
C88    N108    1.157   .     T
C89    N685    1.157   .     S
C90    C91     1.419   .     A
C90    C663    1.409   .     S
C90    C668    1.421   .     S
C91    C95     1.425   .     A
C92    C666    1.421   1_554 S
C92    C669    1.419   1_554 S
C93    C94     1.409   .     A
C93    C668    1.419   .     S
C93    C655    1.407   .     S
C94    C95     1.402   .     A
C95    N110    1.442   .     S
H96    C456    1.088   1_545 S
H97    C655    1.084   .     S
H99    N110    1.044   .     S
H100   N110    1.044   .     S
H101   N111    1.045   .     S
H102   N111    1.045   .     S
N109   C665    1.157   1_554 S
O112   Zn128   1.923   .     S
O112   Zn125   1.972   .     S
O112   Zn127   1.948   .     S
O112   Zn126   1.944   .     S
O113   Zn126   1.930   .     S
O114   Zn128   1.942   .     S
O115   Zn127   1.928   .     S
O116   Zn125   1.917   .     S
O117   Zn125   1.934   .     S
O118   Zn128   1.945   .     S
O119   Zn126   1.934   .     S
O120   Zn127   1.947   .     S
O121   Zn128   1.944   .     S
O122   Zn125   1.935   .     S
O123   Zn126   1.948   .     S
O124   Zn127   1.933   .     S
C129   O185    1.261   .     A
C129   O183    1.265   .     A
C129   C135    1.430   .     S
C130   C150    1.456   .     S
C130   C144    1.404   .     A
C130   C156    1.419   .     A
C131   C143    1.393   .     A
C131   C146    1.445   .     S
C131   C144    1.405   .     A
C132   O184    1.294   .     A
C132   C134    1.467   .     S
C132   O186    1.279   .     A
C133   C155    1.426   .     A
C133   C142    1.485   .     S
C133   C145    1.426   .     A
C134   C7      1.356   1_655 S
C134   N47     1.438   1_655 S
C136   C139    1.452   .     S
C136   C329    1.344   .     S
C136   H352    1.088   .     S
C137   C138    1.426   .     S
C137   C520    1.344   1_545 S
C137   C532    1.450   1_545 S
C138   O187    1.274   .     A
C138   O181    1.279   .     A
C139   O182    1.265   .     A
C139   O188    1.275   .     A
C140   C145    1.400   .     A
C140   C153    1.448   .     S
C140   C727    1.386   .     S
C141   O177    1.275   .     A
C141   O179    1.282   .     A
C141   C144    1.459   .     S
C142   O178    1.281   .     A
C142   O180    1.293   .     A
C143   C733    1.407   1_554 S
C143   H737    1.084   1_554 S
C145   C152    1.451   .     S
C146   N167    1.157   .     T
C147   N168    1.158   .     T
C147   C7      1.451   1_655 S
C148   N169    1.158   .     T
C148   C329    1.450   .     S
C149   C158    1.449   .     S
C149   N170    1.157   .     T
C150   N171    1.158   .     T
C151   H162    1.081   .     S
C151   C716    1.386   1_554 S
C151   C730    1.409   1_554 S
C152   N172    1.157   .     T
C153   N749    1.157   .     S
C154   C155    1.419   .     A
C154   C727    1.409   .     S
C154   C732    1.421   .     S
C155   C159    1.425   .     A
C156   C730    1.421   1_554 S
C156   C733    1.419   1_554 S
C157   C158    1.409   .     A
C157   C732    1.419   .     S
C157   C719    1.407   .     S
C158   C159    1.402   .     A
C159   N174    1.442   .     S
H160   C520    1.088   1_545 S
H161   C719    1.084   .     S
H163   N174    1.044   .     S
H164   N174    1.044   .     S
H165   N175    1.045   .     S
H166   N175    1.045   .     S
N173   C729    1.157   1_554 S
O176   Zn192   1.923   .     S
O176   Zn189   1.972   .     S
O176   Zn191   1.948   .     S
O176   Zn190   1.944   .     S
O177   Zn190   1.930   .     S
O178   Zn192   1.942   .     S
O179   Zn191   1.928   .     S
O180   Zn189   1.917   .     S
O181   Zn189   1.934   .     S
O182   Zn192   1.945   .     S
O183   Zn190   1.934   .     S
O184   Zn191   1.947   .     S
O185   Zn192   1.944   .     S
O186   Zn189   1.935   .     S
O187   Zn190   1.948   .     S
O188   Zn191   1.933   .     S
C193   O249    1.261   .     A
C193   O247    1.265   .     A
C193   C199    1.430   .     S
C194   C214    1.456   .     S
C194   C208    1.404   .     A
C194   C220    1.419   .     A
C195   C207    1.393   .     A
C195   C210    1.445   .     S
C195   C208    1.405   .     A
C196   O248    1.294   .     A
C196   C198    1.467   .     S
C196   O250    1.279   .     A
C197   C219    1.426   .     A
C197   C206    1.485   .     S
C197   C209    1.426   .     A
C198   C263    1.356   .     S
C198   N303    1.438   .     S
C199   C326    1.356   1_455 S
C199   C339    1.451   1_455 S
C200   C203    1.452   .     S
C200   C393    1.344   .     S
C200   H416    1.088   .     S
C201   C202    1.426   .     S
C202   O251    1.274   .     A
C202   O245    1.279   .     A
C203   O246    1.265   .     A
C203   O252    1.275   .     A
C204   C209    1.400   .     A
C204   C217    1.448   .     S
C204   C791    1.386   .     S
C205   O241    1.275   .     A
C205   O243    1.282   .     A
C205   C208    1.459   .     S
C206   O242    1.281   .     A
C206   O244    1.293   .     A
C207   C797    1.407   1_554 S
C207   H801    1.084   1_554 S
C209   C216    1.451   .     S
C210   N231    1.157   .     T
C211   N232    1.158   .     T
C211   C263    1.451   .     S
C212   N233    1.158   .     T
C212   C393    1.450   .     S
C213   C222    1.449   .     S
C213   N234    1.157   .     T
C214   N235    1.158   .     T
C215   H226    1.081   .     S
C215   C780    1.386   1_554 S
C215   C794    1.409   1_554 S
C216   N236    1.157   .     T
C217   N813    1.157   .     S
C218   C219    1.419   .     A
C218   C791    1.409   .     S
C218   C796    1.421   .     S
C219   C223    1.425   .     A
C220   C794    1.421   1_554 S
C220   C797    1.419   1_554 S
C221   C222    1.409   .     A
C221   C796    1.419   .     S
C221   C783    1.407   .     S
C222   C223    1.402   .     A
C223   N238    1.442   .     S
H225   C783    1.084   .     S
H227   N238    1.044   .     S
H228   N238    1.044   .     S
H229   N239    1.045   .     S
H230   N239    1.045   .     S
N237   C793    1.157   1_554 S
N239   C326    1.438   1_455 S
O240   Zn256   1.923   .     S
O240   Zn253   1.972   .     S
O240   Zn255   1.948   .     S
O240   Zn254   1.944   .     S
O241   Zn254   1.930   .     S
O242   Zn256   1.942   .     S
O243   Zn255   1.928   .     S
O244   Zn253   1.917   .     S
O245   Zn253   1.934   .     S
O246   Zn256   1.945   .     S
O247   Zn254   1.934   .     S
O248   Zn255   1.947   .     S
O249   Zn256   1.944   .     S
O250   Zn253   1.935   .     S
O251   Zn254   1.948   .     S
O252   Zn255   1.933   .     S
C257   O313    1.261   .     A
C257   O311    1.265   .     A
C257   C263    1.430   .     S
C258   C278    1.456   .     S
C258   C272    1.404   .     A
C258   C284    1.419   .     A
C259   C271    1.393   .     A
C259   C274    1.445   .     S
C259   C272    1.405   .     A
C260   O312    1.294   .     A
C260   C262    1.467   .     S
C260   O314    1.279   .     A
C261   C283    1.426   .     A
C261   C270    1.485   .     S
C261   C273    1.426   .     A
C262   C327    1.356   .     S
C262   N367    1.438   .     S
C264   C267    1.452   .     S
C264   C457    1.344   .     S
C264   H480    1.088   .     S
C265   C266    1.426   .     S
C266   O315    1.274   .     A
C266   O309    1.279   .     A
C267   O310    1.265   .     A
C267   O316    1.275   .     A
C268   C273    1.400   .     A
C268   C281    1.448   .     S
C268   C855    1.386   .     S
C269   O305    1.275   .     A
C269   O307    1.282   .     A
C269   C272    1.459   .     S
C270   O306    1.281   .     A
C270   O308    1.293   .     A
C271   C861    1.407   1_554 S
C271   H865    1.084   1_554 S
C273   C280    1.451   .     S
C274   N295    1.157   .     T
C275   N296    1.158   .     T
C275   C327    1.451   .     S
C276   N297    1.158   .     T
C276   C457    1.450   .     S
C277   C286    1.449   .     S
C277   N298    1.157   .     T
C278   N299    1.158   .     T
C279   H290    1.081   .     S
C279   C844    1.386   1_554 S
C279   C858    1.409   1_554 S
C280   N300    1.157   .     T
C281   N877    1.157   .     S
C282   C283    1.419   .     A
C282   C855    1.409   .     S
C282   C860    1.421   .     S
C283   C287    1.425   .     A
C284   C858    1.421   1_554 S
C284   C861    1.419   1_554 S
C285   C286    1.409   .     A
C285   C860    1.419   .     S
C285   C847    1.407   .     S
C286   C287    1.402   .     A
C287   N302    1.442   .     S
H289   C847    1.084   .     S
H291   N302    1.044   .     S
H292   N302    1.044   .     S
H293   N303    1.045   .     S
H294   N303    1.045   .     S
N301   C857    1.157   1_554 S
O304   Zn320   1.923   .     S
O304   Zn317   1.972   .     S
O304   Zn319   1.948   .     S
O304   Zn318   1.944   .     S
O305   Zn318   1.930   .     S
O306   Zn320   1.942   .     S
O307   Zn319   1.928   .     S
O308   Zn317   1.917   .     S
O309   Zn317   1.934   .     S
O310   Zn320   1.945   .     S
O311   Zn318   1.934   .     S
O312   Zn319   1.947   .     S
O313   Zn320   1.944   .     S
O314   Zn317   1.935   .     S
O315   Zn318   1.948   .     S
O316   Zn319   1.933   .     S
C321   O377    1.261   .     A
C321   O375    1.265   .     A
C321   C327    1.430   .     S
C322   C342    1.456   .     S
C322   C336    1.404   .     A
C322   C348    1.419   .     A
C323   C335    1.393   .     A
C323   C338    1.445   .     S
C323   C336    1.405   .     A
C324   O376    1.294   .     A
C324   C326    1.467   .     S
C324   O378    1.279   .     A
C325   C347    1.426   .     A
C325   C334    1.485   .     S
C325   C337    1.426   .     A
C326   C199    1.356   1_655 S
C326   N239    1.438   1_655 S
C328   C331    1.452   .     S
C328   C521    1.344   .     S
C328   H544    1.088   .     S
C329   C330    1.426   .     S
C330   O379    1.274   .     A
C330   O373    1.279   .     A
C331   O374    1.265   .     A
C331   O380    1.275   .     A
C332   C337    1.400   .     A
C332   C345    1.448   .     S
C332   C919    1.386   .     S
C333   O369    1.275   .     A
C333   O371    1.282   .     A
C333   C336    1.459   .     S
C334   O370    1.281   .     A
C334   O372    1.293   .     A
C335   C925    1.407   1_554 S
C335   H929    1.084   1_554 S
C337   C344    1.451   .     S
C338   N359    1.157   .     T
C339   N360    1.158   .     T
C339   C199    1.451   1_655 S
C340   N361    1.158   .     T
C340   C521    1.450   .     S
C341   C350    1.449   .     S
C341   N362    1.157   .     T
C342   N363    1.158   .     T
C343   H354    1.081   .     S
C343   C908    1.386   1_554 S
C343   C922    1.409   1_554 S
C344   N364    1.157   .     T
C345   N941    1.157   .     S
C346   C347    1.419   .     A
C346   C919    1.409   .     S
C346   C924    1.421   .     S
C347   C351    1.425   .     A
C348   C922    1.421   1_554 S
C348   C925    1.419   1_554 S
C349   C350    1.409   .     A
C349   C924    1.419   .     S
C349   C911    1.407   .     S
C350   C351    1.402   .     A
C351   N366    1.442   .     S
H353   C911    1.084   .     S
H355   N366    1.044   .     S
H356   N366    1.044   .     S
H357   N367    1.045   .     S
H358   N367    1.045   .     S
N365   C921    1.157   1_554 S
O368   Zn384   1.923   .     S
O368   Zn381   1.972   .     S
O368   Zn383   1.948   .     S
O368   Zn382   1.944   .     S
O369   Zn382   1.930   .     S
O370   Zn384   1.942   .     S
O371   Zn383   1.928   .     S
O372   Zn381   1.917   .     S
O373   Zn381   1.934   .     S
O374   Zn384   1.945   .     S
O375   Zn382   1.934   .     S
O376   Zn383   1.947   .     S
O377   Zn384   1.944   .     S
O378   Zn381   1.935   .     S
O379   Zn382   1.948   .     S
O380   Zn383   1.933   .     S
C385   O441    1.261   .     A
C385   O439    1.265   .     A
C385   C391    1.430   .     S
C386   C406    1.456   .     S
C386   C400    1.404   .     A
C386   C412    1.419   .     A
C387   C399    1.393   .     A
C387   C402    1.445   .     S
C387   C400    1.405   .     A
C388   O440    1.294   .     A
C388   C390    1.467   .     S
C388   O442    1.279   .     A
C389   C411    1.426   .     A
C389   C398    1.485   .     S
C389   C401    1.426   .     A
C390   C455    1.356   .     S
C390   N495    1.438   .     S
C391   C518    1.356   1_455 S
C391   C531    1.451   1_455 S
C392   C395    1.452   .     S
C392   C9      1.344   1_565 S
C392   H32     1.088   1_565 S
C393   C394    1.426   .     S
C394   O443    1.274   .     A
C394   O437    1.279   .     A
C395   O438    1.265   .     A
C395   O444    1.275   .     A
C396   C401    1.400   .     A
C396   C409    1.448   .     S
C396   C983    1.386   .     S
C397   O433    1.275   .     A
C397   O435    1.282   .     A
C397   C400    1.459   .     S
C398   O434    1.281   .     A
C398   O436    1.293   .     A
C399   C989    1.407   1_554 S
C399   H993    1.084   1_554 S
C401   C408    1.451   .     S
C402   N423    1.157   .     T
C403   N424    1.158   .     T
C403   C455    1.451   .     S
C404   N425    1.158   .     T
C404   C9      1.450   1_565 S
C405   C414    1.449   .     S
C405   N426    1.157   .     T
C406   N427    1.158   .     T
C407   H418    1.081   .     S
C407   C972    1.386   1_554 S
C407   C986    1.409   1_554 S
C408   N428    1.157   .     T
C409   N1005   1.157   .     S
C410   C411    1.419   .     A
C410   C983    1.409   .     S
C410   C988    1.421   .     S
C411   C415    1.425   .     A
C412   C986    1.421   1_554 S
C412   C989    1.419   1_554 S
C413   C414    1.409   .     A
C413   C988    1.419   .     S
C413   C975    1.407   .     S
C414   C415    1.402   .     A
C415   N430    1.442   .     S
H417   C975    1.084   .     S
H419   N430    1.044   .     S
H420   N430    1.044   .     S
H421   N431    1.045   .     S
H422   N431    1.045   .     S
N429   C985    1.157   1_554 S
N431   C518    1.438   1_455 S
O432   Zn448   1.923   .     S
O432   Zn445   1.972   .     S
O432   Zn447   1.948   .     S
O432   Zn446   1.944   .     S
O433   Zn446   1.930   .     S
O434   Zn448   1.942   .     S
O435   Zn447   1.928   .     S
O436   Zn445   1.917   .     S
O437   Zn445   1.934   .     S
O438   Zn448   1.945   .     S
O439   Zn446   1.934   .     S
O440   Zn447   1.947   .     S
O441   Zn448   1.944   .     S
O442   Zn445   1.935   .     S
O443   Zn446   1.948   .     S
O444   Zn447   1.933   .     S
C449   O505    1.261   .     A
C449   O503    1.265   .     A
C449   C455    1.430   .     S
C450   C470    1.456   .     S
C450   C464    1.404   .     A
C450   C476    1.419   .     A
C451   C463    1.393   .     A
C451   C466    1.445   .     S
C451   C464    1.405   .     A
C452   O504    1.294   .     A
C452   C454    1.467   .     S
C452   O506    1.279   .     A
C453   C475    1.426   .     A
C453   C462    1.485   .     S
C453   C465    1.426   .     A
C454   C519    1.356   .     S
C454   N559    1.438   .     S
C456   C459    1.452   .     S
C456   C73     1.344   1_565 S
C456   H96     1.088   1_565 S
C457   C458    1.426   .     S
C458   O507    1.274   .     A
C458   O501    1.279   .     A
C459   O502    1.265   .     A
C459   O508    1.275   .     A
C460   C465    1.400   .     A
C460   C473    1.448   .     S
C460   C1047   1.386   .     S
C461   O497    1.275   .     A
C461   O499    1.282   .     A
C461   C464    1.459   .     S
C462   O498    1.281   .     A
C462   O500    1.293   .     A
C463   C1053   1.407   1_554 S
C463   H1057   1.084   1_554 S
C465   C472    1.451   .     S
C466   N487    1.157   .     T
C467   N488    1.158   .     T
C467   C519    1.451   .     S
C468   N489    1.158   .     T
C468   C73     1.450   1_565 S
C469   C478    1.449   .     S
C469   N490    1.157   .     T
C470   N491    1.158   .     T
C471   H482    1.081   .     S
C471   C1036   1.386   1_554 S
C471   C1050   1.409   1_554 S
C472   N492    1.157   .     T
C473   N1069   1.157   .     S
C474   C475    1.419   .     A
C474   C1047   1.409   .     S
C474   C1052   1.421   .     S
C475   C479    1.425   .     A
C476   C1050   1.421   1_554 S
C476   C1053   1.419   1_554 S
C477   C478    1.409   .     A
C477   C1052   1.419   .     S
C477   C1039   1.407   .     S
C478   C479    1.402   .     A
C479   N494    1.442   .     S
H481   C1039   1.084   .     S
H483   N494    1.044   .     S
H484   N494    1.044   .     S
H485   N495    1.045   .     S
H486   N495    1.045   .     S
N493   C1049   1.157   1_554 S
O496   Zn512   1.923   .     S
O496   Zn509   1.972   .     S
O496   Zn511   1.948   .     S
O496   Zn510   1.944   .     S
O497   Zn510   1.930   .     S
O498   Zn512   1.942   .     S
O499   Zn511   1.928   .     S
O500   Zn509   1.917   .     S
O501   Zn509   1.934   .     S
O502   Zn512   1.945   .     S
O503   Zn510   1.934   .     S
O504   Zn511   1.947   .     S
O505   Zn512   1.944   .     S
O506   Zn509   1.935   .     S
O507   Zn510   1.948   .     S
O508   Zn511   1.933   .     S
C513   O569    1.261   .     A
C513   O567    1.265   .     A
C513   C519    1.430   .     S
C514   C534    1.456   .     S
C514   C528    1.404   .     A
C514   C540    1.419   .     A
C515   C527    1.393   .     A
C515   C530    1.445   .     S
C515   C528    1.405   .     A
C516   O568    1.294   .     A
C516   C518    1.467   .     S
C516   O570    1.279   .     A
C517   C539    1.426   .     A
C517   C526    1.485   .     S
C517   C529    1.426   .     A
C518   C391    1.356   1_655 S
C518   N431    1.438   1_655 S
C520   C523    1.452   .     S
C520   C137    1.344   1_565 S
C520   H160    1.088   1_565 S
C521   C522    1.426   .     S
C522   O571    1.274   .     A
C522   O565    1.279   .     A
C523   O566    1.265   .     A
C523   O572    1.275   .     A
C524   C529    1.400   .     A
C524   C537    1.448   .     S
C524   C1111   1.386   .     S
C525   O561    1.275   .     A
C525   O563    1.282   .     A
C525   C528    1.459   .     S
C526   O562    1.281   .     A
C526   O564    1.293   .     A
C527   C1117   1.407   1_554 S
C527   H1121   1.084   1_554 S
C529   C536    1.451   .     S
C530   N551    1.157   .     T
C531   N552    1.158   .     T
C531   C391    1.451   1_655 S
C532   N553    1.158   .     T
C532   C137    1.450   1_565 S
C533   C542    1.449   .     S
C533   N554    1.157   .     T
C534   N555    1.158   .     T
C535   H546    1.081   .     S
C535   C1100   1.386   1_554 S
C535   C1114   1.409   1_554 S
C536   N556    1.157   .     T
C537   N1133   1.157   .     S
C538   C539    1.419   .     A
C538   C1111   1.409   .     S
C538   C1116   1.421   .     S
C539   C543    1.425   .     A
C540   C1114   1.421   1_554 S
C540   C1117   1.419   1_554 S
C541   C542    1.409   .     A
C541   C1116   1.419   .     S
C541   C1103   1.407   .     S
C542   C543    1.402   .     A
C543   N558    1.442   .     S
H545   C1103   1.084   .     S
H547   N558    1.044   .     S
H548   N558    1.044   .     S
H549   N559    1.045   .     S
H550   N559    1.045   .     S
N557   C1113   1.157   1_554 S
O560   Zn576   1.923   .     S
O560   Zn573   1.972   .     S
O560   Zn575   1.948   .     S
O560   Zn574   1.944   .     S
O561   Zn574   1.930   .     S
O562   Zn576   1.942   .     S
O563   Zn575   1.928   .     S
O564   Zn573   1.917   .     S
O565   Zn573   1.934   .     S
O566   Zn576   1.945   .     S
O567   Zn574   1.934   .     S
O568   Zn575   1.947   .     S
O569   Zn576   1.944   .     S
O570   Zn573   1.935   .     S
O571   Zn574   1.948   .     S
O572   Zn575   1.933   .     S
C577   O633    1.261   .     A
C577   O631    1.265   .     A
C577   C583    1.430   .     S
C578   C598    1.456   .     S
C578   C592    1.404   .     A
C578   C604    1.419   .     A
C579   C591    1.393   .     A
C579   C594    1.445   .     S
C579   C592    1.405   .     A
C580   O632    1.294   .     A
C580   C582    1.467   .     S
C580   O634    1.279   .     A
C581   C603    1.426   .     A
C581   C590    1.485   .     S
C581   C593    1.426   .     A
C582   C647    1.356   .     S
C582   N687    1.438   .     S
C583   C710    1.356   1_455 S
C583   C723    1.451   1_455 S
C584   C587    1.452   .     S
C584   C777    1.344   .     S
C584   H800    1.088   .     S
C585   C586    1.426   .     S
C585   C968    1.344   1_545 S
C585   C980    1.450   1_545 S
C586   O635    1.274   .     A
C586   O629    1.279   .     A
C587   O630    1.265   .     A
C587   O636    1.275   .     A
C588   C593    1.400   .     A
C588   C601    1.448   .     S
C588   C23     1.386   1_556 S
C589   O625    1.275   .     A
C589   O627    1.282   .     A
C589   C592    1.459   .     S
C590   O626    1.281   .     A
C590   O628    1.293   .     A
C593   C600    1.451   .     S
C594   N615    1.157   .     T
C595   N616    1.158   .     T
C595   C647    1.451   .     S
C596   N617    1.158   .     T
C596   C777    1.450   .     S
C597   C606    1.449   .     S
C597   N618    1.157   .     T
C598   N619    1.158   .     T
C599   H610    1.081   .     S
C600   N620    1.157   .     T
C601   N45     1.157   1_556 S
C602   C603    1.419   .     A
C602   C23     1.409   1_556 S
C602   C28     1.421   1_556 S
C603   C607    1.425   .     A
C605   C606    1.409   .     A
C605   C28     1.419   1_556 S
C605   C15     1.407   1_556 S
C606   C607    1.402   .     A
C607   N622    1.442   .     S
H608   C968    1.088   1_545 S
H609   C15     1.084   1_556 S
H611   N622    1.044   .     S
H612   N622    1.044   .     S
H613   N623    1.045   .     S
H614   N623    1.045   .     S
N623   C710    1.438   1_455 S
O624   Zn640   1.923   .     S
O624   Zn637   1.972   .     S
O624   Zn639   1.948   .     S
O624   Zn638   1.944   .     S
O625   Zn638   1.930   .     S
O626   Zn640   1.942   .     S
O627   Zn639   1.928   .     S
O628   Zn637   1.917   .     S
O629   Zn637   1.934   .     S
O630   Zn640   1.945   .     S
O631   Zn638   1.934   .     S
O632   Zn639   1.947   .     S
O633   Zn640   1.944   .     S
O634   Zn637   1.935   .     S
O635   Zn638   1.948   .     S
O636   Zn639   1.933   .     S
C641   O697    1.261   .     A
C641   O695    1.265   .     A
C641   C647    1.430   .     S
C642   C662    1.456   .     S
C642   C656    1.404   .     A
C642   C668    1.419   .     A
C643   C655    1.393   .     A
C643   C658    1.445   .     S
C643   C656    1.405   .     A
C644   O696    1.294   .     A
C644   C646    1.467   .     S
C644   O698    1.279   .     A
C645   C667    1.426   .     A
C645   C654    1.485   .     S
C645   C657    1.426   .     A
C646   C711    1.356   .     S
C646   N751    1.438   .     S
C648   C651    1.452   .     S
C648   C841    1.344   .     S
C648   H864    1.088   .     S
C649   C650    1.426   .     S
C649   C1032   1.344   1_545 S
C649   C1044   1.450   1_545 S
C650   O699    1.274   .     A
C650   O693    1.279   .     A
C651   O694    1.265   .     A
C651   O700    1.275   .     A
C652   C657    1.400   .     A
C652   C665    1.448   .     S
C652   C87     1.386   1_556 S
C653   O689    1.275   .     A
C653   O691    1.282   .     A
C653   C656    1.459   .     S
C654   O690    1.281   .     A
C654   O692    1.293   .     A
C657   C664    1.451   .     S
C658   N679    1.157   .     T
C659   N680    1.158   .     T
C659   C711    1.451   .     S
C660   N681    1.158   .     T
C660   C841    1.450   .     S
C661   C670    1.449   .     S
C661   N682    1.157   .     T
C662   N683    1.158   .     T
C663   H674    1.081   .     S
C664   N684    1.157   .     T
C665   N109    1.157   1_556 S
C666   C667    1.419   .     A
C666   C87     1.409   1_556 S
C666   C92     1.421   1_556 S
C667   C671    1.425   .     A
C669   C670    1.409   .     A
C669   C92     1.419   1_556 S
C669   C79     1.407   1_556 S
C670   C671    1.402   .     A
C671   N686    1.442   .     S
H672   C1032   1.088   1_545 S
H673   C79     1.084   1_556 S
H675   N686    1.044   .     S
H676   N686    1.044   .     S
H677   N687    1.045   .     S
H678   N687    1.045   .     S
O688   Zn704   1.923   .     S
O688   Zn701   1.972   .     S
O688   Zn703   1.948   .     S
O688   Zn702   1.944   .     S
O689   Zn702   1.930   .     S
O690   Zn704   1.942   .     S
O691   Zn703   1.928   .     S
O692   Zn701   1.917   .     S
O693   Zn701   1.934   .     S
O694   Zn704   1.945   .     S
O695   Zn702   1.934   .     S
O696   Zn703   1.947   .     S
O697   Zn704   1.944   .     S
O698   Zn701   1.935   .     S
O699   Zn702   1.948   .     S
O700   Zn703   1.933   .     S
C705   O761    1.261   .     A
C705   O759    1.265   .     A
C705   C711    1.430   .     S
C706   C726    1.456   .     S
C706   C720    1.404   .     A
C706   C732    1.419   .     A
C707   C719    1.393   .     A
C707   C722    1.445   .     S
C707   C720    1.405   .     A
C708   O760    1.294   .     A
C708   C710    1.467   .     S
C708   O762    1.279   .     A
C709   C731    1.426   .     A
C709   C718    1.485   .     S
C709   C721    1.426   .     A
C710   C583    1.356   1_655 S
C710   N623    1.438   1_655 S
C712   C715    1.452   .     S
C712   C905    1.344   .     S
C712   H928    1.088   .     S
C713   C714    1.426   .     S
C713   C1096   1.344   1_545 S
C713   C1108   1.450   1_545 S
C714   O763    1.274   .     A
C714   O757    1.279   .     A
C715   O758    1.265   .     A
C715   O764    1.275   .     A
C716   C721    1.400   .     A
C716   C729    1.448   .     S
C716   C151    1.386   1_556 S
C717   O753    1.275   .     A
C717   O755    1.282   .     A
C717   C720    1.459   .     S
C718   O754    1.281   .     A
C718   O756    1.293   .     A
C721   C728    1.451   .     S
C722   N743    1.157   .     T
C723   N744    1.158   .     T
C723   C583    1.451   1_655 S
C724   N745    1.158   .     T
C724   C905    1.450   .     S
C725   C734    1.449   .     S
C725   N746    1.157   .     T
C726   N747    1.158   .     T
C727   H738    1.081   .     S
C728   N748    1.157   .     T
C729   N173    1.157   1_556 S
C730   C731    1.419   .     A
C730   C151    1.409   1_556 S
C730   C156    1.421   1_556 S
C731   C735    1.425   .     A
C733   C734    1.409   .     A
C733   C156    1.419   1_556 S
C733   C143    1.407   1_556 S
C734   C735    1.402   .     A
C735   N750    1.442   .     S
H736   C1096   1.088   1_545 S
H737   C143    1.084   1_556 S
H739   N750    1.044   .     S
H740   N750    1.044   .     S
H741   N751    1.045   .     S
H742   N751    1.045   .     S
O752   Zn768   1.923   .     S
O752   Zn765   1.972   .     S
O752   Zn767   1.948   .     S
O752   Zn766   1.944   .     S
O753   Zn766   1.930   .     S
O754   Zn768   1.942   .     S
O755   Zn767   1.928   .     S
O756   Zn765   1.917   .     S
O757   Zn765   1.934   .     S
O758   Zn768   1.945   .     S
O759   Zn766   1.934   .     S
O760   Zn767   1.947   .     S
O761   Zn768   1.944   .     S
O762   Zn765   1.935   .     S
O763   Zn766   1.948   .     S
O764   Zn767   1.933   .     S
C769   O825    1.261   .     A
C769   O823    1.265   .     A
C769   C775    1.430   .     S
C770   C790    1.456   .     S
C770   C784    1.404   .     A
C770   C796    1.419   .     A
C771   C783    1.393   .     A
C771   C786    1.445   .     S
C771   C784    1.405   .     A
C772   O824    1.294   .     A
C772   C774    1.467   .     S
C772   O826    1.279   .     A
C773   C795    1.426   .     A
C773   C782    1.485   .     S
C773   C785    1.426   .     A
C774   C839    1.356   .     S
C774   N879    1.438   .     S
C775   C902    1.356   1_455 S
C775   C915    1.451   1_455 S
C776   C779    1.452   .     S
C776   C969    1.344   .     S
C776   H992    1.088   .     S
C777   C778    1.426   .     S
C778   O827    1.274   .     A
C778   O821    1.279   .     A
C779   O822    1.265   .     A
C779   O828    1.275   .     A
C780   C785    1.400   .     A
C780   C793    1.448   .     S
C780   C215    1.386   1_556 S
C781   O817    1.275   .     A
C781   O819    1.282   .     A
C781   C784    1.459   .     S
C782   O818    1.281   .     A
C782   O820    1.293   .     A
C785   C792    1.451   .     S
C786   N807    1.157   .     T
C787   N808    1.158   .     T
C787   C839    1.451   .     S
C788   N809    1.158   .     T
C788   C969    1.450   .     S
C789   C798    1.449   .     S
C789   N810    1.157   .     T
C790   N811    1.158   .     T
C791   H802    1.081   .     S
C792   N812    1.157   .     T
C793   N237    1.157   1_556 S
C794   C795    1.419   .     A
C794   C215    1.409   1_556 S
C794   C220    1.421   1_556 S
C795   C799    1.425   .     A
C797   C798    1.409   .     A
C797   C220    1.419   1_556 S
C797   C207    1.407   1_556 S
C798   C799    1.402   .     A
C799   N814    1.442   .     S
H801   C207    1.084   1_556 S
H803   N814    1.044   .     S
H804   N814    1.044   .     S
H805   N815    1.045   .     S
H806   N815    1.045   .     S
N815   C902    1.438   1_455 S
O816   Zn832   1.923   .     S
O816   Zn829   1.972   .     S
O816   Zn831   1.948   .     S
O816   Zn830   1.944   .     S
O817   Zn830   1.930   .     S
O818   Zn832   1.942   .     S
O819   Zn831   1.928   .     S
O820   Zn829   1.917   .     S
O821   Zn829   1.934   .     S
O822   Zn832   1.945   .     S
O823   Zn830   1.934   .     S
O824   Zn831   1.947   .     S
O825   Zn832   1.944   .     S
O826   Zn829   1.935   .     S
O827   Zn830   1.948   .     S
O828   Zn831   1.933   .     S
C833   O889    1.261   .     A
C833   O887    1.265   .     A
C833   C839    1.430   .     S
C834   C854    1.456   .     S
C834   C848    1.404   .     A
C834   C860    1.419   .     A
C835   C847    1.393   .     A
C835   C850    1.445   .     S
C835   C848    1.405   .     A
C836   O888    1.294   .     A
C836   C838    1.467   .     S
C836   O890    1.279   .     A
C837   C859    1.426   .     A
C837   C846    1.485   .     S
C837   C849    1.426   .     A
C838   C903    1.356   .     S
C838   N943    1.438   .     S
C840   C843    1.452   .     S
C840   C1033   1.344   .     S
C840   H1056   1.088   .     S
C841   C842    1.426   .     S
C842   O891    1.274   .     A
C842   O885    1.279   .     A
C843   O886    1.265   .     A
C843   O892    1.275   .     A
C844   C849    1.400   .     A
C844   C857    1.448   .     S
C844   C279    1.386   1_556 S
C845   O881    1.275   .     A
C845   O883    1.282   .     A
C845   C848    1.459   .     S
C846   O882    1.281   .     A
C846   O884    1.293   .     A
C849   C856    1.451   .     S
C850   N871    1.157   .     T
C851   N872    1.158   .     T
C851   C903    1.451   .     S
C852   N873    1.158   .     T
C852   C1033   1.450   .     S
C853   C862    1.449   .     S
C853   N874    1.157   .     T
C854   N875    1.158   .     T
C855   H866    1.081   .     S
C856   N876    1.157   .     T
C857   N301    1.157   1_556 S
C858   C859    1.419   .     A
C858   C279    1.409   1_556 S
C858   C284    1.421   1_556 S
C859   C863    1.425   .     A
C861   C862    1.409   .     A
C861   C284    1.419   1_556 S
C861   C271    1.407   1_556 S
C862   C863    1.402   .     A
C863   N878    1.442   .     S
H865   C271    1.084   1_556 S
H867   N878    1.044   .     S
H868   N878    1.044   .     S
H869   N879    1.045   .     S
H870   N879    1.045   .     S
O880   Zn896   1.923   .     S
O880   Zn893   1.972   .     S
O880   Zn895   1.948   .     S
O880   Zn894   1.944   .     S
O881   Zn894   1.930   .     S
O882   Zn896   1.942   .     S
O883   Zn895   1.928   .     S
O884   Zn893   1.917   .     S
O885   Zn893   1.934   .     S
O886   Zn896   1.945   .     S
O887   Zn894   1.934   .     S
O888   Zn895   1.947   .     S
O889   Zn896   1.944   .     S
O890   Zn893   1.935   .     S
O891   Zn894   1.948   .     S
O892   Zn895   1.933   .     S
C897   O953    1.261   .     A
C897   O951    1.265   .     A
C897   C903    1.430   .     S
C898   C918    1.456   .     S
C898   C912    1.404   .     A
C898   C924    1.419   .     A
C899   C911    1.393   .     A
C899   C914    1.445   .     S
C899   C912    1.405   .     A
C900   O952    1.294   .     A
C900   C902    1.467   .     S
C900   O954    1.279   .     A
C901   C923    1.426   .     A
C901   C910    1.485   .     S
C901   C913    1.426   .     A
C902   C775    1.356   1_655 S
C902   N815    1.438   1_655 S
C904   C907    1.452   .     S
C904   C1097   1.344   .     S
C904   H1120   1.088   .     S
C905   C906    1.426   .     S
C906   O955    1.274   .     A
C906   O949    1.279   .     A
C907   O950    1.265   .     A
C907   O956    1.275   .     A
C908   C913    1.400   .     A
C908   C921    1.448   .     S
C908   C343    1.386   1_556 S
C909   O945    1.275   .     A
C909   O947    1.282   .     A
C909   C912    1.459   .     S
C910   O946    1.281   .     A
C910   O948    1.293   .     A
C913   C920    1.451   .     S
C914   N935    1.157   .     T
C915   N936    1.158   .     T
C915   C775    1.451   1_655 S
C916   N937    1.158   .     T
C916   C1097   1.450   .     S
C917   C926    1.449   .     S
C917   N938    1.157   .     T
C918   N939    1.158   .     T
C919   H930    1.081   .     S
C920   N940    1.157   .     T
C921   N365    1.157   1_556 S
C922   C923    1.419   .     A
C922   C343    1.409   1_556 S
C922   C348    1.421   1_556 S
C923   C927    1.425   .     A
C925   C926    1.409   .     A
C925   C348    1.419   1_556 S
C925   C335    1.407   1_556 S
C926   C927    1.402   .     A
C927   N942    1.442   .     S
H929   C335    1.084   1_556 S
H931   N942    1.044   .     S
H932   N942    1.044   .     S
H933   N943    1.045   .     S
H934   N943    1.045   .     S
O944   Zn960   1.923   .     S
O944   Zn957   1.972   .     S
O944   Zn959   1.948   .     S
O944   Zn958   1.944   .     S
O945   Zn958   1.930   .     S
O946   Zn960   1.942   .     S
O947   Zn959   1.928   .     S
O948   Zn957   1.917   .     S
O949   Zn957   1.934   .     S
O950   Zn960   1.945   .     S
O951   Zn958   1.934   .     S
O952   Zn959   1.947   .     S
O953   Zn960   1.944   .     S
O954   Zn957   1.935   .     S
O955   Zn958   1.948   .     S
O956   Zn959   1.933   .     S
C961   O1017   1.261   .     A
C961   O1015   1.265   .     A
C961   C967    1.430   .     S
C962   C982    1.456   .     S
C962   C976    1.404   .     A
C962   C988    1.419   .     A
C963   C975    1.393   .     A
C963   C978    1.445   .     S
C963   C976    1.405   .     A
C964   O1016   1.294   .     A
C964   C966    1.467   .     S
C964   O1018   1.279   .     A
C965   C987    1.426   .     A
C965   C974    1.485   .     S
C965   C977    1.426   .     A
C966   C1031   1.356   .     S
C966   N1071   1.438   .     S
C967   C1094   1.356   1_455 S
C967   C1107   1.451   1_455 S
C968   C971    1.452   .     S
C968   C585    1.344   1_565 S
C968   H608    1.088   1_565 S
C969   C970    1.426   .     S
C970   O1019   1.274   .     A
C970   O1013   1.279   .     A
C971   O1014   1.265   .     A
C971   O1020   1.275   .     A
C972   C977    1.400   .     A
C972   C985    1.448   .     S
C972   C407    1.386   1_556 S
C973   O1009   1.275   .     A
C973   O1011   1.282   .     A
C973   C976    1.459   .     S
C974   O1010   1.281   .     A
C974   O1012   1.293   .     A
C977   C984    1.451   .     S
C978   N999    1.157   .     T
C979   N1000   1.158   .     T
C979   C1031   1.451   .     S
C980   N1001   1.158   .     T
C980   C585    1.450   1_565 S
C981   C990    1.449   .     S
C981   N1002   1.157   .     T
C982   N1003   1.158   .     T
C983   H994    1.081   .     S
C984   N1004   1.157   .     T
C985   N429    1.157   1_556 S
C986   C987    1.419   .     A
C986   C407    1.409   1_556 S
C986   C412    1.421   1_556 S
C987   C991    1.425   .     A
C989   C990    1.409   .     A
C989   C412    1.419   1_556 S
C989   C399    1.407   1_556 S
C990   C991    1.402   .     A
C991   N1006   1.442   .     S
H993   C399    1.084   1_556 S
H995   N1006   1.044   .     S
H996   N1006   1.044   .     S
H997   N1007   1.045   .     S
H998   N1007   1.045   .     S
N1007  C1094   1.438   1_455 S
O1008  Zn1024  1.923   .     S
O1008  Zn1021  1.972   .     S
O1008  Zn1023  1.948   .     S
O1008  Zn1022  1.944   .     S
O1009  Zn1022  1.930   .     S
O1010  Zn1024  1.942   .     S
O1011  Zn1023  1.928   .     S
O1012  Zn1021  1.917   .     S
O1013  Zn1021  1.934   .     S
O1014  Zn1024  1.945   .     S
O1015  Zn1022  1.934   .     S
O1016  Zn1023  1.947   .     S
O1017  Zn1024  1.944   .     S
O1018  Zn1021  1.935   .     S
O1019  Zn1022  1.948   .     S
O1020  Zn1023  1.933   .     S
C1025  O1081   1.261   .     A
C1025  O1079   1.265   .     A
C1025  C1031   1.430   .     S
C1026  C1046   1.456   .     S
C1026  C1040   1.404   .     A
C1026  C1052   1.419   .     A
C1027  C1039   1.393   .     A
C1027  C1042   1.445   .     S
C1027  C1040   1.405   .     A
C1028  O1080   1.294   .     A
C1028  C1030   1.467   .     S
C1028  O1082   1.279   .     A
C1029  C1051   1.426   .     A
C1029  C1038   1.485   .     S
C1029  C1041   1.426   .     A
C1030  C1095   1.356   .     S
C1030  N1135   1.438   .     S
C1032  C1035   1.452   .     S
C1032  C649    1.344   1_565 S
C1032  H672    1.088   1_565 S
C1033  C1034   1.426   .     S
C1034  O1083   1.274   .     A
C1034  O1077   1.279   .     A
C1035  O1078   1.265   .     A
C1035  O1084   1.275   .     A
C1036  C1041   1.400   .     A
C1036  C1049   1.448   .     S
C1036  C471    1.386   1_556 S
C1037  O1073   1.275   .     A
C1037  O1075   1.282   .     A
C1037  C1040   1.459   .     S
C1038  O1074   1.281   .     A
C1038  O1076   1.293   .     A
C1041  C1048   1.451   .     S
C1042  N1063   1.157   .     T
C1043  N1064   1.158   .     T
C1043  C1095   1.451   .     S
C1044  N1065   1.158   .     T
C1044  C649    1.450   1_565 S
C1045  C1054   1.449   .     S
C1045  N1066   1.157   .     T
C1046  N1067   1.158   .     T
C1047  H1058   1.081   .     S
C1048  N1068   1.157   .     T
C1049  N493    1.157   1_556 S
C1050  C1051   1.419   .     A
C1050  C471    1.409   1_556 S
C1050  C476    1.421   1_556 S
C1051  C1055   1.425   .     A
C1053  C1054   1.409   .     A
C1053  C476    1.419   1_556 S
C1053  C463    1.407   1_556 S
C1054  C1055   1.402   .     A
C1055  N1070   1.442   .     S
H1057  C463    1.084   1_556 S
H1059  N1070   1.044   .     S
H1060  N1070   1.044   .     S
H1061  N1071   1.045   .     S
H1062  N1071   1.045   .     S
O1072  Zn1088  1.923   .     S
O1072  Zn1085  1.972   .     S
O1072  Zn1087  1.948   .     S
O1072  Zn1086  1.944   .     S
O1073  Zn1086  1.930   .     S
O1074  Zn1088  1.942   .     S
O1075  Zn1087  1.928   .     S
O1076  Zn1085  1.917   .     S
O1077  Zn1085  1.934   .     S
O1078  Zn1088  1.945   .     S
O1079  Zn1086  1.934   .     S
O1080  Zn1087  1.947   .     S
O1081  Zn1088  1.944   .     S
O1082  Zn1085  1.935   .     S
O1083  Zn1086  1.948   .     S
O1084  Zn1087  1.933   .     S
C1089  O1145   1.261   .     A
C1089  O1143   1.265   .     A
C1089  C1095   1.430   .     S
C1090  C1110   1.456   .     S
C1090  C1104   1.404   .     A
C1090  C1116   1.419   .     A
C1091  C1103   1.393   .     A
C1091  C1106   1.445   .     S
C1091  C1104   1.405   .     A
C1092  O1144   1.294   .     A
C1092  C1094   1.467   .     S
C1092  O1146   1.279   .     A
C1093  C1115   1.426   .     A
C1093  C1102   1.485   .     S
C1093  C1105   1.426   .     A
C1094  C967    1.356   1_655 S
C1094  N1007   1.438   1_655 S
C1096  C1099   1.452   .     S
C1096  C713    1.344   1_565 S
C1096  H736    1.088   1_565 S
C1097  C1098   1.426   .     S
C1098  O1147   1.274   .     A
C1098  O1141   1.279   .     A
C1099  O1142   1.265   .     A
C1099  O1148   1.275   .     A
C1100  C1105   1.400   .     A
C1100  C1113   1.448   .     S
C1100  C535    1.386   1_556 S
C1101  O1137   1.275   .     A
C1101  O1139   1.282   .     A
C1101  C1104   1.459   .     S
C1102  O1138   1.281   .     A
C1102  O1140   1.293   .     A
C1105  C1112   1.451   .     S
C1106  N1127   1.157   .     T
C1107  N1128   1.158   .     T
C1107  C967    1.451   1_655 S
C1108  N1129   1.158   .     T
C1108  C713    1.450   1_565 S
C1109  C1118   1.449   .     S
C1109  N1130   1.157   .     T
C1110  N1131   1.158   .     T
C1111  H1122   1.081   .     S
C1112  N1132   1.157   .     T
C1113  N557    1.157   1_556 S
C1114  C1115   1.419   .     A
C1114  C535    1.409   1_556 S
C1114  C540    1.421   1_556 S
C1115  C1119   1.425   .     A
C1117  C1118   1.409   .     A
C1117  C540    1.419   1_556 S
C1117  C527    1.407   1_556 S
C1118  C1119   1.402   .     A
C1119  N1134   1.442   .     S
H1121  C527    1.084   1_556 S
H1123  N1134   1.044   .     S
H1124  N1134   1.044   .     S
H1125  N1135   1.045   .     S
H1126  N1135   1.045   .     S
O1136  Zn1152  1.923   .     S
O1136  Zn1149  1.972   .     S
O1136  Zn1151  1.948   .     S
O1136  Zn1150  1.944   .     S
O1137  Zn1150  1.930   .     S
O1138  Zn1152  1.942   .     S
O1139  Zn1151  1.928   .     S
O1140  Zn1149  1.917   .     S
O1141  Zn1149  1.934   .     S
O1142  Zn1152  1.945   .     S
O1143  Zn1150  1.934   .     S
O1144  Zn1151  1.947   .     S
O1145  Zn1152  1.944   .     S
O1146  Zn1149  1.935   .     S
O1147  Zn1150  1.948   .     S
O1148  Zn1151  1.933   .     S
