data_str_m1_o10_o18_pcu_sym.5
_audit_creation_date              2020-01-03
_audit_creation_method            'Materials Studio'
_symmetry_space_group_name_H-M    'P1'
_symmetry_Int_Tables_number       1
_symmetry_cell_setting            triclinic
loop_
_symmetry_equiv_pos_as_xyz
  x,y,z
_cell_length_a                    32.7322
_cell_length_b                    32.4694
_cell_length_c                    35.6087
_cell_angle_alpha                 97.9807
_cell_angle_beta                  72.8896
_cell_angle_gamma                 98.1545
loop_
_atom_site_label
_atom_site_type_symbol
_atom_site_fract_x
_atom_site_fract_y
_atom_site_fract_z
_atom_site_U_iso_or_equiv
_atom_site_adp_type
_atom_site_occupancy
C1     C     0.05298   0.16072   0.25810   0.00000  Uiso   1.00
C2     C     0.20266   0.13463   0.45806   0.00000  Uiso   1.00
C3     C     0.22900   0.12020   0.47678   0.00000  Uiso   1.00
C4     C     0.28088   0.17341   0.24163   0.00000  Uiso   1.00
C5     C     0.21872   0.12542   0.01840   0.00000  Uiso   1.00
C6     C     0.17930   0.14124   0.04082   0.00000  Uiso   1.00
C7     C     0.24705   0.11572   0.03832   0.00000  Uiso   1.00
C8     C     0.23708   0.12176   0.07931   0.00000  Uiso   1.00
C9     C     0.16984   0.14624   0.08241   0.00000  Uiso   1.00
C10    C     0.32629   0.17439   0.23871   0.00000  Uiso   1.00
C11    C     0.00756   0.15743   0.26432   0.00000  Uiso   1.00
C12    C     0.08606   0.19944   0.42175   0.00000  Uiso   1.00
C13    C     0.18086   0.32221   0.23826   0.00000  Uiso   1.00
C14    C     0.15167   0.01222   0.26249   0.00000  Uiso   1.00
C15    C     0.15589   0.05620   0.25908   0.00000  Uiso   1.00
C16    C     0.17685   0.27769   0.24141   0.00000  Uiso   1.00
C17    C     0.18855   0.14516   0.14402   0.00000  Uiso   1.00
C18    C     0.14385   0.18654   0.35648   0.00000  Uiso   1.00
C19    C     0.12783   0.18886   0.40014   0.00000  Uiso   1.00
C20    C     0.19837   0.13669   0.10126   0.00000  Uiso   1.00
C21    C     0.07223   0.19795   0.46309   0.00000  Uiso   1.00
C22    C     0.15415   0.17616   0.41990   0.00000  Uiso   1.00
C23    C     0.13952   0.17034   0.46023   0.00000  Uiso   1.00
C24    C     0.09857   0.18268   0.48214   0.00000  Uiso   1.00
C25    C     0.16501   0.15323   0.47944   0.00000  Uiso   1.00
C26    C     0.15145   0.15322   0.02113   0.00000  Uiso   1.00
C27    C     0.11024   0.16491   0.04180   0.00000  Uiso   1.00
C28    C     0.08446   0.17891   0.02272   0.00000  Uiso   1.00
H29    H     0.05321   0.18670   0.04071   0.00000  Uiso   1.00
H30    H     0.21152   0.12943   0.42634   0.00000  Uiso   1.00
H31    H     0.02209   0.09750   0.31727   0.00000  Uiso   1.00
H32    H     0.30135   0.03847   0.44741   0.00000  Uiso   1.00
H33    H     0.27762   0.10444   0.02265   0.00000  Uiso   1.00
H34    H     0.01585   0.18924   0.21421   0.00000  Uiso   1.00
H35    H     0.20780   0.00277   0.21602   0.00000  Uiso   1.00
H36    H     0.12434   0.33245   0.28482   0.00000  Uiso   1.00
H37    H     0.14170   0.15977   0.10122   0.00000  Uiso   1.00
H38    H     0.25968   0.11491   0.09396   0.00000  Uiso   1.00
H39    H     0.18651   0.17114   0.40280   0.00000  Uiso   1.00
H40    H     0.09603   0.16236   0.07286   0.00000  Uiso   1.00
I41    I     0.01105   0.21878   0.49675   0.00000  Uiso   1.00
I42    I     0.04131   0.21454   0.39319   0.00000  Uiso   1.00
O43    O     0.16667   0.16667   0.25000   0.00000  Uiso   1.00
O44    O     0.15693   0.12393   0.16625   0.00000  Uiso   1.00
O45    O     0.12687   0.20646   0.33749   0.00000  Uiso   1.00
O46    O     0.21088   0.17493   0.15877   0.00000  Uiso   1.00
O47    O     0.17198   0.16135   0.33749   0.00000  Uiso   1.00
O48    O     0.28055   0.16487   0.33453   0.00000  Uiso   1.00
O49    O     0.28351   0.09519   0.29764   0.00000  Uiso   1.00
O50    O     0.00939   0.12274   0.33260   0.00000  Uiso   1.00
O51    O     0.27352   0.08786   0.40443   0.00000  Uiso   1.00
O52    O     0.31476   0.12252   0.44944   0.00000  Uiso   1.00
O53    O     0.27389   0.04908   0.46330   0.00000  Uiso   1.00
O54    O     0.17849   0.08101   0.27820   0.00000  Uiso   1.00
O55    O     0.14581   0.26136   0.26767   0.00000  Uiso   1.00
O56    O     0.07452   0.13251   0.23607   0.00000  Uiso   1.00
O57    O     0.26785   0.19179   0.21805   0.00000  Uiso   1.00
O58    O     0.06990   0.18960   0.27820   0.00000  Uiso   1.00
O59    O     0.25440   0.15277   0.26767   0.00000  Uiso   1.00
O60    O     0.13800   0.06903   0.23607   0.00000  Uiso   1.00
O61    O     0.20437   0.25527   0.21805   0.00000  Uiso   1.00
S62    S     0.30992   0.13457   0.30799   0.00000  Uiso   1.00
S63    S     0.27434   0.09531   0.44684   0.00000  Uiso   1.00
Zn64   Zn    0.19244   0.14090   0.28277   0.00000  Uiso   1.00
Zn65   Zn    0.13459   0.12378   0.22257   0.00000  Uiso   1.00
Zn66   Zn    0.21166   0.19664   0.21188   0.00000  Uiso   1.00
Zn67   Zn    0.12798   0.20535   0.28277   0.00000  Uiso   1.00
C68    C     0.38631   0.16072   0.25810   0.00000  Uiso   1.00
C69    C     0.53600   0.13463   0.45806   0.00000  Uiso   1.00
C70    C     0.56233   0.12020   0.47678   0.00000  Uiso   1.00
C71    C     0.61421   0.17341   0.24163   0.00000  Uiso   1.00
C72    C     0.55206   0.12542   0.01840   0.00000  Uiso   1.00
C73    C     0.51264   0.14124   0.04082   0.00000  Uiso   1.00
C74    C     0.58038   0.11572   0.03832   0.00000  Uiso   1.00
C75    C     0.57042   0.12176   0.07931   0.00000  Uiso   1.00
C76    C     0.50318   0.14624   0.08241   0.00000  Uiso   1.00
C77    C     0.65963   0.17439   0.23871   0.00000  Uiso   1.00
C78    C     0.34090   0.15743   0.26432   0.00000  Uiso   1.00
C79    C     0.41939   0.19944   0.42175   0.00000  Uiso   1.00
C80    C     0.51419   0.32221   0.23826   0.00000  Uiso   1.00
C81    C     0.48500   0.01222   0.26249   0.00000  Uiso   1.00
C82    C     0.48922   0.05620   0.25908   0.00000  Uiso   1.00
C83    C     0.51018   0.27769   0.24141   0.00000  Uiso   1.00
C84    C     0.52189   0.14516   0.14402   0.00000  Uiso   1.00
C85    C     0.47719   0.18654   0.35648   0.00000  Uiso   1.00
C86    C     0.46116   0.18886   0.40014   0.00000  Uiso   1.00
C87    C     0.53170   0.13669   0.10126   0.00000  Uiso   1.00
C88    C     0.40556   0.19795   0.46309   0.00000  Uiso   1.00
C89    C     0.48748   0.17616   0.41990   0.00000  Uiso   1.00
C90    C     0.47285   0.17034   0.46023   0.00000  Uiso   1.00
C91    C     0.43191   0.18268   0.48214   0.00000  Uiso   1.00
C92    C     0.49834   0.15323   0.47944   0.00000  Uiso   1.00
C93    C     0.48478   0.15322   0.02113   0.00000  Uiso   1.00
C94    C     0.44358   0.16491   0.04180   0.00000  Uiso   1.00
C95    C     0.41779   0.17891   0.02272   0.00000  Uiso   1.00
H96    H     0.38654   0.18670   0.04071   0.00000  Uiso   1.00
H97    H     0.54486   0.12943   0.42634   0.00000  Uiso   1.00
H98    H     0.35542   0.09750   0.31727   0.00000  Uiso   1.00
H99    H     0.63468   0.03847   0.44741   0.00000  Uiso   1.00
H100   H     0.61096   0.10444   0.02265   0.00000  Uiso   1.00
H101   H     0.34918   0.18924   0.21421   0.00000  Uiso   1.00
H102   H     0.54113   0.00277   0.21602   0.00000  Uiso   1.00
H103   H     0.45768   0.33245   0.28482   0.00000  Uiso   1.00
H104   H     0.47503   0.15977   0.10122   0.00000  Uiso   1.00
H105   H     0.59301   0.11491   0.09396   0.00000  Uiso   1.00
H106   H     0.51984   0.17114   0.40280   0.00000  Uiso   1.00
H107   H     0.42936   0.16236   0.07286   0.00000  Uiso   1.00
I108   I     0.34438   0.21878   0.49675   0.00000  Uiso   1.00
I109   I     0.37464   0.21454   0.39319   0.00000  Uiso   1.00
O110   O     0.50000   0.16667   0.25000   0.00000  Uiso   1.00
O111   O     0.49027   0.12393   0.16625   0.00000  Uiso   1.00
O112   O     0.46020   0.20646   0.33749   0.00000  Uiso   1.00
O113   O     0.54421   0.17493   0.15877   0.00000  Uiso   1.00
O114   O     0.50532   0.16135   0.33749   0.00000  Uiso   1.00
O115   O     0.61389   0.16487   0.33453   0.00000  Uiso   1.00
O116   O     0.61684   0.09519   0.29764   0.00000  Uiso   1.00
O117   O     0.34272   0.12274   0.33260   0.00000  Uiso   1.00
O118   O     0.60686   0.08786   0.40443   0.00000  Uiso   1.00
O119   O     0.64809   0.12252   0.44944   0.00000  Uiso   1.00
O120   O     0.60722   0.04908   0.46330   0.00000  Uiso   1.00
O121   O     0.51182   0.08101   0.27820   0.00000  Uiso   1.00
O122   O     0.47914   0.26136   0.26767   0.00000  Uiso   1.00
O123   O     0.40785   0.13251   0.23607   0.00000  Uiso   1.00
O124   O     0.60119   0.19179   0.21805   0.00000  Uiso   1.00
O125   O     0.40323   0.18960   0.27820   0.00000  Uiso   1.00
O126   O     0.58773   0.15277   0.26767   0.00000  Uiso   1.00
O127   O     0.47133   0.06903   0.23607   0.00000  Uiso   1.00
O128   O     0.53771   0.25527   0.21805   0.00000  Uiso   1.00
S129   S     0.64325   0.13457   0.30799   0.00000  Uiso   1.00
S130   S     0.60767   0.09531   0.44684   0.00000  Uiso   1.00
Zn131  Zn    0.52577   0.14090   0.28277   0.00000  Uiso   1.00
Zn132  Zn    0.46792   0.12378   0.22257   0.00000  Uiso   1.00
Zn133  Zn    0.54500   0.19664   0.21188   0.00000  Uiso   1.00
Zn134  Zn    0.46131   0.20535   0.28277   0.00000  Uiso   1.00
C135   C     0.71965   0.16072   0.25810   0.00000  Uiso   1.00
C136   C     0.86933   0.13463   0.45806   0.00000  Uiso   1.00
C137   C     0.89567   0.12020   0.47678   0.00000  Uiso   1.00
C138   C     0.94754   0.17341   0.24163   0.00000  Uiso   1.00
C139   C     0.88539   0.12542   0.01840   0.00000  Uiso   1.00
C140   C     0.84597   0.14124   0.04082   0.00000  Uiso   1.00
C141   C     0.91372   0.11572   0.03832   0.00000  Uiso   1.00
C142   C     0.90375   0.12176   0.07931   0.00000  Uiso   1.00
C143   C     0.83651   0.14624   0.08241   0.00000  Uiso   1.00
C144   C     0.99296   0.17439   0.23871   0.00000  Uiso   1.00
C145   C     0.67423   0.15743   0.26432   0.00000  Uiso   1.00
C146   C     0.75272   0.19944   0.42175   0.00000  Uiso   1.00
C147   C     0.84753   0.32221   0.23826   0.00000  Uiso   1.00
C148   C     0.81833   0.01222   0.26249   0.00000  Uiso   1.00
C149   C     0.82256   0.05620   0.25908   0.00000  Uiso   1.00
C150   C     0.84352   0.27769   0.24141   0.00000  Uiso   1.00
C151   C     0.85522   0.14516   0.14402   0.00000  Uiso   1.00
C152   C     0.81052   0.18654   0.35648   0.00000  Uiso   1.00
C153   C     0.79450   0.18886   0.40014   0.00000  Uiso   1.00
C154   C     0.86503   0.13669   0.10126   0.00000  Uiso   1.00
C155   C     0.73890   0.19795   0.46309   0.00000  Uiso   1.00
C156   C     0.82082   0.17616   0.41990   0.00000  Uiso   1.00
C157   C     0.80618   0.17034   0.46023   0.00000  Uiso   1.00
C158   C     0.76524   0.18268   0.48214   0.00000  Uiso   1.00
C159   C     0.83167   0.15323   0.47944   0.00000  Uiso   1.00
C160   C     0.81811   0.15322   0.02113   0.00000  Uiso   1.00
C161   C     0.77691   0.16491   0.04180   0.00000  Uiso   1.00
C162   C     0.75113   0.17891   0.02272   0.00000  Uiso   1.00
H163   H     0.71988   0.18670   0.04071   0.00000  Uiso   1.00
H164   H     0.87819   0.12943   0.42634   0.00000  Uiso   1.00
H165   H     0.68876   0.09750   0.31727   0.00000  Uiso   1.00
H166   H     0.96801   0.03847   0.44741   0.00000  Uiso   1.00
H167   H     0.94429   0.10444   0.02265   0.00000  Uiso   1.00
H168   H     0.68251   0.18924   0.21421   0.00000  Uiso   1.00
H169   H     0.87446   0.00277   0.21602   0.00000  Uiso   1.00
H170   H     0.79101   0.33245   0.28482   0.00000  Uiso   1.00
H171   H     0.80837   0.15977   0.10122   0.00000  Uiso   1.00
H172   H     0.92635   0.11491   0.09396   0.00000  Uiso   1.00
H173   H     0.85318   0.17114   0.40280   0.00000  Uiso   1.00
H174   H     0.76269   0.16236   0.07286   0.00000  Uiso   1.00
I175   I     0.67772   0.21878   0.49675   0.00000  Uiso   1.00
I176   I     0.70798   0.21454   0.39319   0.00000  Uiso   1.00
O177   O     0.83333   0.16667   0.25000   0.00000  Uiso   1.00
O178   O     0.82360   0.12393   0.16625   0.00000  Uiso   1.00
O179   O     0.79354   0.20646   0.33749   0.00000  Uiso   1.00
O180   O     0.87755   0.17493   0.15877   0.00000  Uiso   1.00
O181   O     0.83865   0.16135   0.33749   0.00000  Uiso   1.00
O182   O     0.94722   0.16487   0.33453   0.00000  Uiso   1.00
O183   O     0.95018   0.09519   0.29764   0.00000  Uiso   1.00
O184   O     0.67605   0.12274   0.33260   0.00000  Uiso   1.00
O185   O     0.94019   0.08786   0.40443   0.00000  Uiso   1.00
O186   O     0.98143   0.12252   0.44944   0.00000  Uiso   1.00
O187   O     0.94056   0.04908   0.46330   0.00000  Uiso   1.00
O188   O     0.84515   0.08101   0.27820   0.00000  Uiso   1.00
O189   O     0.81247   0.26136   0.26767   0.00000  Uiso   1.00
O190   O     0.74119   0.13251   0.23607   0.00000  Uiso   1.00
O191   O     0.93452   0.19179   0.21805   0.00000  Uiso   1.00
O192   O     0.73656   0.18960   0.27820   0.00000  Uiso   1.00
O193   O     0.92106   0.15277   0.26767   0.00000  Uiso   1.00
O194   O     0.80467   0.06903   0.23607   0.00000  Uiso   1.00
O195   O     0.87104   0.25527   0.21805   0.00000  Uiso   1.00
S196   S     0.97659   0.13457   0.30799   0.00000  Uiso   1.00
S197   S     0.94100   0.09531   0.44684   0.00000  Uiso   1.00
Zn198  Zn    0.85910   0.14090   0.28277   0.00000  Uiso   1.00
Zn199  Zn    0.80125   0.12378   0.22257   0.00000  Uiso   1.00
Zn200  Zn    0.87833   0.19664   0.21188   0.00000  Uiso   1.00
Zn201  Zn    0.79465   0.20535   0.28277   0.00000  Uiso   1.00
C202   C     0.05298   0.49405   0.25810   0.00000  Uiso   1.00
C203   C     0.20266   0.46796   0.45806   0.00000  Uiso   1.00
C204   C     0.22900   0.45353   0.47678   0.00000  Uiso   1.00
C205   C     0.28088   0.50675   0.24163   0.00000  Uiso   1.00
C206   C     0.21872   0.45876   0.01840   0.00000  Uiso   1.00
C207   C     0.17930   0.47457   0.04082   0.00000  Uiso   1.00
C208   C     0.24705   0.44906   0.03832   0.00000  Uiso   1.00
C209   C     0.23708   0.45510   0.07931   0.00000  Uiso   1.00
C210   C     0.16984   0.47958   0.08241   0.00000  Uiso   1.00
C211   C     0.32629   0.50773   0.23871   0.00000  Uiso   1.00
C212   C     0.00756   0.49077   0.26432   0.00000  Uiso   1.00
C213   C     0.08606   0.53278   0.42175   0.00000  Uiso   1.00
C214   C     0.18086   0.65554   0.23826   0.00000  Uiso   1.00
C215   C     0.15167   0.34555   0.26249   0.00000  Uiso   1.00
C216   C     0.15589   0.38953   0.25908   0.00000  Uiso   1.00
C217   C     0.17685   0.61103   0.24141   0.00000  Uiso   1.00
C218   C     0.18855   0.47849   0.14402   0.00000  Uiso   1.00
C219   C     0.14385   0.51987   0.35648   0.00000  Uiso   1.00
C220   C     0.12783   0.52220   0.40014   0.00000  Uiso   1.00
C221   C     0.19837   0.47003   0.10126   0.00000  Uiso   1.00
C222   C     0.07223   0.53128   0.46309   0.00000  Uiso   1.00
C223   C     0.15415   0.50949   0.41990   0.00000  Uiso   1.00
C224   C     0.13952   0.50367   0.46023   0.00000  Uiso   1.00
C225   C     0.09857   0.51602   0.48214   0.00000  Uiso   1.00
C226   C     0.16501   0.48657   0.47944   0.00000  Uiso   1.00
C227   C     0.15145   0.48655   0.02113   0.00000  Uiso   1.00
C228   C     0.11024   0.49825   0.04180   0.00000  Uiso   1.00
C229   C     0.08446   0.51224   0.02272   0.00000  Uiso   1.00
H230   H     0.05321   0.52004   0.04071   0.00000  Uiso   1.00
H231   H     0.21152   0.46276   0.42634   0.00000  Uiso   1.00
H232   H     0.02209   0.43084   0.31727   0.00000  Uiso   1.00
H233   H     0.30135   0.37180   0.44741   0.00000  Uiso   1.00
H234   H     0.27762   0.43777   0.02265   0.00000  Uiso   1.00
H235   H     0.01585   0.52257   0.21421   0.00000  Uiso   1.00
H236   H     0.20780   0.33610   0.21602   0.00000  Uiso   1.00
H237   H     0.12434   0.66579   0.28482   0.00000  Uiso   1.00
H238   H     0.14170   0.49311   0.10122   0.00000  Uiso   1.00
H239   H     0.25968   0.44825   0.09396   0.00000  Uiso   1.00
H240   H     0.18651   0.50447   0.40280   0.00000  Uiso   1.00
H241   H     0.09603   0.49569   0.07286   0.00000  Uiso   1.00
I242   I     0.01105   0.55212   0.49675   0.00000  Uiso   1.00
I243   I     0.04131   0.54787   0.39319   0.00000  Uiso   1.00
O244   O     0.16667   0.50000   0.25000   0.00000  Uiso   1.00
O245   O     0.15693   0.45726   0.16625   0.00000  Uiso   1.00
O246   O     0.12687   0.53979   0.33749   0.00000  Uiso   1.00
O247   O     0.21088   0.50826   0.15877   0.00000  Uiso   1.00
O248   O     0.17198   0.49468   0.33749   0.00000  Uiso   1.00
O249   O     0.28055   0.49820   0.33453   0.00000  Uiso   1.00
O250   O     0.28351   0.42852   0.29764   0.00000  Uiso   1.00
O251   O     0.00939   0.45607   0.33260   0.00000  Uiso   1.00
O252   O     0.27352   0.42119   0.40443   0.00000  Uiso   1.00
O253   O     0.31476   0.45585   0.44944   0.00000  Uiso   1.00
O254   O     0.27389   0.38241   0.46330   0.00000  Uiso   1.00
O255   O     0.17849   0.41434   0.27820   0.00000  Uiso   1.00
O256   O     0.14581   0.59469   0.26767   0.00000  Uiso   1.00
O257   O     0.07452   0.46584   0.23607   0.00000  Uiso   1.00
O258   O     0.26785   0.52512   0.21805   0.00000  Uiso   1.00
O259   O     0.06990   0.52293   0.27820   0.00000  Uiso   1.00
O260   O     0.25440   0.48610   0.26767   0.00000  Uiso   1.00
O261   O     0.13800   0.40236   0.23607   0.00000  Uiso   1.00
O262   O     0.20437   0.58860   0.21805   0.00000  Uiso   1.00
S263   S     0.30992   0.46791   0.30799   0.00000  Uiso   1.00
S264   S     0.27434   0.42864   0.44684   0.00000  Uiso   1.00
Zn265  Zn    0.19244   0.47423   0.28277   0.00000  Uiso   1.00
Zn266  Zn    0.13459   0.45711   0.22257   0.00000  Uiso   1.00
Zn267  Zn    0.21166   0.52997   0.21188   0.00000  Uiso   1.00
Zn268  Zn    0.12798   0.53868   0.28277   0.00000  Uiso   1.00
C269   C     0.38631   0.49405   0.25810   0.00000  Uiso   1.00
C270   C     0.53600   0.46796   0.45806   0.00000  Uiso   1.00
C271   C     0.56233   0.45353   0.47678   0.00000  Uiso   1.00
C272   C     0.61421   0.50675   0.24163   0.00000  Uiso   1.00
C273   C     0.55206   0.45876   0.01840   0.00000  Uiso   1.00
C274   C     0.51264   0.47457   0.04082   0.00000  Uiso   1.00
C275   C     0.58038   0.44906   0.03832   0.00000  Uiso   1.00
C276   C     0.57042   0.45510   0.07931   0.00000  Uiso   1.00
C277   C     0.50318   0.47958   0.08241   0.00000  Uiso   1.00
C278   C     0.65963   0.50773   0.23871   0.00000  Uiso   1.00
C279   C     0.34090   0.49077   0.26432   0.00000  Uiso   1.00
C280   C     0.41939   0.53278   0.42175   0.00000  Uiso   1.00
C281   C     0.51419   0.65554   0.23826   0.00000  Uiso   1.00
C282   C     0.48500   0.34555   0.26249   0.00000  Uiso   1.00
C283   C     0.48922   0.38953   0.25908   0.00000  Uiso   1.00
C284   C     0.51018   0.61103   0.24141   0.00000  Uiso   1.00
C285   C     0.52189   0.47849   0.14402   0.00000  Uiso   1.00
C286   C     0.47719   0.51987   0.35648   0.00000  Uiso   1.00
C287   C     0.46116   0.52220   0.40014   0.00000  Uiso   1.00
C288   C     0.53170   0.47003   0.10126   0.00000  Uiso   1.00
C289   C     0.40556   0.53128   0.46309   0.00000  Uiso   1.00
C290   C     0.48748   0.50949   0.41990   0.00000  Uiso   1.00
C291   C     0.47285   0.50367   0.46023   0.00000  Uiso   1.00
C292   C     0.43191   0.51602   0.48214   0.00000  Uiso   1.00
C293   C     0.49834   0.48657   0.47944   0.00000  Uiso   1.00
C294   C     0.48478   0.48655   0.02113   0.00000  Uiso   1.00
C295   C     0.44358   0.49825   0.04180   0.00000  Uiso   1.00
C296   C     0.41779   0.51224   0.02272   0.00000  Uiso   1.00
H297   H     0.38654   0.52004   0.04071   0.00000  Uiso   1.00
H298   H     0.54486   0.46276   0.42634   0.00000  Uiso   1.00
H299   H     0.35542   0.43084   0.31727   0.00000  Uiso   1.00
H300   H     0.63468   0.37180   0.44741   0.00000  Uiso   1.00
H301   H     0.61096   0.43777   0.02265   0.00000  Uiso   1.00
H302   H     0.34918   0.52257   0.21421   0.00000  Uiso   1.00
H303   H     0.54113   0.33610   0.21602   0.00000  Uiso   1.00
H304   H     0.45768   0.66579   0.28482   0.00000  Uiso   1.00
H305   H     0.47503   0.49311   0.10122   0.00000  Uiso   1.00
H306   H     0.59301   0.44825   0.09396   0.00000  Uiso   1.00
H307   H     0.51984   0.50447   0.40280   0.00000  Uiso   1.00
H308   H     0.42936   0.49569   0.07286   0.00000  Uiso   1.00
I309   I     0.34438   0.55212   0.49675   0.00000  Uiso   1.00
I310   I     0.37464   0.54787   0.39319   0.00000  Uiso   1.00
O311   O     0.50000   0.50000   0.25000   0.00000  Uiso   1.00
O312   O     0.49027   0.45726   0.16625   0.00000  Uiso   1.00
O313   O     0.46020   0.53979   0.33749   0.00000  Uiso   1.00
O314   O     0.54421   0.50826   0.15877   0.00000  Uiso   1.00
O315   O     0.50532   0.49468   0.33749   0.00000  Uiso   1.00
O316   O     0.61389   0.49820   0.33453   0.00000  Uiso   1.00
O317   O     0.61684   0.42852   0.29764   0.00000  Uiso   1.00
O318   O     0.34272   0.45607   0.33260   0.00000  Uiso   1.00
O319   O     0.60686   0.42119   0.40443   0.00000  Uiso   1.00
O320   O     0.64809   0.45585   0.44944   0.00000  Uiso   1.00
O321   O     0.60722   0.38241   0.46330   0.00000  Uiso   1.00
O322   O     0.51182   0.41434   0.27820   0.00000  Uiso   1.00
O323   O     0.47914   0.59469   0.26767   0.00000  Uiso   1.00
O324   O     0.40785   0.46584   0.23607   0.00000  Uiso   1.00
O325   O     0.60119   0.52512   0.21805   0.00000  Uiso   1.00
O326   O     0.40323   0.52293   0.27820   0.00000  Uiso   1.00
O327   O     0.58773   0.48610   0.26767   0.00000  Uiso   1.00
O328   O     0.47133   0.40236   0.23607   0.00000  Uiso   1.00
O329   O     0.53771   0.58860   0.21805   0.00000  Uiso   1.00
S330   S     0.64325   0.46791   0.30799   0.00000  Uiso   1.00
S331   S     0.60767   0.42864   0.44684   0.00000  Uiso   1.00
Zn332  Zn    0.52577   0.47423   0.28277   0.00000  Uiso   1.00
Zn333  Zn    0.46792   0.45711   0.22257   0.00000  Uiso   1.00
Zn334  Zn    0.54500   0.52997   0.21188   0.00000  Uiso   1.00
Zn335  Zn    0.46131   0.53868   0.28277   0.00000  Uiso   1.00
C336   C     0.71965   0.49405   0.25810   0.00000  Uiso   1.00
C337   C     0.86933   0.46796   0.45806   0.00000  Uiso   1.00
C338   C     0.89567   0.45353   0.47678   0.00000  Uiso   1.00
C339   C     0.94754   0.50675   0.24163   0.00000  Uiso   1.00
C340   C     0.88539   0.45876   0.01840   0.00000  Uiso   1.00
C341   C     0.84597   0.47457   0.04082   0.00000  Uiso   1.00
C342   C     0.91372   0.44906   0.03832   0.00000  Uiso   1.00
C343   C     0.90375   0.45510   0.07931   0.00000  Uiso   1.00
C344   C     0.83651   0.47958   0.08241   0.00000  Uiso   1.00
C345   C     0.99296   0.50773   0.23871   0.00000  Uiso   1.00
C346   C     0.67423   0.49077   0.26432   0.00000  Uiso   1.00
C347   C     0.75272   0.53278   0.42175   0.00000  Uiso   1.00
C348   C     0.84753   0.65554   0.23826   0.00000  Uiso   1.00
C349   C     0.81833   0.34555   0.26249   0.00000  Uiso   1.00
C350   C     0.82256   0.38953   0.25908   0.00000  Uiso   1.00
C351   C     0.84352   0.61103   0.24141   0.00000  Uiso   1.00
C352   C     0.85522   0.47849   0.14402   0.00000  Uiso   1.00
C353   C     0.81052   0.51987   0.35648   0.00000  Uiso   1.00
C354   C     0.79450   0.52220   0.40014   0.00000  Uiso   1.00
C355   C     0.86503   0.47003   0.10126   0.00000  Uiso   1.00
C356   C     0.73890   0.53128   0.46309   0.00000  Uiso   1.00
C357   C     0.82082   0.50949   0.41990   0.00000  Uiso   1.00
C358   C     0.80618   0.50367   0.46023   0.00000  Uiso   1.00
C359   C     0.76524   0.51602   0.48214   0.00000  Uiso   1.00
C360   C     0.83167   0.48657   0.47944   0.00000  Uiso   1.00
C361   C     0.81811   0.48655   0.02113   0.00000  Uiso   1.00
C362   C     0.77691   0.49825   0.04180   0.00000  Uiso   1.00
C363   C     0.75113   0.51224   0.02272   0.00000  Uiso   1.00
H364   H     0.71988   0.52004   0.04071   0.00000  Uiso   1.00
H365   H     0.87819   0.46276   0.42634   0.00000  Uiso   1.00
H366   H     0.68876   0.43084   0.31727   0.00000  Uiso   1.00
H367   H     0.96801   0.37180   0.44741   0.00000  Uiso   1.00
H368   H     0.94429   0.43777   0.02265   0.00000  Uiso   1.00
H369   H     0.68251   0.52257   0.21421   0.00000  Uiso   1.00
H370   H     0.87446   0.33610   0.21602   0.00000  Uiso   1.00
H371   H     0.79101   0.66579   0.28482   0.00000  Uiso   1.00
H372   H     0.80837   0.49311   0.10122   0.00000  Uiso   1.00
H373   H     0.92635   0.44825   0.09396   0.00000  Uiso   1.00
H374   H     0.85318   0.50447   0.40280   0.00000  Uiso   1.00
H375   H     0.76269   0.49569   0.07286   0.00000  Uiso   1.00
I376   I     0.67772   0.55212   0.49675   0.00000  Uiso   1.00
I377   I     0.70798   0.54787   0.39319   0.00000  Uiso   1.00
O378   O     0.83333   0.50000   0.25000   0.00000  Uiso   1.00
O379   O     0.82360   0.45726   0.16625   0.00000  Uiso   1.00
O380   O     0.79354   0.53979   0.33749   0.00000  Uiso   1.00
O381   O     0.87755   0.50826   0.15877   0.00000  Uiso   1.00
O382   O     0.83865   0.49468   0.33749   0.00000  Uiso   1.00
O383   O     0.94722   0.49820   0.33453   0.00000  Uiso   1.00
O384   O     0.95018   0.42852   0.29764   0.00000  Uiso   1.00
O385   O     0.67605   0.45607   0.33260   0.00000  Uiso   1.00
O386   O     0.94019   0.42119   0.40443   0.00000  Uiso   1.00
O387   O     0.98143   0.45585   0.44944   0.00000  Uiso   1.00
O388   O     0.94056   0.38241   0.46330   0.00000  Uiso   1.00
O389   O     0.84515   0.41434   0.27820   0.00000  Uiso   1.00
O390   O     0.81247   0.59469   0.26767   0.00000  Uiso   1.00
O391   O     0.74119   0.46584   0.23607   0.00000  Uiso   1.00
O392   O     0.93452   0.52512   0.21805   0.00000  Uiso   1.00
O393   O     0.73656   0.52293   0.27820   0.00000  Uiso   1.00
O394   O     0.92106   0.48610   0.26767   0.00000  Uiso   1.00
O395   O     0.80467   0.40236   0.23607   0.00000  Uiso   1.00
O396   O     0.87104   0.58860   0.21805   0.00000  Uiso   1.00
S397   S     0.97659   0.46791   0.30799   0.00000  Uiso   1.00
S398   S     0.94100   0.42864   0.44684   0.00000  Uiso   1.00
Zn399  Zn    0.85910   0.47423   0.28277   0.00000  Uiso   1.00
Zn400  Zn    0.80125   0.45711   0.22257   0.00000  Uiso   1.00
Zn401  Zn    0.87833   0.52997   0.21188   0.00000  Uiso   1.00
Zn402  Zn    0.79465   0.53868   0.28277   0.00000  Uiso   1.00
C403   C     0.05298   0.82739   0.25810   0.00000  Uiso   1.00
C404   C     0.20266   0.80129   0.45806   0.00000  Uiso   1.00
C405   C     0.22900   0.78686   0.47678   0.00000  Uiso   1.00
C406   C     0.28088   0.84008   0.24163   0.00000  Uiso   1.00
C407   C     0.21872   0.79209   0.01840   0.00000  Uiso   1.00
C408   C     0.17930   0.80791   0.04082   0.00000  Uiso   1.00
C409   C     0.24705   0.78239   0.03832   0.00000  Uiso   1.00
C410   C     0.23708   0.78843   0.07931   0.00000  Uiso   1.00
C411   C     0.16984   0.81291   0.08241   0.00000  Uiso   1.00
C412   C     0.32629   0.84106   0.23871   0.00000  Uiso   1.00
C413   C     0.00756   0.82410   0.26432   0.00000  Uiso   1.00
C414   C     0.08606   0.86611   0.42175   0.00000  Uiso   1.00
C415   C     0.18086   0.98887   0.23826   0.00000  Uiso   1.00
C416   C     0.15167   0.67888   0.26249   0.00000  Uiso   1.00
C417   C     0.15589   0.72286   0.25908   0.00000  Uiso   1.00
C418   C     0.17685   0.94436   0.24141   0.00000  Uiso   1.00
C419   C     0.18855   0.81183   0.14402   0.00000  Uiso   1.00
C420   C     0.14385   0.85321   0.35648   0.00000  Uiso   1.00
C421   C     0.12783   0.85553   0.40014   0.00000  Uiso   1.00
C422   C     0.19837   0.80336   0.10126   0.00000  Uiso   1.00
C423   C     0.07223   0.86461   0.46309   0.00000  Uiso   1.00
C424   C     0.15415   0.84282   0.41990   0.00000  Uiso   1.00
C425   C     0.13952   0.83701   0.46023   0.00000  Uiso   1.00
C426   C     0.09857   0.84935   0.48214   0.00000  Uiso   1.00
C427   C     0.16501   0.81990   0.47944   0.00000  Uiso   1.00
C428   C     0.15145   0.81989   0.02113   0.00000  Uiso   1.00
C429   C     0.11024   0.83158   0.04180   0.00000  Uiso   1.00
C430   C     0.08446   0.84558   0.02272   0.00000  Uiso   1.00
H431   H     0.05321   0.85337   0.04071   0.00000  Uiso   1.00
H432   H     0.21152   0.79609   0.42634   0.00000  Uiso   1.00
H433   H     0.02209   0.76417   0.31727   0.00000  Uiso   1.00
H434   H     0.30135   0.70513   0.44741   0.00000  Uiso   1.00
H435   H     0.27762   0.77111   0.02265   0.00000  Uiso   1.00
H436   H     0.01585   0.85590   0.21421   0.00000  Uiso   1.00
H437   H     0.20780   0.66943   0.21602   0.00000  Uiso   1.00
H438   H     0.12434   0.99912   0.28482   0.00000  Uiso   1.00
H439   H     0.14170   0.82644   0.10122   0.00000  Uiso   1.00
H440   H     0.25968   0.78158   0.09396   0.00000  Uiso   1.00
H441   H     0.18651   0.83780   0.40280   0.00000  Uiso   1.00
H442   H     0.09603   0.82903   0.07286   0.00000  Uiso   1.00
I443   I     0.01105   0.88545   0.49675   0.00000  Uiso   1.00
I444   I     0.04131   0.88120   0.39319   0.00000  Uiso   1.00
O445   O     0.16667   0.83333   0.25000   0.00000  Uiso   1.00
O446   O     0.15693   0.79060   0.16625   0.00000  Uiso   1.00
O447   O     0.12687   0.87313   0.33749   0.00000  Uiso   1.00
O448   O     0.21088   0.84159   0.15877   0.00000  Uiso   1.00
O449   O     0.17198   0.82802   0.33749   0.00000  Uiso   1.00
O450   O     0.28055   0.83154   0.33453   0.00000  Uiso   1.00
O451   O     0.28351   0.76185   0.29764   0.00000  Uiso   1.00
O452   O     0.00939   0.78941   0.33260   0.00000  Uiso   1.00
O453   O     0.27352   0.75453   0.40443   0.00000  Uiso   1.00
O454   O     0.31476   0.78919   0.44944   0.00000  Uiso   1.00
O455   O     0.27389   0.71575   0.46330   0.00000  Uiso   1.00
O456   O     0.17849   0.74768   0.27820   0.00000  Uiso   1.00
O457   O     0.14581   0.92803   0.26767   0.00000  Uiso   1.00
O458   O     0.07452   0.79917   0.23607   0.00000  Uiso   1.00
O459   O     0.26785   0.85845   0.21805   0.00000  Uiso   1.00
O460   O     0.06990   0.85627   0.27820   0.00000  Uiso   1.00
O461   O     0.25440   0.81944   0.26767   0.00000  Uiso   1.00
O462   O     0.13800   0.73570   0.23607   0.00000  Uiso   1.00
O463   O     0.20437   0.92193   0.21805   0.00000  Uiso   1.00
S464   S     0.30992   0.80124   0.30799   0.00000  Uiso   1.00
S465   S     0.27434   0.76197   0.44684   0.00000  Uiso   1.00
Zn466  Zn    0.19244   0.80756   0.28277   0.00000  Uiso   1.00
Zn467  Zn    0.13459   0.79044   0.22257   0.00000  Uiso   1.00
Zn468  Zn    0.21166   0.86331   0.21188   0.00000  Uiso   1.00
Zn469  Zn    0.12798   0.87202   0.28277   0.00000  Uiso   1.00
C470   C     0.38631   0.82739   0.25810   0.00000  Uiso   1.00
C471   C     0.53600   0.80129   0.45806   0.00000  Uiso   1.00
C472   C     0.56233   0.78686   0.47678   0.00000  Uiso   1.00
C473   C     0.61421   0.84008   0.24163   0.00000  Uiso   1.00
C474   C     0.55206   0.79209   0.01840   0.00000  Uiso   1.00
C475   C     0.51264   0.80791   0.04082   0.00000  Uiso   1.00
C476   C     0.58038   0.78239   0.03832   0.00000  Uiso   1.00
C477   C     0.57042   0.78843   0.07931   0.00000  Uiso   1.00
C478   C     0.50318   0.81291   0.08241   0.00000  Uiso   1.00
C479   C     0.65963   0.84106   0.23871   0.00000  Uiso   1.00
C480   C     0.34090   0.82410   0.26432   0.00000  Uiso   1.00
C481   C     0.41939   0.86611   0.42175   0.00000  Uiso   1.00
C482   C     0.51419   0.98887   0.23826   0.00000  Uiso   1.00
C483   C     0.48500   0.67888   0.26249   0.00000  Uiso   1.00
C484   C     0.48922   0.72286   0.25908   0.00000  Uiso   1.00
C485   C     0.51018   0.94436   0.24141   0.00000  Uiso   1.00
C486   C     0.52189   0.81183   0.14402   0.00000  Uiso   1.00
C487   C     0.47719   0.85321   0.35648   0.00000  Uiso   1.00
C488   C     0.46116   0.85553   0.40014   0.00000  Uiso   1.00
C489   C     0.53170   0.80336   0.10126   0.00000  Uiso   1.00
C490   C     0.40556   0.86461   0.46309   0.00000  Uiso   1.00
C491   C     0.48748   0.84282   0.41990   0.00000  Uiso   1.00
C492   C     0.47285   0.83701   0.46023   0.00000  Uiso   1.00
C493   C     0.43191   0.84935   0.48214   0.00000  Uiso   1.00
C494   C     0.49834   0.81990   0.47944   0.00000  Uiso   1.00
C495   C     0.48478   0.81989   0.02113   0.00000  Uiso   1.00
C496   C     0.44358   0.83158   0.04180   0.00000  Uiso   1.00
C497   C     0.41779   0.84558   0.02272   0.00000  Uiso   1.00
H498   H     0.38654   0.85337   0.04071   0.00000  Uiso   1.00
H499   H     0.54486   0.79609   0.42634   0.00000  Uiso   1.00
H500   H     0.35542   0.76417   0.31727   0.00000  Uiso   1.00
H501   H     0.63468   0.70513   0.44741   0.00000  Uiso   1.00
H502   H     0.61096   0.77111   0.02265   0.00000  Uiso   1.00
H503   H     0.34918   0.85590   0.21421   0.00000  Uiso   1.00
H504   H     0.54113   0.66943   0.21602   0.00000  Uiso   1.00
H505   H     0.45768   0.99912   0.28482   0.00000  Uiso   1.00
H506   H     0.47503   0.82644   0.10122   0.00000  Uiso   1.00
H507   H     0.59301   0.78158   0.09396   0.00000  Uiso   1.00
H508   H     0.51984   0.83780   0.40280   0.00000  Uiso   1.00
H509   H     0.42936   0.82903   0.07286   0.00000  Uiso   1.00
I510   I     0.34438   0.88545   0.49675   0.00000  Uiso   1.00
I511   I     0.37464   0.88120   0.39319   0.00000  Uiso   1.00
O512   O     0.50000   0.83333   0.25000   0.00000  Uiso   1.00
O513   O     0.49027   0.79060   0.16625   0.00000  Uiso   1.00
O514   O     0.46020   0.87313   0.33749   0.00000  Uiso   1.00
O515   O     0.54421   0.84159   0.15877   0.00000  Uiso   1.00
O516   O     0.50532   0.82802   0.33749   0.00000  Uiso   1.00
O517   O     0.61389   0.83154   0.33453   0.00000  Uiso   1.00
O518   O     0.61684   0.76185   0.29764   0.00000  Uiso   1.00
O519   O     0.34272   0.78941   0.33260   0.00000  Uiso   1.00
O520   O     0.60686   0.75453   0.40443   0.00000  Uiso   1.00
O521   O     0.64809   0.78919   0.44944   0.00000  Uiso   1.00
O522   O     0.60722   0.71575   0.46330   0.00000  Uiso   1.00
O523   O     0.51182   0.74768   0.27820   0.00000  Uiso   1.00
O524   O     0.47914   0.92803   0.26767   0.00000  Uiso   1.00
O525   O     0.40785   0.79917   0.23607   0.00000  Uiso   1.00
O526   O     0.60119   0.85845   0.21805   0.00000  Uiso   1.00
O527   O     0.40323   0.85627   0.27820   0.00000  Uiso   1.00
O528   O     0.58773   0.81944   0.26767   0.00000  Uiso   1.00
O529   O     0.47133   0.73570   0.23607   0.00000  Uiso   1.00
O530   O     0.53771   0.92193   0.21805   0.00000  Uiso   1.00
S531   S     0.64325   0.80124   0.30799   0.00000  Uiso   1.00
S532   S     0.60767   0.76197   0.44684   0.00000  Uiso   1.00
Zn533  Zn    0.52577   0.80756   0.28277   0.00000  Uiso   1.00
Zn534  Zn    0.46792   0.79044   0.22257   0.00000  Uiso   1.00
Zn535  Zn    0.54500   0.86331   0.21188   0.00000  Uiso   1.00
Zn536  Zn    0.46131   0.87202   0.28277   0.00000  Uiso   1.00
C537   C     0.71965   0.82739   0.25810   0.00000  Uiso   1.00
C538   C     0.86933   0.80129   0.45806   0.00000  Uiso   1.00
C539   C     0.89567   0.78686   0.47678   0.00000  Uiso   1.00
C540   C     0.94754   0.84008   0.24163   0.00000  Uiso   1.00
C541   C     0.88539   0.79209   0.01840   0.00000  Uiso   1.00
C542   C     0.84597   0.80791   0.04082   0.00000  Uiso   1.00
C543   C     0.91372   0.78239   0.03832   0.00000  Uiso   1.00
C544   C     0.90375   0.78843   0.07931   0.00000  Uiso   1.00
C545   C     0.83651   0.81291   0.08241   0.00000  Uiso   1.00
C546   C     0.99296   0.84106   0.23871   0.00000  Uiso   1.00
C547   C     0.67423   0.82410   0.26432   0.00000  Uiso   1.00
C548   C     0.75272   0.86611   0.42175   0.00000  Uiso   1.00
C549   C     0.84753   0.98887   0.23826   0.00000  Uiso   1.00
C550   C     0.81833   0.67888   0.26249   0.00000  Uiso   1.00
C551   C     0.82256   0.72286   0.25908   0.00000  Uiso   1.00
C552   C     0.84352   0.94436   0.24141   0.00000  Uiso   1.00
C553   C     0.85522   0.81183   0.14402   0.00000  Uiso   1.00
C554   C     0.81052   0.85321   0.35648   0.00000  Uiso   1.00
C555   C     0.79450   0.85553   0.40014   0.00000  Uiso   1.00
C556   C     0.86503   0.80336   0.10126   0.00000  Uiso   1.00
C557   C     0.73890   0.86461   0.46309   0.00000  Uiso   1.00
C558   C     0.82082   0.84282   0.41990   0.00000  Uiso   1.00
C559   C     0.80618   0.83701   0.46023   0.00000  Uiso   1.00
C560   C     0.76524   0.84935   0.48214   0.00000  Uiso   1.00
C561   C     0.83167   0.81990   0.47944   0.00000  Uiso   1.00
C562   C     0.81811   0.81989   0.02113   0.00000  Uiso   1.00
C563   C     0.77691   0.83158   0.04180   0.00000  Uiso   1.00
C564   C     0.75113   0.84558   0.02272   0.00000  Uiso   1.00
H565   H     0.71988   0.85337   0.04071   0.00000  Uiso   1.00
H566   H     0.87819   0.79609   0.42634   0.00000  Uiso   1.00
H567   H     0.68876   0.76417   0.31727   0.00000  Uiso   1.00
H568   H     0.96801   0.70513   0.44741   0.00000  Uiso   1.00
H569   H     0.94429   0.77111   0.02265   0.00000  Uiso   1.00
H570   H     0.68251   0.85590   0.21421   0.00000  Uiso   1.00
H571   H     0.87446   0.66943   0.21602   0.00000  Uiso   1.00
H572   H     0.79101   0.99912   0.28482   0.00000  Uiso   1.00
H573   H     0.80837   0.82644   0.10122   0.00000  Uiso   1.00
H574   H     0.92635   0.78158   0.09396   0.00000  Uiso   1.00
H575   H     0.85318   0.83780   0.40280   0.00000  Uiso   1.00
H576   H     0.76269   0.82903   0.07286   0.00000  Uiso   1.00
I577   I     0.67772   0.88545   0.49675   0.00000  Uiso   1.00
I578   I     0.70798   0.88120   0.39319   0.00000  Uiso   1.00
O579   O     0.83333   0.83333   0.25000   0.00000  Uiso   1.00
O580   O     0.82360   0.79060   0.16625   0.00000  Uiso   1.00
O581   O     0.79354   0.87313   0.33749   0.00000  Uiso   1.00
O582   O     0.87755   0.84159   0.15877   0.00000  Uiso   1.00
O583   O     0.83865   0.82802   0.33749   0.00000  Uiso   1.00
O584   O     0.94722   0.83154   0.33453   0.00000  Uiso   1.00
O585   O     0.95018   0.76185   0.29764   0.00000  Uiso   1.00
O586   O     0.67605   0.78941   0.33260   0.00000  Uiso   1.00
O587   O     0.94019   0.75453   0.40443   0.00000  Uiso   1.00
O588   O     0.98143   0.78919   0.44944   0.00000  Uiso   1.00
O589   O     0.94056   0.71575   0.46330   0.00000  Uiso   1.00
O590   O     0.84515   0.74768   0.27820   0.00000  Uiso   1.00
O591   O     0.81247   0.92803   0.26767   0.00000  Uiso   1.00
O592   O     0.74119   0.79917   0.23607   0.00000  Uiso   1.00
O593   O     0.93452   0.85845   0.21805   0.00000  Uiso   1.00
O594   O     0.73656   0.85627   0.27820   0.00000  Uiso   1.00
O595   O     0.92106   0.81944   0.26767   0.00000  Uiso   1.00
O596   O     0.80467   0.73570   0.23607   0.00000  Uiso   1.00
O597   O     0.87104   0.92193   0.21805   0.00000  Uiso   1.00
S598   S     0.97659   0.80124   0.30799   0.00000  Uiso   1.00
S599   S     0.94100   0.76197   0.44684   0.00000  Uiso   1.00
Zn600  Zn    0.85910   0.80756   0.28277   0.00000  Uiso   1.00
Zn601  Zn    0.80125   0.79044   0.22257   0.00000  Uiso   1.00
Zn602  Zn    0.87833   0.86331   0.21188   0.00000  Uiso   1.00
Zn603  Zn    0.79465   0.87202   0.28277   0.00000  Uiso   1.00
C604   C     0.05298   0.16072   0.75810   0.00000  Uiso   1.00
C605   C     0.20266   0.13463   0.95806   0.00000  Uiso   1.00
C606   C     0.22900   0.12020   0.97678   0.00000  Uiso   1.00
C607   C     0.28088   0.17341   0.74163   0.00000  Uiso   1.00
C608   C     0.21872   0.12542   0.51840   0.00000  Uiso   1.00
C609   C     0.17930   0.14124   0.54082   0.00000  Uiso   1.00
C610   C     0.24705   0.11572   0.53832   0.00000  Uiso   1.00
C611   C     0.23708   0.12176   0.57931   0.00000  Uiso   1.00
C612   C     0.16984   0.14624   0.58241   0.00000  Uiso   1.00
C613   C     0.32629   0.17439   0.73871   0.00000  Uiso   1.00
C614   C     0.00756   0.15743   0.76432   0.00000  Uiso   1.00
C615   C     0.08606   0.19944   0.92175   0.00000  Uiso   1.00
C616   C     0.18086   0.32221   0.73826   0.00000  Uiso   1.00
C617   C     0.15167   0.01222   0.76249   0.00000  Uiso   1.00
C618   C     0.15589   0.05620   0.75908   0.00000  Uiso   1.00
C619   C     0.17685   0.27769   0.74141   0.00000  Uiso   1.00
C620   C     0.18855   0.14516   0.64402   0.00000  Uiso   1.00
C621   C     0.14385   0.18654   0.85648   0.00000  Uiso   1.00
C622   C     0.12783   0.18886   0.90014   0.00000  Uiso   1.00
C623   C     0.19837   0.13669   0.60126   0.00000  Uiso   1.00
C624   C     0.07223   0.19795   0.96309   0.00000  Uiso   1.00
C625   C     0.15415   0.17616   0.91990   0.00000  Uiso   1.00
C626   C     0.13952   0.17034   0.96023   0.00000  Uiso   1.00
C627   C     0.09857   0.18268   0.98214   0.00000  Uiso   1.00
C628   C     0.16501   0.15323   0.97944   0.00000  Uiso   1.00
C629   C     0.15145   0.15322   0.52113   0.00000  Uiso   1.00
C630   C     0.11024   0.16491   0.54180   0.00000  Uiso   1.00
C631   C     0.08446   0.17891   0.52272   0.00000  Uiso   1.00
H632   H     0.05321   0.18670   0.54071   0.00000  Uiso   1.00
H633   H     0.21152   0.12943   0.92634   0.00000  Uiso   1.00
H634   H     0.02209   0.09750   0.81727   0.00000  Uiso   1.00
H635   H     0.30135   0.03847   0.94741   0.00000  Uiso   1.00
H636   H     0.27762   0.10444   0.52265   0.00000  Uiso   1.00
H637   H     0.01585   0.18924   0.71421   0.00000  Uiso   1.00
H638   H     0.20780   0.00277   0.71602   0.00000  Uiso   1.00
H639   H     0.12434   0.33245   0.78482   0.00000  Uiso   1.00
H640   H     0.14170   0.15977   0.60122   0.00000  Uiso   1.00
H641   H     0.25968   0.11491   0.59396   0.00000  Uiso   1.00
H642   H     0.18651   0.17114   0.90280   0.00000  Uiso   1.00
H643   H     0.09603   0.16236   0.57286   0.00000  Uiso   1.00
I644   I     0.01105   0.21878   0.99675   0.00000  Uiso   1.00
I645   I     0.04131   0.21454   0.89319   0.00000  Uiso   1.00
O646   O     0.16667   0.16667   0.75000   0.00000  Uiso   1.00
O647   O     0.15693   0.12393   0.66625   0.00000  Uiso   1.00
O648   O     0.12687   0.20646   0.83749   0.00000  Uiso   1.00
O649   O     0.21088   0.17493   0.65877   0.00000  Uiso   1.00
O650   O     0.17198   0.16135   0.83749   0.00000  Uiso   1.00
O651   O     0.28055   0.16487   0.83453   0.00000  Uiso   1.00
O652   O     0.28351   0.09519   0.79764   0.00000  Uiso   1.00
O653   O     0.00939   0.12274   0.83260   0.00000  Uiso   1.00
O654   O     0.27352   0.08786   0.90443   0.00000  Uiso   1.00
O655   O     0.31476   0.12252   0.94944   0.00000  Uiso   1.00
O656   O     0.27389   0.04908   0.96330   0.00000  Uiso   1.00
O657   O     0.17849   0.08101   0.77820   0.00000  Uiso   1.00
O658   O     0.14581   0.26136   0.76767   0.00000  Uiso   1.00
O659   O     0.07452   0.13251   0.73607   0.00000  Uiso   1.00
O660   O     0.26785   0.19179   0.71805   0.00000  Uiso   1.00
O661   O     0.06990   0.18960   0.77820   0.00000  Uiso   1.00
O662   O     0.25440   0.15277   0.76767   0.00000  Uiso   1.00
O663   O     0.13800   0.06903   0.73607   0.00000  Uiso   1.00
O664   O     0.20437   0.25527   0.71805   0.00000  Uiso   1.00
S665   S     0.30992   0.13457   0.80799   0.00000  Uiso   1.00
S666   S     0.27434   0.09531   0.94684   0.00000  Uiso   1.00
Zn667  Zn    0.19244   0.14090   0.78277   0.00000  Uiso   1.00
Zn668  Zn    0.13459   0.12378   0.72257   0.00000  Uiso   1.00
Zn669  Zn    0.21166   0.19664   0.71188   0.00000  Uiso   1.00
Zn670  Zn    0.12798   0.20535   0.78277   0.00000  Uiso   1.00
C671   C     0.38631   0.16072   0.75810   0.00000  Uiso   1.00
C672   C     0.53600   0.13463   0.95806   0.00000  Uiso   1.00
C673   C     0.56233   0.12020   0.97678   0.00000  Uiso   1.00
C674   C     0.61421   0.17341   0.74163   0.00000  Uiso   1.00
C675   C     0.55206   0.12542   0.51840   0.00000  Uiso   1.00
C676   C     0.51264   0.14124   0.54082   0.00000  Uiso   1.00
C677   C     0.58038   0.11572   0.53832   0.00000  Uiso   1.00
C678   C     0.57042   0.12176   0.57931   0.00000  Uiso   1.00
C679   C     0.50318   0.14624   0.58241   0.00000  Uiso   1.00
C680   C     0.65963   0.17439   0.73871   0.00000  Uiso   1.00
C681   C     0.34090   0.15743   0.76432   0.00000  Uiso   1.00
C682   C     0.41939   0.19944   0.92175   0.00000  Uiso   1.00
C683   C     0.51419   0.32221   0.73826   0.00000  Uiso   1.00
C684   C     0.48500   0.01222   0.76249   0.00000  Uiso   1.00
C685   C     0.48922   0.05620   0.75908   0.00000  Uiso   1.00
C686   C     0.51018   0.27769   0.74141   0.00000  Uiso   1.00
C687   C     0.52189   0.14516   0.64402   0.00000  Uiso   1.00
C688   C     0.47719   0.18654   0.85648   0.00000  Uiso   1.00
C689   C     0.46116   0.18886   0.90014   0.00000  Uiso   1.00
C690   C     0.53170   0.13669   0.60126   0.00000  Uiso   1.00
C691   C     0.40556   0.19795   0.96309   0.00000  Uiso   1.00
C692   C     0.48748   0.17616   0.91990   0.00000  Uiso   1.00
C693   C     0.47285   0.17034   0.96023   0.00000  Uiso   1.00
C694   C     0.43191   0.18268   0.98214   0.00000  Uiso   1.00
C695   C     0.49834   0.15323   0.97944   0.00000  Uiso   1.00
C696   C     0.48478   0.15322   0.52113   0.00000  Uiso   1.00
C697   C     0.44358   0.16491   0.54180   0.00000  Uiso   1.00
C698   C     0.41779   0.17891   0.52272   0.00000  Uiso   1.00
H699   H     0.38654   0.18670   0.54071   0.00000  Uiso   1.00
H700   H     0.54486   0.12943   0.92634   0.00000  Uiso   1.00
H701   H     0.35542   0.09750   0.81727   0.00000  Uiso   1.00
H702   H     0.63468   0.03847   0.94741   0.00000  Uiso   1.00
H703   H     0.61096   0.10444   0.52265   0.00000  Uiso   1.00
H704   H     0.34918   0.18924   0.71421   0.00000  Uiso   1.00
H705   H     0.54113   0.00277   0.71602   0.00000  Uiso   1.00
H706   H     0.45768   0.33245   0.78482   0.00000  Uiso   1.00
H707   H     0.47503   0.15977   0.60122   0.00000  Uiso   1.00
H708   H     0.59301   0.11491   0.59396   0.00000  Uiso   1.00
H709   H     0.51984   0.17114   0.90280   0.00000  Uiso   1.00
H710   H     0.42936   0.16236   0.57286   0.00000  Uiso   1.00
I711   I     0.34438   0.21878   0.99675   0.00000  Uiso   1.00
I712   I     0.37464   0.21454   0.89319   0.00000  Uiso   1.00
O713   O     0.50000   0.16667   0.75000   0.00000  Uiso   1.00
O714   O     0.49027   0.12393   0.66625   0.00000  Uiso   1.00
O715   O     0.46020   0.20646   0.83749   0.00000  Uiso   1.00
O716   O     0.54421   0.17493   0.65877   0.00000  Uiso   1.00
O717   O     0.50532   0.16135   0.83749   0.00000  Uiso   1.00
O718   O     0.61389   0.16487   0.83453   0.00000  Uiso   1.00
O719   O     0.61684   0.09519   0.79764   0.00000  Uiso   1.00
O720   O     0.34272   0.12274   0.83260   0.00000  Uiso   1.00
O721   O     0.60686   0.08786   0.90443   0.00000  Uiso   1.00
O722   O     0.64809   0.12252   0.94944   0.00000  Uiso   1.00
O723   O     0.60722   0.04908   0.96330   0.00000  Uiso   1.00
O724   O     0.51182   0.08101   0.77820   0.00000  Uiso   1.00
O725   O     0.47914   0.26136   0.76767   0.00000  Uiso   1.00
O726   O     0.40785   0.13251   0.73607   0.00000  Uiso   1.00
O727   O     0.60119   0.19179   0.71805   0.00000  Uiso   1.00
O728   O     0.40323   0.18960   0.77820   0.00000  Uiso   1.00
O729   O     0.58773   0.15277   0.76767   0.00000  Uiso   1.00
O730   O     0.47133   0.06903   0.73607   0.00000  Uiso   1.00
O731   O     0.53771   0.25527   0.71805   0.00000  Uiso   1.00
S732   S     0.64325   0.13457   0.80799   0.00000  Uiso   1.00
S733   S     0.60767   0.09531   0.94684   0.00000  Uiso   1.00
Zn734  Zn    0.52577   0.14090   0.78277   0.00000  Uiso   1.00
Zn735  Zn    0.46792   0.12378   0.72257   0.00000  Uiso   1.00
Zn736  Zn    0.54500   0.19664   0.71188   0.00000  Uiso   1.00
Zn737  Zn    0.46131   0.20535   0.78277   0.00000  Uiso   1.00
C738   C     0.71965   0.16072   0.75810   0.00000  Uiso   1.00
C739   C     0.86933   0.13463   0.95806   0.00000  Uiso   1.00
C740   C     0.89567   0.12020   0.97678   0.00000  Uiso   1.00
C741   C     0.94754   0.17341   0.74163   0.00000  Uiso   1.00
C742   C     0.88539   0.12542   0.51840   0.00000  Uiso   1.00
C743   C     0.84597   0.14124   0.54082   0.00000  Uiso   1.00
C744   C     0.91372   0.11572   0.53832   0.00000  Uiso   1.00
C745   C     0.90375   0.12176   0.57931   0.00000  Uiso   1.00
C746   C     0.83651   0.14624   0.58241   0.00000  Uiso   1.00
C747   C     0.99296   0.17439   0.73871   0.00000  Uiso   1.00
C748   C     0.67423   0.15743   0.76432   0.00000  Uiso   1.00
C749   C     0.75272   0.19944   0.92175   0.00000  Uiso   1.00
C750   C     0.84753   0.32221   0.73826   0.00000  Uiso   1.00
C751   C     0.81833   0.01222   0.76249   0.00000  Uiso   1.00
C752   C     0.82256   0.05620   0.75908   0.00000  Uiso   1.00
C753   C     0.84352   0.27769   0.74141   0.00000  Uiso   1.00
C754   C     0.85522   0.14516   0.64402   0.00000  Uiso   1.00
C755   C     0.81052   0.18654   0.85648   0.00000  Uiso   1.00
C756   C     0.79450   0.18886   0.90014   0.00000  Uiso   1.00
C757   C     0.86503   0.13669   0.60126   0.00000  Uiso   1.00
C758   C     0.73890   0.19795   0.96309   0.00000  Uiso   1.00
C759   C     0.82082   0.17616   0.91990   0.00000  Uiso   1.00
C760   C     0.80618   0.17034   0.96023   0.00000  Uiso   1.00
C761   C     0.76524   0.18268   0.98214   0.00000  Uiso   1.00
C762   C     0.83167   0.15323   0.97944   0.00000  Uiso   1.00
C763   C     0.81811   0.15322   0.52113   0.00000  Uiso   1.00
C764   C     0.77691   0.16491   0.54180   0.00000  Uiso   1.00
C765   C     0.75113   0.17891   0.52272   0.00000  Uiso   1.00
H766   H     0.71988   0.18670   0.54071   0.00000  Uiso   1.00
H767   H     0.87819   0.12943   0.92634   0.00000  Uiso   1.00
H768   H     0.68876   0.09750   0.81727   0.00000  Uiso   1.00
H769   H     0.96801   0.03847   0.94741   0.00000  Uiso   1.00
H770   H     0.94429   0.10444   0.52265   0.00000  Uiso   1.00
H771   H     0.68251   0.18924   0.71421   0.00000  Uiso   1.00
H772   H     0.87446   0.00277   0.71602   0.00000  Uiso   1.00
H773   H     0.79101   0.33245   0.78482   0.00000  Uiso   1.00
H774   H     0.80837   0.15977   0.60122   0.00000  Uiso   1.00
H775   H     0.92635   0.11491   0.59396   0.00000  Uiso   1.00
H776   H     0.85318   0.17114   0.90280   0.00000  Uiso   1.00
H777   H     0.76269   0.16236   0.57286   0.00000  Uiso   1.00
I778   I     0.67772   0.21878   0.99675   0.00000  Uiso   1.00
I779   I     0.70798   0.21454   0.89319   0.00000  Uiso   1.00
O780   O     0.83333   0.16667   0.75000   0.00000  Uiso   1.00
O781   O     0.82360   0.12393   0.66625   0.00000  Uiso   1.00
O782   O     0.79354   0.20646   0.83749   0.00000  Uiso   1.00
O783   O     0.87755   0.17493   0.65877   0.00000  Uiso   1.00
O784   O     0.83865   0.16135   0.83749   0.00000  Uiso   1.00
O785   O     0.94722   0.16487   0.83453   0.00000  Uiso   1.00
O786   O     0.95018   0.09519   0.79764   0.00000  Uiso   1.00
O787   O     0.67605   0.12274   0.83260   0.00000  Uiso   1.00
O788   O     0.94019   0.08786   0.90443   0.00000  Uiso   1.00
O789   O     0.98143   0.12252   0.94944   0.00000  Uiso   1.00
O790   O     0.94056   0.04908   0.96330   0.00000  Uiso   1.00
O791   O     0.84515   0.08101   0.77820   0.00000  Uiso   1.00
O792   O     0.81247   0.26136   0.76767   0.00000  Uiso   1.00
O793   O     0.74119   0.13251   0.73607   0.00000  Uiso   1.00
O794   O     0.93452   0.19179   0.71805   0.00000  Uiso   1.00
O795   O     0.73656   0.18960   0.77820   0.00000  Uiso   1.00
O796   O     0.92106   0.15277   0.76767   0.00000  Uiso   1.00
O797   O     0.80467   0.06903   0.73607   0.00000  Uiso   1.00
O798   O     0.87104   0.25527   0.71805   0.00000  Uiso   1.00
S799   S     0.97659   0.13457   0.80799   0.00000  Uiso   1.00
S800   S     0.94100   0.09531   0.94684   0.00000  Uiso   1.00
Zn801  Zn    0.85910   0.14090   0.78277   0.00000  Uiso   1.00
Zn802  Zn    0.80125   0.12378   0.72257   0.00000  Uiso   1.00
Zn803  Zn    0.87833   0.19664   0.71188   0.00000  Uiso   1.00
Zn804  Zn    0.79465   0.20535   0.78277   0.00000  Uiso   1.00
C805   C     0.05298   0.49405   0.75810   0.00000  Uiso   1.00
C806   C     0.20266   0.46796   0.95806   0.00000  Uiso   1.00
C807   C     0.22900   0.45353   0.97678   0.00000  Uiso   1.00
C808   C     0.28088   0.50675   0.74163   0.00000  Uiso   1.00
C809   C     0.21872   0.45876   0.51840   0.00000  Uiso   1.00
C810   C     0.17930   0.47457   0.54082   0.00000  Uiso   1.00
C811   C     0.24705   0.44906   0.53832   0.00000  Uiso   1.00
C812   C     0.23708   0.45510   0.57931   0.00000  Uiso   1.00
C813   C     0.16984   0.47958   0.58241   0.00000  Uiso   1.00
C814   C     0.32629   0.50773   0.73871   0.00000  Uiso   1.00
C815   C     0.00756   0.49077   0.76432   0.00000  Uiso   1.00
C816   C     0.08606   0.53278   0.92175   0.00000  Uiso   1.00
C817   C     0.18086   0.65554   0.73826   0.00000  Uiso   1.00
C818   C     0.15167   0.34555   0.76249   0.00000  Uiso   1.00
C819   C     0.15589   0.38953   0.75908   0.00000  Uiso   1.00
C820   C     0.17685   0.61103   0.74141   0.00000  Uiso   1.00
C821   C     0.18855   0.47849   0.64402   0.00000  Uiso   1.00
C822   C     0.14385   0.51987   0.85648   0.00000  Uiso   1.00
C823   C     0.12783   0.52220   0.90014   0.00000  Uiso   1.00
C824   C     0.19837   0.47003   0.60126   0.00000  Uiso   1.00
C825   C     0.07223   0.53128   0.96309   0.00000  Uiso   1.00
C826   C     0.15415   0.50949   0.91990   0.00000  Uiso   1.00
C827   C     0.13952   0.50367   0.96023   0.00000  Uiso   1.00
C828   C     0.09857   0.51602   0.98214   0.00000  Uiso   1.00
C829   C     0.16501   0.48657   0.97944   0.00000  Uiso   1.00
C830   C     0.15145   0.48655   0.52113   0.00000  Uiso   1.00
C831   C     0.11024   0.49825   0.54180   0.00000  Uiso   1.00
C832   C     0.08446   0.51224   0.52272   0.00000  Uiso   1.00
H833   H     0.05321   0.52004   0.54071   0.00000  Uiso   1.00
H834   H     0.21152   0.46276   0.92634   0.00000  Uiso   1.00
H835   H     0.02209   0.43084   0.81727   0.00000  Uiso   1.00
H836   H     0.30135   0.37180   0.94741   0.00000  Uiso   1.00
H837   H     0.27762   0.43777   0.52265   0.00000  Uiso   1.00
H838   H     0.01585   0.52257   0.71421   0.00000  Uiso   1.00
H839   H     0.20780   0.33610   0.71602   0.00000  Uiso   1.00
H840   H     0.12434   0.66579   0.78482   0.00000  Uiso   1.00
H841   H     0.14170   0.49311   0.60122   0.00000  Uiso   1.00
H842   H     0.25968   0.44825   0.59396   0.00000  Uiso   1.00
H843   H     0.18651   0.50447   0.90280   0.00000  Uiso   1.00
H844   H     0.09603   0.49569   0.57286   0.00000  Uiso   1.00
I845   I     0.01105   0.55212   0.99675   0.00000  Uiso   1.00
I846   I     0.04131   0.54787   0.89319   0.00000  Uiso   1.00
O847   O     0.16667   0.50000   0.75000   0.00000  Uiso   1.00
O848   O     0.15693   0.45726   0.66625   0.00000  Uiso   1.00
O849   O     0.12687   0.53979   0.83749   0.00000  Uiso   1.00
O850   O     0.21088   0.50826   0.65877   0.00000  Uiso   1.00
O851   O     0.17198   0.49468   0.83749   0.00000  Uiso   1.00
O852   O     0.28055   0.49820   0.83453   0.00000  Uiso   1.00
O853   O     0.28351   0.42852   0.79764   0.00000  Uiso   1.00
O854   O     0.00939   0.45607   0.83260   0.00000  Uiso   1.00
O855   O     0.27352   0.42119   0.90443   0.00000  Uiso   1.00
O856   O     0.31476   0.45585   0.94944   0.00000  Uiso   1.00
O857   O     0.27389   0.38241   0.96330   0.00000  Uiso   1.00
O858   O     0.17849   0.41434   0.77820   0.00000  Uiso   1.00
O859   O     0.14581   0.59469   0.76767   0.00000  Uiso   1.00
O860   O     0.07452   0.46584   0.73607   0.00000  Uiso   1.00
O861   O     0.26785   0.52512   0.71805   0.00000  Uiso   1.00
O862   O     0.06990   0.52293   0.77820   0.00000  Uiso   1.00
O863   O     0.25440   0.48610   0.76767   0.00000  Uiso   1.00
O864   O     0.13800   0.40236   0.73607   0.00000  Uiso   1.00
O865   O     0.20437   0.58860   0.71805   0.00000  Uiso   1.00
S866   S     0.30992   0.46791   0.80799   0.00000  Uiso   1.00
S867   S     0.27434   0.42864   0.94684   0.00000  Uiso   1.00
Zn868  Zn    0.19244   0.47423   0.78277   0.00000  Uiso   1.00
Zn869  Zn    0.13459   0.45711   0.72257   0.00000  Uiso   1.00
Zn870  Zn    0.21166   0.52997   0.71188   0.00000  Uiso   1.00
Zn871  Zn    0.12798   0.53868   0.78277   0.00000  Uiso   1.00
C872   C     0.38631   0.49405   0.75810   0.00000  Uiso   1.00
C873   C     0.53600   0.46796   0.95806   0.00000  Uiso   1.00
C874   C     0.56233   0.45353   0.97678   0.00000  Uiso   1.00
C875   C     0.61421   0.50675   0.74163   0.00000  Uiso   1.00
C876   C     0.55206   0.45876   0.51840   0.00000  Uiso   1.00
C877   C     0.51264   0.47457   0.54082   0.00000  Uiso   1.00
C878   C     0.58038   0.44906   0.53832   0.00000  Uiso   1.00
C879   C     0.57042   0.45510   0.57931   0.00000  Uiso   1.00
C880   C     0.50318   0.47958   0.58241   0.00000  Uiso   1.00
C881   C     0.65963   0.50773   0.73871   0.00000  Uiso   1.00
C882   C     0.34090   0.49077   0.76432   0.00000  Uiso   1.00
C883   C     0.41939   0.53278   0.92175   0.00000  Uiso   1.00
C884   C     0.51419   0.65554   0.73826   0.00000  Uiso   1.00
C885   C     0.48500   0.34555   0.76249   0.00000  Uiso   1.00
C886   C     0.48922   0.38953   0.75908   0.00000  Uiso   1.00
C887   C     0.51018   0.61103   0.74141   0.00000  Uiso   1.00
C888   C     0.52189   0.47849   0.64402   0.00000  Uiso   1.00
C889   C     0.47719   0.51987   0.85648   0.00000  Uiso   1.00
C890   C     0.46116   0.52220   0.90014   0.00000  Uiso   1.00
C891   C     0.53170   0.47003   0.60126   0.00000  Uiso   1.00
C892   C     0.40556   0.53128   0.96309   0.00000  Uiso   1.00
C893   C     0.48748   0.50949   0.91990   0.00000  Uiso   1.00
C894   C     0.47285   0.50367   0.96023   0.00000  Uiso   1.00
C895   C     0.43191   0.51602   0.98214   0.00000  Uiso   1.00
C896   C     0.49834   0.48657   0.97944   0.00000  Uiso   1.00
C897   C     0.48478   0.48655   0.52113   0.00000  Uiso   1.00
C898   C     0.44358   0.49825   0.54180   0.00000  Uiso   1.00
C899   C     0.41779   0.51224   0.52272   0.00000  Uiso   1.00
H900   H     0.38654   0.52004   0.54071   0.00000  Uiso   1.00
H901   H     0.54486   0.46276   0.92634   0.00000  Uiso   1.00
H902   H     0.35542   0.43084   0.81727   0.00000  Uiso   1.00
H903   H     0.63468   0.37180   0.94741   0.00000  Uiso   1.00
H904   H     0.61096   0.43777   0.52265   0.00000  Uiso   1.00
H905   H     0.34918   0.52257   0.71421   0.00000  Uiso   1.00
H906   H     0.54113   0.33610   0.71602   0.00000  Uiso   1.00
H907   H     0.45768   0.66579   0.78482   0.00000  Uiso   1.00
H908   H     0.47503   0.49311   0.60122   0.00000  Uiso   1.00
H909   H     0.59301   0.44825   0.59396   0.00000  Uiso   1.00
H910   H     0.51984   0.50447   0.90280   0.00000  Uiso   1.00
H911   H     0.42936   0.49569   0.57286   0.00000  Uiso   1.00
I912   I     0.34438   0.55212   0.99675   0.00000  Uiso   1.00
I913   I     0.37464   0.54787   0.89319   0.00000  Uiso   1.00
O914   O     0.50000   0.50000   0.75000   0.00000  Uiso   1.00
O915   O     0.49027   0.45726   0.66625   0.00000  Uiso   1.00
O916   O     0.46020   0.53979   0.83749   0.00000  Uiso   1.00
O917   O     0.54421   0.50826   0.65877   0.00000  Uiso   1.00
O918   O     0.50532   0.49468   0.83749   0.00000  Uiso   1.00
O919   O     0.61389   0.49820   0.83453   0.00000  Uiso   1.00
O920   O     0.61684   0.42852   0.79764   0.00000  Uiso   1.00
O921   O     0.34272   0.45607   0.83260   0.00000  Uiso   1.00
O922   O     0.60686   0.42119   0.90443   0.00000  Uiso   1.00
O923   O     0.64809   0.45585   0.94944   0.00000  Uiso   1.00
O924   O     0.60722   0.38241   0.96330   0.00000  Uiso   1.00
O925   O     0.51182   0.41434   0.77820   0.00000  Uiso   1.00
O926   O     0.47914   0.59469   0.76767   0.00000  Uiso   1.00
O927   O     0.40785   0.46584   0.73607   0.00000  Uiso   1.00
O928   O     0.60119   0.52512   0.71805   0.00000  Uiso   1.00
O929   O     0.40323   0.52293   0.77820   0.00000  Uiso   1.00
O930   O     0.58773   0.48610   0.76767   0.00000  Uiso   1.00
O931   O     0.47133   0.40236   0.73607   0.00000  Uiso   1.00
O932   O     0.53771   0.58860   0.71805   0.00000  Uiso   1.00
S933   S     0.64325   0.46791   0.80799   0.00000  Uiso   1.00
S934   S     0.60767   0.42864   0.94684   0.00000  Uiso   1.00
Zn935  Zn    0.52577   0.47423   0.78277   0.00000  Uiso   1.00
Zn936  Zn    0.46792   0.45711   0.72257   0.00000  Uiso   1.00
Zn937  Zn    0.54500   0.52997   0.71188   0.00000  Uiso   1.00
Zn938  Zn    0.46131   0.53868   0.78277   0.00000  Uiso   1.00
C939   C     0.71965   0.49405   0.75810   0.00000  Uiso   1.00
C940   C     0.86933   0.46796   0.95806   0.00000  Uiso   1.00
C941   C     0.89567   0.45353   0.97678   0.00000  Uiso   1.00
C942   C     0.94754   0.50675   0.74163   0.00000  Uiso   1.00
C943   C     0.88539   0.45876   0.51840   0.00000  Uiso   1.00
C944   C     0.84597   0.47457   0.54082   0.00000  Uiso   1.00
C945   C     0.91372   0.44906   0.53832   0.00000  Uiso   1.00
C946   C     0.90375   0.45510   0.57931   0.00000  Uiso   1.00
C947   C     0.83651   0.47958   0.58241   0.00000  Uiso   1.00
C948   C     0.99296   0.50773   0.73871   0.00000  Uiso   1.00
C949   C     0.67423   0.49077   0.76432   0.00000  Uiso   1.00
C950   C     0.75272   0.53278   0.92175   0.00000  Uiso   1.00
C951   C     0.84753   0.65554   0.73826   0.00000  Uiso   1.00
C952   C     0.81833   0.34555   0.76249   0.00000  Uiso   1.00
C953   C     0.82256   0.38953   0.75908   0.00000  Uiso   1.00
C954   C     0.84352   0.61103   0.74141   0.00000  Uiso   1.00
C955   C     0.85522   0.47849   0.64402   0.00000  Uiso   1.00
C956   C     0.81052   0.51987   0.85648   0.00000  Uiso   1.00
C957   C     0.79450   0.52220   0.90014   0.00000  Uiso   1.00
C958   C     0.86503   0.47003   0.60126   0.00000  Uiso   1.00
C959   C     0.73890   0.53128   0.96309   0.00000  Uiso   1.00
C960   C     0.82082   0.50949   0.91990   0.00000  Uiso   1.00
C961   C     0.80618   0.50367   0.96023   0.00000  Uiso   1.00
C962   C     0.76524   0.51602   0.98214   0.00000  Uiso   1.00
C963   C     0.83167   0.48657   0.97944   0.00000  Uiso   1.00
C964   C     0.81811   0.48655   0.52113   0.00000  Uiso   1.00
C965   C     0.77691   0.49825   0.54180   0.00000  Uiso   1.00
C966   C     0.75113   0.51224   0.52272   0.00000  Uiso   1.00
H967   H     0.71988   0.52004   0.54071   0.00000  Uiso   1.00
H968   H     0.87819   0.46276   0.92634   0.00000  Uiso   1.00
H969   H     0.68876   0.43084   0.81727   0.00000  Uiso   1.00
H970   H     0.96801   0.37180   0.94741   0.00000  Uiso   1.00
H971   H     0.94429   0.43777   0.52265   0.00000  Uiso   1.00
H972   H     0.68251   0.52257   0.71421   0.00000  Uiso   1.00
H973   H     0.87446   0.33610   0.71602   0.00000  Uiso   1.00
H974   H     0.79101   0.66579   0.78482   0.00000  Uiso   1.00
H975   H     0.80837   0.49311   0.60122   0.00000  Uiso   1.00
H976   H     0.92635   0.44825   0.59396   0.00000  Uiso   1.00
H977   H     0.85318   0.50447   0.90280   0.00000  Uiso   1.00
H978   H     0.76269   0.49569   0.57286   0.00000  Uiso   1.00
I979   I     0.67772   0.55212   0.99675   0.00000  Uiso   1.00
I980   I     0.70798   0.54787   0.89319   0.00000  Uiso   1.00
O981   O     0.83333   0.50000   0.75000   0.00000  Uiso   1.00
O982   O     0.82360   0.45726   0.66625   0.00000  Uiso   1.00
O983   O     0.79354   0.53979   0.83749   0.00000  Uiso   1.00
O984   O     0.87755   0.50826   0.65877   0.00000  Uiso   1.00
O985   O     0.83865   0.49468   0.83749   0.00000  Uiso   1.00
O986   O     0.94722   0.49820   0.83453   0.00000  Uiso   1.00
O987   O     0.95018   0.42852   0.79764   0.00000  Uiso   1.00
O988   O     0.67605   0.45607   0.83260   0.00000  Uiso   1.00
O989   O     0.94019   0.42119   0.90443   0.00000  Uiso   1.00
O990   O     0.98143   0.45585   0.94944   0.00000  Uiso   1.00
O991   O     0.94056   0.38241   0.96330   0.00000  Uiso   1.00
O992   O     0.84515   0.41434   0.77820   0.00000  Uiso   1.00
O993   O     0.81247   0.59469   0.76767   0.00000  Uiso   1.00
O994   O     0.74119   0.46584   0.73607   0.00000  Uiso   1.00
O995   O     0.93452   0.52512   0.71805   0.00000  Uiso   1.00
O996   O     0.73656   0.52293   0.77820   0.00000  Uiso   1.00
O997   O     0.92106   0.48610   0.76767   0.00000  Uiso   1.00
O998   O     0.80467   0.40236   0.73607   0.00000  Uiso   1.00
O999   O     0.87104   0.58860   0.71805   0.00000  Uiso   1.00
S1000  S     0.97659   0.46791   0.80799   0.00000  Uiso   1.00
S1001  S     0.94100   0.42864   0.94684   0.00000  Uiso   1.00
Zn1002 Zn    0.85910   0.47423   0.78277   0.00000  Uiso   1.00
Zn1003 Zn    0.80125   0.45711   0.72257   0.00000  Uiso   1.00
Zn1004 Zn    0.87833   0.52997   0.71188   0.00000  Uiso   1.00
Zn1005 Zn    0.79465   0.53868   0.78277   0.00000  Uiso   1.00
C1006  C     0.05298   0.82739   0.75810   0.00000  Uiso   1.00
C1007  C     0.20266   0.80129   0.95806   0.00000  Uiso   1.00
C1008  C     0.22900   0.78686   0.97678   0.00000  Uiso   1.00
C1009  C     0.28088   0.84008   0.74163   0.00000  Uiso   1.00
C1010  C     0.21872   0.79209   0.51840   0.00000  Uiso   1.00
C1011  C     0.17930   0.80791   0.54082   0.00000  Uiso   1.00
C1012  C     0.24705   0.78239   0.53832   0.00000  Uiso   1.00
C1013  C     0.23708   0.78843   0.57931   0.00000  Uiso   1.00
C1014  C     0.16984   0.81291   0.58241   0.00000  Uiso   1.00
C1015  C     0.32629   0.84106   0.73871   0.00000  Uiso   1.00
C1016  C     0.00756   0.82410   0.76432   0.00000  Uiso   1.00
C1017  C     0.08606   0.86611   0.92175   0.00000  Uiso   1.00
C1018  C     0.18086   0.98887   0.73826   0.00000  Uiso   1.00
C1019  C     0.15167   0.67888   0.76249   0.00000  Uiso   1.00
C1020  C     0.15589   0.72286   0.75908   0.00000  Uiso   1.00
C1021  C     0.17685   0.94436   0.74141   0.00000  Uiso   1.00
C1022  C     0.18855   0.81183   0.64402   0.00000  Uiso   1.00
C1023  C     0.14385   0.85321   0.85648   0.00000  Uiso   1.00
C1024  C     0.12783   0.85553   0.90014   0.00000  Uiso   1.00
C1025  C     0.19837   0.80336   0.60126   0.00000  Uiso   1.00
C1026  C     0.07223   0.86461   0.96309   0.00000  Uiso   1.00
C1027  C     0.15415   0.84282   0.91990   0.00000  Uiso   1.00
C1028  C     0.13952   0.83701   0.96023   0.00000  Uiso   1.00
C1029  C     0.09857   0.84935   0.98214   0.00000  Uiso   1.00
C1030  C     0.16501   0.81990   0.97944   0.00000  Uiso   1.00
C1031  C     0.15145   0.81989   0.52113   0.00000  Uiso   1.00
C1032  C     0.11024   0.83158   0.54180   0.00000  Uiso   1.00
C1033  C     0.08446   0.84558   0.52272   0.00000  Uiso   1.00
H1034  H     0.05321   0.85337   0.54071   0.00000  Uiso   1.00
H1035  H     0.21152   0.79609   0.92634   0.00000  Uiso   1.00
H1036  H     0.02209   0.76417   0.81727   0.00000  Uiso   1.00
H1037  H     0.30135   0.70513   0.94741   0.00000  Uiso   1.00
H1038  H     0.27762   0.77111   0.52265   0.00000  Uiso   1.00
H1039  H     0.01585   0.85590   0.71421   0.00000  Uiso   1.00
H1040  H     0.20780   0.66943   0.71602   0.00000  Uiso   1.00
H1041  H     0.12434   0.99912   0.78482   0.00000  Uiso   1.00
H1042  H     0.14170   0.82644   0.60122   0.00000  Uiso   1.00
H1043  H     0.25968   0.78158   0.59396   0.00000  Uiso   1.00
H1044  H     0.18651   0.83780   0.90280   0.00000  Uiso   1.00
H1045  H     0.09603   0.82903   0.57286   0.00000  Uiso   1.00
I1046  I     0.01105   0.88545   0.99675   0.00000  Uiso   1.00
I1047  I     0.04131   0.88120   0.89319   0.00000  Uiso   1.00
O1048  O     0.16667   0.83333   0.75000   0.00000  Uiso   1.00
O1049  O     0.15693   0.79060   0.66625   0.00000  Uiso   1.00
O1050  O     0.12687   0.87313   0.83749   0.00000  Uiso   1.00
O1051  O     0.21088   0.84159   0.65877   0.00000  Uiso   1.00
O1052  O     0.17198   0.82802   0.83749   0.00000  Uiso   1.00
O1053  O     0.28055   0.83154   0.83453   0.00000  Uiso   1.00
O1054  O     0.28351   0.76185   0.79764   0.00000  Uiso   1.00
O1055  O     0.00939   0.78941   0.83260   0.00000  Uiso   1.00
O1056  O     0.27352   0.75453   0.90443   0.00000  Uiso   1.00
O1057  O     0.31476   0.78919   0.94944   0.00000  Uiso   1.00
O1058  O     0.27389   0.71575   0.96330   0.00000  Uiso   1.00
O1059  O     0.17849   0.74768   0.77820   0.00000  Uiso   1.00
O1060  O     0.14581   0.92803   0.76767   0.00000  Uiso   1.00
O1061  O     0.07452   0.79917   0.73607   0.00000  Uiso   1.00
O1062  O     0.26785   0.85845   0.71805   0.00000  Uiso   1.00
O1063  O     0.06990   0.85627   0.77820   0.00000  Uiso   1.00
O1064  O     0.25440   0.81944   0.76767   0.00000  Uiso   1.00
O1065  O     0.13800   0.73570   0.73607   0.00000  Uiso   1.00
O1066  O     0.20437   0.92193   0.71805   0.00000  Uiso   1.00
S1067  S     0.30992   0.80124   0.80799   0.00000  Uiso   1.00
S1068  S     0.27434   0.76197   0.94684   0.00000  Uiso   1.00
Zn1069 Zn    0.19244   0.80756   0.78277   0.00000  Uiso   1.00
Zn1070 Zn    0.13459   0.79044   0.72257   0.00000  Uiso   1.00
Zn1071 Zn    0.21166   0.86331   0.71188   0.00000  Uiso   1.00
Zn1072 Zn    0.12798   0.87202   0.78277   0.00000  Uiso   1.00
C1073  C     0.38631   0.82739   0.75810   0.00000  Uiso   1.00
C1074  C     0.53600   0.80129   0.95806   0.00000  Uiso   1.00
C1075  C     0.56233   0.78686   0.97678   0.00000  Uiso   1.00
C1076  C     0.61421   0.84008   0.74163   0.00000  Uiso   1.00
C1077  C     0.55206   0.79209   0.51840   0.00000  Uiso   1.00
C1078  C     0.51264   0.80791   0.54082   0.00000  Uiso   1.00
C1079  C     0.58038   0.78239   0.53832   0.00000  Uiso   1.00
C1080  C     0.57042   0.78843   0.57931   0.00000  Uiso   1.00
C1081  C     0.50318   0.81291   0.58241   0.00000  Uiso   1.00
C1082  C     0.65963   0.84106   0.73871   0.00000  Uiso   1.00
C1083  C     0.34090   0.82410   0.76432   0.00000  Uiso   1.00
C1084  C     0.41939   0.86611   0.92175   0.00000  Uiso   1.00
C1085  C     0.51419   0.98887   0.73826   0.00000  Uiso   1.00
C1086  C     0.48500   0.67888   0.76249   0.00000  Uiso   1.00
C1087  C     0.48922   0.72286   0.75908   0.00000  Uiso   1.00
C1088  C     0.51018   0.94436   0.74141   0.00000  Uiso   1.00
C1089  C     0.52189   0.81183   0.64402   0.00000  Uiso   1.00
C1090  C     0.47719   0.85321   0.85648   0.00000  Uiso   1.00
C1091  C     0.46116   0.85553   0.90014   0.00000  Uiso   1.00
C1092  C     0.53170   0.80336   0.60126   0.00000  Uiso   1.00
C1093  C     0.40556   0.86461   0.96309   0.00000  Uiso   1.00
C1094  C     0.48748   0.84282   0.91990   0.00000  Uiso   1.00
C1095  C     0.47285   0.83701   0.96023   0.00000  Uiso   1.00
C1096  C     0.43191   0.84935   0.98214   0.00000  Uiso   1.00
C1097  C     0.49834   0.81990   0.97944   0.00000  Uiso   1.00
C1098  C     0.48478   0.81989   0.52113   0.00000  Uiso   1.00
C1099  C     0.44358   0.83158   0.54180   0.00000  Uiso   1.00
C1100  C     0.41779   0.84558   0.52272   0.00000  Uiso   1.00
H1101  H     0.38654   0.85337   0.54071   0.00000  Uiso   1.00
H1102  H     0.54486   0.79609   0.92634   0.00000  Uiso   1.00
H1103  H     0.35542   0.76417   0.81727   0.00000  Uiso   1.00
H1104  H     0.63468   0.70513   0.94741   0.00000  Uiso   1.00
H1105  H     0.61096   0.77111   0.52265   0.00000  Uiso   1.00
H1106  H     0.34918   0.85590   0.71421   0.00000  Uiso   1.00
H1107  H     0.54113   0.66943   0.71602   0.00000  Uiso   1.00
H1108  H     0.45768   0.99912   0.78482   0.00000  Uiso   1.00
H1109  H     0.47503   0.82644   0.60122   0.00000  Uiso   1.00
H1110  H     0.59301   0.78158   0.59396   0.00000  Uiso   1.00
H1111  H     0.51984   0.83780   0.90280   0.00000  Uiso   1.00
H1112  H     0.42936   0.82903   0.57286   0.00000  Uiso   1.00
I1113  I     0.34438   0.88545   0.99675   0.00000  Uiso   1.00
I1114  I     0.37464   0.88120   0.89319   0.00000  Uiso   1.00
O1115  O     0.50000   0.83333   0.75000   0.00000  Uiso   1.00
O1116  O     0.49027   0.79060   0.66625   0.00000  Uiso   1.00
O1117  O     0.46020   0.87313   0.83749   0.00000  Uiso   1.00
O1118  O     0.54421   0.84159   0.65877   0.00000  Uiso   1.00
O1119  O     0.50532   0.82802   0.83749   0.00000  Uiso   1.00
O1120  O     0.61389   0.83154   0.83453   0.00000  Uiso   1.00
O1121  O     0.61684   0.76185   0.79764   0.00000  Uiso   1.00
O1122  O     0.34272   0.78941   0.83260   0.00000  Uiso   1.00
O1123  O     0.60686   0.75453   0.90443   0.00000  Uiso   1.00
O1124  O     0.64809   0.78919   0.94944   0.00000  Uiso   1.00
O1125  O     0.60722   0.71575   0.96330   0.00000  Uiso   1.00
O1126  O     0.51182   0.74768   0.77820   0.00000  Uiso   1.00
O1127  O     0.47914   0.92803   0.76767   0.00000  Uiso   1.00
O1128  O     0.40785   0.79917   0.73607   0.00000  Uiso   1.00
O1129  O     0.60119   0.85845   0.71805   0.00000  Uiso   1.00
O1130  O     0.40323   0.85627   0.77820   0.00000  Uiso   1.00
O1131  O     0.58773   0.81944   0.76767   0.00000  Uiso   1.00
O1132  O     0.47133   0.73570   0.73607   0.00000  Uiso   1.00
O1133  O     0.53771   0.92193   0.71805   0.00000  Uiso   1.00
S1134  S     0.64325   0.80124   0.80799   0.00000  Uiso   1.00
S1135  S     0.60767   0.76197   0.94684   0.00000  Uiso   1.00
Zn1136 Zn    0.52577   0.80756   0.78277   0.00000  Uiso   1.00
Zn1137 Zn    0.46792   0.79044   0.72257   0.00000  Uiso   1.00
Zn1138 Zn    0.54500   0.86331   0.71188   0.00000  Uiso   1.00
Zn1139 Zn    0.46131   0.87202   0.78277   0.00000  Uiso   1.00
C1140  C     0.71965   0.82739   0.75810   0.00000  Uiso   1.00
C1141  C     0.86933   0.80129   0.95806   0.00000  Uiso   1.00
C1142  C     0.89567   0.78686   0.97678   0.00000  Uiso   1.00
C1143  C     0.94754   0.84008   0.74163   0.00000  Uiso   1.00
C1144  C     0.88539   0.79209   0.51840   0.00000  Uiso   1.00
C1145  C     0.84597   0.80791   0.54082   0.00000  Uiso   1.00
C1146  C     0.91372   0.78239   0.53832   0.00000  Uiso   1.00
C1147  C     0.90375   0.78843   0.57931   0.00000  Uiso   1.00
C1148  C     0.83651   0.81291   0.58241   0.00000  Uiso   1.00
C1149  C     0.99296   0.84106   0.73871   0.00000  Uiso   1.00
C1150  C     0.67423   0.82410   0.76432   0.00000  Uiso   1.00
C1151  C     0.75272   0.86611   0.92175   0.00000  Uiso   1.00
C1152  C     0.84753   0.98887   0.73826   0.00000  Uiso   1.00
C1153  C     0.81833   0.67888   0.76249   0.00000  Uiso   1.00
C1154  C     0.82256   0.72286   0.75908   0.00000  Uiso   1.00
C1155  C     0.84352   0.94436   0.74141   0.00000  Uiso   1.00
C1156  C     0.85522   0.81183   0.64402   0.00000  Uiso   1.00
C1157  C     0.81052   0.85321   0.85648   0.00000  Uiso   1.00
C1158  C     0.79450   0.85553   0.90014   0.00000  Uiso   1.00
C1159  C     0.86503   0.80336   0.60126   0.00000  Uiso   1.00
C1160  C     0.73890   0.86461   0.96309   0.00000  Uiso   1.00
C1161  C     0.82082   0.84282   0.91990   0.00000  Uiso   1.00
C1162  C     0.80618   0.83701   0.96023   0.00000  Uiso   1.00
C1163  C     0.76524   0.84935   0.98214   0.00000  Uiso   1.00
C1164  C     0.83167   0.81990   0.97944   0.00000  Uiso   1.00
C1165  C     0.81811   0.81989   0.52113   0.00000  Uiso   1.00
C1166  C     0.77691   0.83158   0.54180   0.00000  Uiso   1.00
C1167  C     0.75113   0.84558   0.52272   0.00000  Uiso   1.00
H1168  H     0.71988   0.85337   0.54071   0.00000  Uiso   1.00
H1169  H     0.87819   0.79609   0.92634   0.00000  Uiso   1.00
H1170  H     0.68876   0.76417   0.81727   0.00000  Uiso   1.00
H1171  H     0.96801   0.70513   0.94741   0.00000  Uiso   1.00
H1172  H     0.94429   0.77111   0.52265   0.00000  Uiso   1.00
H1173  H     0.68251   0.85590   0.71421   0.00000  Uiso   1.00
H1174  H     0.87446   0.66943   0.71602   0.00000  Uiso   1.00
H1175  H     0.79101   0.99912   0.78482   0.00000  Uiso   1.00
H1176  H     0.80837   0.82644   0.60122   0.00000  Uiso   1.00
H1177  H     0.92635   0.78158   0.59396   0.00000  Uiso   1.00
H1178  H     0.85318   0.83780   0.90280   0.00000  Uiso   1.00
H1179  H     0.76269   0.82903   0.57286   0.00000  Uiso   1.00
I1180  I     0.67772   0.88545   0.99675   0.00000  Uiso   1.00
I1181  I     0.70798   0.88120   0.89319   0.00000  Uiso   1.00
O1182  O     0.83333   0.83333   0.75000   0.00000  Uiso   1.00
O1183  O     0.82360   0.79060   0.66625   0.00000  Uiso   1.00
O1184  O     0.79354   0.87313   0.83749   0.00000  Uiso   1.00
O1185  O     0.87755   0.84159   0.65877   0.00000  Uiso   1.00
O1186  O     0.83865   0.82802   0.83749   0.00000  Uiso   1.00
O1187  O     0.94722   0.83154   0.83453   0.00000  Uiso   1.00
O1188  O     0.95018   0.76185   0.79764   0.00000  Uiso   1.00
O1189  O     0.67605   0.78941   0.83260   0.00000  Uiso   1.00
O1190  O     0.94019   0.75453   0.90443   0.00000  Uiso   1.00
O1191  O     0.98143   0.78919   0.94944   0.00000  Uiso   1.00
O1192  O     0.94056   0.71575   0.96330   0.00000  Uiso   1.00
O1193  O     0.84515   0.74768   0.77820   0.00000  Uiso   1.00
O1194  O     0.81247   0.92803   0.76767   0.00000  Uiso   1.00
O1195  O     0.74119   0.79917   0.73607   0.00000  Uiso   1.00
O1196  O     0.93452   0.85845   0.71805   0.00000  Uiso   1.00
O1197  O     0.73656   0.85627   0.77820   0.00000  Uiso   1.00
O1198  O     0.92106   0.81944   0.76767   0.00000  Uiso   1.00
O1199  O     0.80467   0.73570   0.73607   0.00000  Uiso   1.00
O1200  O     0.87104   0.92193   0.71805   0.00000  Uiso   1.00
S1201  S     0.97659   0.80124   0.80799   0.00000  Uiso   1.00
S1202  S     0.94100   0.76197   0.94684   0.00000  Uiso   1.00
Zn1203 Zn    0.85910   0.80756   0.78277   0.00000  Uiso   1.00
Zn1204 Zn    0.80125   0.79044   0.72257   0.00000  Uiso   1.00
Zn1205 Zn    0.87833   0.86331   0.71188   0.00000  Uiso   1.00
Zn1206 Zn    0.79465   0.87202   0.78277   0.00000  Uiso   1.00
loop_
_geom_bond_atom_site_label_1
_geom_bond_atom_site_label_2
_geom_bond_distance
_geom_bond_site_symmetry_2
_ccdc_geom_bond_type
C1     C11     1.428   .     S
C1     O56     1.269   .     A
C1     O58     1.264   .     A
C2     H30     1.075   .     S
C2     C3      1.395   .     A
C2     C25     1.413   .     A
C3     S63     1.778   .     S
C3     C608    1.411   .     S
C4     O57     1.290   .     A
C4     C10     1.455   .     S
C4     O59     1.263   .     A
C5     C6      1.426   .     A
C5     C7      1.412   .     A
C5     C606    1.411   1_554 S
C6     C9      1.412   .     A
C6     C26     1.424   .     A
C7     H33     1.080   .     S
C7     C8      1.391   .     A
C8     C20     1.392   .     A
C8     H38     1.084   .     S
C9     C20     1.388   .     A
C9     H37     1.077   .     S
C10    C78     1.354   .     S
C10    H101    1.088   .     S
C11    C144    1.354   1_455 S
C11    S196    1.782   1_455 S
C12    C19     1.421   .     A
C12    I42     2.154   .     S
C12    C21     1.413   .     A
C13    C16     1.450   .     S
C13    C215    1.331   .     S
C13    H236    1.088   .     S
C14    C15     1.434   .     S
C14    C415    1.331   1_545 S
C14    H438    1.086   1_545 S
C15    O60     1.278   .     A
C15    O54     1.279   .     A
C16    O55     1.270   .     A
C16    O61     1.269   .     A
C17    C20     1.455   .     S
C17    O44     1.281   .     A
C17    O46     1.276   .     A
C18    O45     1.276   .     A
C18    O47     1.291   .     A
C18    C19     1.482   .     S
C19    C22     1.395   .     A
C21    I41     2.157   .     S
C21    C24     1.417   .     A
C22    H39     1.078   .     S
C22    C23     1.405   .     A
C23    C24     1.420   .     A
C23    C25     1.430   .     A
C24    C631    1.399   .     S
C25    C629    1.419   .     S
C26    C27     1.410   .     A
C26    C628    1.419   1_554 S
C27    H40     1.077   .     S
C27    C28     1.383   .     A
C28    H29     1.079   .     S
C28    C627    1.399   1_554 S
H31    O50     0.991   .     S
H32    O53     0.991   .     S
H34    C144    1.088   1_455 S
H35    C415    1.088   1_545 S
H36    C215    1.086   .     S
O43    Zn65    1.951   .     S
O43    Zn66    1.935   .     S
O43    Zn67    1.928   .     S
O43    Zn64    1.956   .     S
O44    Zn65    1.923   .     S
O45    Zn67    1.934   .     S
O46    Zn66    1.931   .     S
O47    Zn64    1.920   .     S
O48    S62     1.503   .     D
O49    S62     1.504   .     D
O50    S196    1.683   1_455 S
O51    S63     1.504   .     D
O52    S63     1.503   .     D
O53    S63     1.682   .     S
O54    Zn64    1.929   .     S
O55    Zn67    1.929   .     S
O56    Zn65    1.934   .     S
O57    Zn66    1.946   .     S
O58    Zn67    1.946   .     S
O59    Zn64    1.935   .     S
O60    Zn65    1.931   .     S
O61    Zn66    1.926   .     S
S62    O117    1.683   .     S
S62    C78     1.782   .     S
C68    C78     1.428   .     S
C68    O123    1.269   .     A
C68    O125    1.264   .     A
C69    H97     1.075   .     S
C69    C70     1.395   .     A
C69    C92     1.413   .     A
C70    S130    1.778   .     S
C70    C675    1.411   .     S
C71    O124    1.290   .     A
C71    C77     1.455   .     S
C71    O126    1.263   .     A
C72    C73     1.426   .     A
C72    C74     1.412   .     A
C72    C673    1.411   1_554 S
C73    C76     1.412   .     A
C73    C93     1.424   .     A
C74    H100    1.080   .     S
C74    C75     1.391   .     A
C75    C87     1.392   .     A
C75    H105    1.084   .     S
C76    C87     1.388   .     A
C76    H104    1.077   .     S
C77    C145    1.354   .     S
C77    H168    1.088   .     S
C79    C86     1.421   .     A
C79    I109    2.154   .     S
C79    C88     1.413   .     A
C80    C83     1.450   .     S
C80    C282    1.331   .     S
C80    H303    1.088   .     S
C81    C82     1.434   .     S
C81    C482    1.331   1_545 S
C81    H505    1.086   1_545 S
C82    O127    1.278   .     A
C82    O121    1.279   .     A
C83    O122    1.270   .     A
C83    O128    1.269   .     A
C84    C87     1.455   .     S
C84    O111    1.281   .     A
C84    O113    1.276   .     A
C85    O112    1.276   .     A
C85    O114    1.291   .     A
C85    C86     1.482   .     S
C86    C89     1.395   .     A
C88    I108    2.157   .     S
C88    C91     1.417   .     A
C89    H106    1.078   .     S
C89    C90     1.405   .     A
C90    C91     1.420   .     A
C90    C92     1.430   .     A
C91    C698    1.399   .     S
C92    C696    1.419   .     S
C93    C94     1.410   .     A
C93    C695    1.419   1_554 S
C94    H107    1.077   .     S
C94    C95     1.383   .     A
C95    H96     1.079   .     S
C95    C694    1.399   1_554 S
H98    O117    0.991   .     S
H99    O120    0.991   .     S
H102   C482    1.088   1_545 S
H103   C282    1.086   .     S
O110   Zn132   1.951   .     S
O110   Zn133   1.935   .     S
O110   Zn134   1.928   .     S
O110   Zn131   1.956   .     S
O111   Zn132   1.923   .     S
O112   Zn134   1.934   .     S
O113   Zn133   1.931   .     S
O114   Zn131   1.920   .     S
O115   S129    1.503   .     D
O116   S129    1.504   .     D
O118   S130    1.504   .     D
O119   S130    1.503   .     D
O120   S130    1.682   .     S
O121   Zn131   1.929   .     S
O122   Zn134   1.929   .     S
O123   Zn132   1.934   .     S
O124   Zn133   1.946   .     S
O125   Zn134   1.946   .     S
O126   Zn131   1.935   .     S
O127   Zn132   1.931   .     S
O128   Zn133   1.926   .     S
S129   O184    1.683   .     S
S129   C145    1.782   .     S
C135   C145    1.428   .     S
C135   O190    1.269   .     A
C135   O192    1.264   .     A
C136   H164    1.075   .     S
C136   C137    1.395   .     A
C136   C159    1.413   .     A
C137   S197    1.778   .     S
C137   C742    1.411   .     S
C138   O191    1.290   .     A
C138   C144    1.455   .     S
C138   O193    1.263   .     A
C139   C140    1.426   .     A
C139   C141    1.412   .     A
C139   C740    1.411   1_554 S
C140   C143    1.412   .     A
C140   C160    1.424   .     A
C141   H167    1.080   .     S
C141   C142    1.391   .     A
C142   C154    1.392   .     A
C142   H172    1.084   .     S
C143   C154    1.388   .     A
C143   H171    1.077   .     S
C144   C11     1.354   1_655 S
C144   H34     1.088   1_655 S
C146   C153    1.421   .     A
C146   I176    2.154   .     S
C146   C155    1.413   .     A
C147   C150    1.450   .     S
C147   C349    1.331   .     S
C147   H370    1.088   .     S
C148   C149    1.434   .     S
C148   C549    1.331   1_545 S
C148   H572    1.086   1_545 S
C149   O194    1.278   .     A
C149   O188    1.279   .     A
C150   O189    1.270   .     A
C150   O195    1.269   .     A
C151   C154    1.455   .     S
C151   O178    1.281   .     A
C151   O180    1.276   .     A
C152   O179    1.276   .     A
C152   O181    1.291   .     A
C152   C153    1.482   .     S
C153   C156    1.395   .     A
C155   I175    2.157   .     S
C155   C158    1.417   .     A
C156   H173    1.078   .     S
C156   C157    1.405   .     A
C157   C158    1.420   .     A
C157   C159    1.430   .     A
C158   C765    1.399   .     S
C159   C763    1.419   .     S
C160   C161    1.410   .     A
C160   C762    1.419   1_554 S
C161   H174    1.077   .     S
C161   C162    1.383   .     A
C162   H163    1.079   .     S
C162   C761    1.399   1_554 S
H165   O184    0.991   .     S
H166   O187    0.991   .     S
H169   C549    1.088   1_545 S
H170   C349    1.086   .     S
O177   Zn199   1.951   .     S
O177   Zn200   1.935   .     S
O177   Zn201   1.928   .     S
O177   Zn198   1.956   .     S
O178   Zn199   1.923   .     S
O179   Zn201   1.934   .     S
O180   Zn200   1.931   .     S
O181   Zn198   1.920   .     S
O182   S196    1.503   .     D
O183   S196    1.504   .     D
O185   S197    1.504   .     D
O186   S197    1.503   .     D
O187   S197    1.682   .     S
O188   Zn198   1.929   .     S
O189   Zn201   1.929   .     S
O190   Zn199   1.934   .     S
O191   Zn200   1.946   .     S
O192   Zn201   1.946   .     S
O193   Zn198   1.935   .     S
O194   Zn199   1.931   .     S
O195   Zn200   1.926   .     S
S196   O50     1.683   1_655 S
S196   C11     1.782   1_655 S
C202   C212    1.428   .     S
C202   O257    1.269   .     A
C202   O259    1.264   .     A
C203   H231    1.075   .     S
C203   C204    1.395   .     A
C203   C226    1.413   .     A
C204   S264    1.778   .     S
C204   C809    1.411   .     S
C205   O258    1.290   .     A
C205   C211    1.455   .     S
C205   O260    1.263   .     A
C206   C207    1.426   .     A
C206   C208    1.412   .     A
C206   C807    1.411   1_554 S
C207   C210    1.412   .     A
C207   C227    1.424   .     A
C208   H234    1.080   .     S
C208   C209    1.391   .     A
C209   C221    1.392   .     A
C209   H239    1.084   .     S
C210   C221    1.388   .     A
C210   H238    1.077   .     S
C211   C279    1.354   .     S
C211   H302    1.088   .     S
C212   C345    1.354   1_455 S
C212   S397    1.782   1_455 S
C213   C220    1.421   .     A
C213   I243    2.154   .     S
C213   C222    1.413   .     A
C214   C217    1.450   .     S
C214   C416    1.331   .     S
C214   H437    1.088   .     S
C215   C216    1.434   .     S
C216   O261    1.278   .     A
C216   O255    1.279   .     A
C217   O256    1.270   .     A
C217   O262    1.269   .     A
C218   C221    1.455   .     S
C218   O245    1.281   .     A
C218   O247    1.276   .     A
C219   O246    1.276   .     A
C219   O248    1.291   .     A
C219   C220    1.482   .     S
C220   C223    1.395   .     A
C222   I242    2.157   .     S
C222   C225    1.417   .     A
C223   H240    1.078   .     S
C223   C224    1.405   .     A
C224   C225    1.420   .     A
C224   C226    1.430   .     A
C225   C832    1.399   .     S
C226   C830    1.419   .     S
C227   C228    1.410   .     A
C227   C829    1.419   1_554 S
C228   H241    1.077   .     S
C228   C229    1.383   .     A
C229   H230    1.079   .     S
C229   C828    1.399   1_554 S
H232   O251    0.991   .     S
H233   O254    0.991   .     S
H235   C345    1.088   1_455 S
H237   C416    1.086   .     S
O244   Zn266   1.951   .     S
O244   Zn267   1.935   .     S
O244   Zn268   1.928   .     S
O244   Zn265   1.956   .     S
O245   Zn266   1.923   .     S
O246   Zn268   1.934   .     S
O247   Zn267   1.931   .     S
O248   Zn265   1.920   .     S
O249   S263    1.503   .     D
O250   S263    1.504   .     D
O251   S397    1.683   1_455 S
O252   S264    1.504   .     D
O253   S264    1.503   .     D
O254   S264    1.682   .     S
O255   Zn265   1.929   .     S
O256   Zn268   1.929   .     S
O257   Zn266   1.934   .     S
O258   Zn267   1.946   .     S
O259   Zn268   1.946   .     S
O260   Zn265   1.935   .     S
O261   Zn266   1.931   .     S
O262   Zn267   1.926   .     S
S263   O318    1.683   .     S
S263   C279    1.782   .     S
C269   C279    1.428   .     S
C269   O324    1.269   .     A
C269   O326    1.264   .     A
C270   H298    1.075   .     S
C270   C271    1.395   .     A
C270   C293    1.413   .     A
C271   S331    1.778   .     S
C271   C876    1.411   .     S
C272   O325    1.290   .     A
C272   C278    1.455   .     S
C272   O327    1.263   .     A
C273   C274    1.426   .     A
C273   C275    1.412   .     A
C273   C874    1.411   1_554 S
C274   C277    1.412   .     A
C274   C294    1.424   .     A
C275   H301    1.080   .     S
C275   C276    1.391   .     A
C276   C288    1.392   .     A
C276   H306    1.084   .     S
C277   C288    1.388   .     A
C277   H305    1.077   .     S
C278   C346    1.354   .     S
C278   H369    1.088   .     S
C280   C287    1.421   .     A
C280   I310    2.154   .     S
C280   C289    1.413   .     A
C281   C284    1.450   .     S
C281   C483    1.331   .     S
C281   H504    1.088   .     S
C282   C283    1.434   .     S
C283   O328    1.278   .     A
C283   O322    1.279   .     A
C284   O323    1.270   .     A
C284   O329    1.269   .     A
C285   C288    1.455   .     S
C285   O312    1.281   .     A
C285   O314    1.276   .     A
C286   O313    1.276   .     A
C286   O315    1.291   .     A
C286   C287    1.482   .     S
C287   C290    1.395   .     A
C289   I309    2.157   .     S
C289   C292    1.417   .     A
C290   H307    1.078   .     S
C290   C291    1.405   .     A
C291   C292    1.420   .     A
C291   C293    1.430   .     A
C292   C899    1.399   .     S
C293   C897    1.419   .     S
C294   C295    1.410   .     A
C294   C896    1.419   1_554 S
C295   H308    1.077   .     S
C295   C296    1.383   .     A
C296   H297    1.079   .     S
C296   C895    1.399   1_554 S
H299   O318    0.991   .     S
H300   O321    0.991   .     S
H304   C483    1.086   .     S
O311   Zn333   1.951   .     S
O311   Zn334   1.935   .     S
O311   Zn335   1.928   .     S
O311   Zn332   1.956   .     S
O312   Zn333   1.923   .     S
O313   Zn335   1.934   .     S
O314   Zn334   1.931   .     S
O315   Zn332   1.920   .     S
O316   S330    1.503   .     D
O317   S330    1.504   .     D
O319   S331    1.504   .     D
O320   S331    1.503   .     D
O321   S331    1.682   .     S
O322   Zn332   1.929   .     S
O323   Zn335   1.929   .     S
O324   Zn333   1.934   .     S
O325   Zn334   1.946   .     S
O326   Zn335   1.946   .     S
O327   Zn332   1.935   .     S
O328   Zn333   1.931   .     S
O329   Zn334   1.926   .     S
S330   O385    1.683   .     S
S330   C346    1.782   .     S
C336   C346    1.428   .     S
C336   O391    1.269   .     A
C336   O393    1.264   .     A
C337   H365    1.075   .     S
C337   C338    1.395   .     A
C337   C360    1.413   .     A
C338   S398    1.778   .     S
C338   C943    1.411   .     S
C339   O392    1.290   .     A
C339   C345    1.455   .     S
C339   O394    1.263   .     A
C340   C341    1.426   .     A
C340   C342    1.412   .     A
C340   C941    1.411   1_554 S
C341   C344    1.412   .     A
C341   C361    1.424   .     A
C342   H368    1.080   .     S
C342   C343    1.391   .     A
C343   C355    1.392   .     A
C343   H373    1.084   .     S
C344   C355    1.388   .     A
C344   H372    1.077   .     S
C345   C212    1.354   1_655 S
C345   H235    1.088   1_655 S
C347   C354    1.421   .     A
C347   I377    2.154   .     S
C347   C356    1.413   .     A
C348   C351    1.450   .     S
C348   C550    1.331   .     S
C348   H571    1.088   .     S
C349   C350    1.434   .     S
C350   O395    1.278   .     A
C350   O389    1.279   .     A
C351   O390    1.270   .     A
C351   O396    1.269   .     A
C352   C355    1.455   .     S
C352   O379    1.281   .     A
C352   O381    1.276   .     A
C353   O380    1.276   .     A
C353   O382    1.291   .     A
C353   C354    1.482   .     S
C354   C357    1.395   .     A
C356   I376    2.157   .     S
C356   C359    1.417   .     A
C357   H374    1.078   .     S
C357   C358    1.405   .     A
C358   C359    1.420   .     A
C358   C360    1.430   .     A
C359   C966    1.399   .     S
C360   C964    1.419   .     S
C361   C362    1.410   .     A
C361   C963    1.419   1_554 S
C362   H375    1.077   .     S
C362   C363    1.383   .     A
C363   H364    1.079   .     S
C363   C962    1.399   1_554 S
H366   O385    0.991   .     S
H367   O388    0.991   .     S
H371   C550    1.086   .     S
O378   Zn400   1.951   .     S
O378   Zn401   1.935   .     S
O378   Zn402   1.928   .     S
O378   Zn399   1.956   .     S
O379   Zn400   1.923   .     S
O380   Zn402   1.934   .     S
O381   Zn401   1.931   .     S
O382   Zn399   1.920   .     S
O383   S397    1.503   .     D
O384   S397    1.504   .     D
O386   S398    1.504   .     D
O387   S398    1.503   .     D
O388   S398    1.682   .     S
O389   Zn399   1.929   .     S
O390   Zn402   1.929   .     S
O391   Zn400   1.934   .     S
O392   Zn401   1.946   .     S
O393   Zn402   1.946   .     S
O394   Zn399   1.935   .     S
O395   Zn400   1.931   .     S
O396   Zn401   1.926   .     S
S397   O251    1.683   1_655 S
S397   C212    1.782   1_655 S
C403   C413    1.428   .     S
C403   O458    1.269   .     A
C403   O460    1.264   .     A
C404   H432    1.075   .     S
C404   C405    1.395   .     A
C404   C427    1.413   .     A
C405   S465    1.778   .     S
C405   C1010   1.411   .     S
C406   O459    1.290   .     A
C406   C412    1.455   .     S
C406   O461    1.263   .     A
C407   C408    1.426   .     A
C407   C409    1.412   .     A
C407   C1008   1.411   1_554 S
C408   C411    1.412   .     A
C408   C428    1.424   .     A
C409   H435    1.080   .     S
C409   C410    1.391   .     A
C410   C422    1.392   .     A
C410   H440    1.084   .     S
C411   C422    1.388   .     A
C411   H439    1.077   .     S
C412   C480    1.354   .     S
C412   H503    1.088   .     S
C413   C546    1.354   1_455 S
C413   S598    1.782   1_455 S
C414   C421    1.421   .     A
C414   I444    2.154   .     S
C414   C423    1.413   .     A
C415   C418    1.450   .     S
C415   C14     1.331   1_565 S
C415   H35     1.088   1_565 S
C416   C417    1.434   .     S
C417   O462    1.278   .     A
C417   O456    1.279   .     A
C418   O457    1.270   .     A
C418   O463    1.269   .     A
C419   C422    1.455   .     S
C419   O446    1.281   .     A
C419   O448    1.276   .     A
C420   O447    1.276   .     A
C420   O449    1.291   .     A
C420   C421    1.482   .     S
C421   C424    1.395   .     A
C423   I443    2.157   .     S
C423   C426    1.417   .     A
C424   H441    1.078   .     S
C424   C425    1.405   .     A
C425   C426    1.420   .     A
C425   C427    1.430   .     A
C426   C1033   1.399   .     S
C427   C1031   1.419   .     S
C428   C429    1.410   .     A
C428   C1030   1.419   1_554 S
C429   H442    1.077   .     S
C429   C430    1.383   .     A
C430   H431    1.079   .     S
C430   C1029   1.399   1_554 S
H433   O452    0.991   .     S
H434   O455    0.991   .     S
H436   C546    1.088   1_455 S
H438   C14     1.086   1_565 S
O445   Zn467   1.951   .     S
O445   Zn468   1.935   .     S
O445   Zn469   1.928   .     S
O445   Zn466   1.956   .     S
O446   Zn467   1.923   .     S
O447   Zn469   1.934   .     S
O448   Zn468   1.931   .     S
O449   Zn466   1.920   .     S
O450   S464    1.503   .     D
O451   S464    1.504   .     D
O452   S598    1.683   1_455 S
O453   S465    1.504   .     D
O454   S465    1.503   .     D
O455   S465    1.682   .     S
O456   Zn466   1.929   .     S
O457   Zn469   1.929   .     S
O458   Zn467   1.934   .     S
O459   Zn468   1.946   .     S
O460   Zn469   1.946   .     S
O461   Zn466   1.935   .     S
O462   Zn467   1.931   .     S
O463   Zn468   1.926   .     S
S464   O519    1.683   .     S
S464   C480    1.782   .     S
C470   C480    1.428   .     S
C470   O525    1.269   .     A
C470   O527    1.264   .     A
C471   H499    1.075   .     S
C471   C472    1.395   .     A
C471   C494    1.413   .     A
C472   S532    1.778   .     S
C472   C1077   1.411   .     S
C473   O526    1.290   .     A
C473   C479    1.455   .     S
C473   O528    1.263   .     A
C474   C475    1.426   .     A
C474   C476    1.412   .     A
C474   C1075   1.411   1_554 S
C475   C478    1.412   .     A
C475   C495    1.424   .     A
C476   H502    1.080   .     S
C476   C477    1.391   .     A
C477   C489    1.392   .     A
C477   H507    1.084   .     S
C478   C489    1.388   .     A
C478   H506    1.077   .     S
C479   C547    1.354   .     S
C479   H570    1.088   .     S
C481   C488    1.421   .     A
C481   I511    2.154   .     S
C481   C490    1.413   .     A
C482   C485    1.450   .     S
C482   C81     1.331   1_565 S
C482   H102    1.088   1_565 S
C483   C484    1.434   .     S
C484   O529    1.278   .     A
C484   O523    1.279   .     A
C485   O524    1.270   .     A
C485   O530    1.269   .     A
C486   C489    1.455   .     S
C486   O513    1.281   .     A
C486   O515    1.276   .     A
C487   O514    1.276   .     A
C487   O516    1.291   .     A
C487   C488    1.482   .     S
C488   C491    1.395   .     A
C490   I510    2.157   .     S
C490   C493    1.417   .     A
C491   H508    1.078   .     S
C491   C492    1.405   .     A
C492   C493    1.420   .     A
C492   C494    1.430   .     A
C493   C1100   1.399   .     S
C494   C1098   1.419   .     S
C495   C496    1.410   .     A
C495   C1097   1.419   1_554 S
C496   H509    1.077   .     S
C496   C497    1.383   .     A
C497   H498    1.079   .     S
C497   C1096   1.399   1_554 S
H500   O519    0.991   .     S
H501   O522    0.991   .     S
H505   C81     1.086   1_565 S
O512   Zn534   1.951   .     S
O512   Zn535   1.935   .     S
O512   Zn536   1.928   .     S
O512   Zn533   1.956   .     S
O513   Zn534   1.923   .     S
O514   Zn536   1.934   .     S
O515   Zn535   1.931   .     S
O516   Zn533   1.920   .     S
O517   S531    1.503   .     D
O518   S531    1.504   .     D
O520   S532    1.504   .     D
O521   S532    1.503   .     D
O522   S532    1.682   .     S
O523   Zn533   1.929   .     S
O524   Zn536   1.929   .     S
O525   Zn534   1.934   .     S
O526   Zn535   1.946   .     S
O527   Zn536   1.946   .     S
O528   Zn533   1.935   .     S
O529   Zn534   1.931   .     S
O530   Zn535   1.926   .     S
S531   O586    1.683   .     S
S531   C547    1.782   .     S
C537   C547    1.428   .     S
C537   O592    1.269   .     A
C537   O594    1.264   .     A
C538   H566    1.075   .     S
C538   C539    1.395   .     A
C538   C561    1.413   .     A
C539   S599    1.778   .     S
C539   C1144   1.411   .     S
C540   O593    1.290   .     A
C540   C546    1.455   .     S
C540   O595    1.263   .     A
C541   C542    1.426   .     A
C541   C543    1.412   .     A
C541   C1142   1.411   1_554 S
C542   C545    1.412   .     A
C542   C562    1.424   .     A
C543   H569    1.080   .     S
C543   C544    1.391   .     A
C544   C556    1.392   .     A
C544   H574    1.084   .     S
C545   C556    1.388   .     A
C545   H573    1.077   .     S
C546   C413    1.354   1_655 S
C546   H436    1.088   1_655 S
C548   C555    1.421   .     A
C548   I578    2.154   .     S
C548   C557    1.413   .     A
C549   C552    1.450   .     S
C549   C148    1.331   1_565 S
C549   H169    1.088   1_565 S
C550   C551    1.434   .     S
C551   O596    1.278   .     A
C551   O590    1.279   .     A
C552   O591    1.270   .     A
C552   O597    1.269   .     A
C553   C556    1.455   .     S
C553   O580    1.281   .     A
C553   O582    1.276   .     A
C554   O581    1.276   .     A
C554   O583    1.291   .     A
C554   C555    1.482   .     S
C555   C558    1.395   .     A
C557   I577    2.157   .     S
C557   C560    1.417   .     A
C558   H575    1.078   .     S
C558   C559    1.405   .     A
C559   C560    1.420   .     A
C559   C561    1.430   .     A
C560   C1167   1.399   .     S
C561   C1165   1.419   .     S
C562   C563    1.410   .     A
C562   C1164   1.419   1_554 S
C563   H576    1.077   .     S
C563   C564    1.383   .     A
C564   H565    1.079   .     S
C564   C1163   1.399   1_554 S
H567   O586    0.991   .     S
H568   O589    0.991   .     S
H572   C148    1.086   1_565 S
O579   Zn601   1.951   .     S
O579   Zn602   1.935   .     S
O579   Zn603   1.928   .     S
O579   Zn600   1.956   .     S
O580   Zn601   1.923   .     S
O581   Zn603   1.934   .     S
O582   Zn602   1.931   .     S
O583   Zn600   1.920   .     S
O584   S598    1.503   .     D
O585   S598    1.504   .     D
O587   S599    1.504   .     D
O588   S599    1.503   .     D
O589   S599    1.682   .     S
O590   Zn600   1.929   .     S
O591   Zn603   1.929   .     S
O592   Zn601   1.934   .     S
O593   Zn602   1.946   .     S
O594   Zn603   1.946   .     S
O595   Zn600   1.935   .     S
O596   Zn601   1.931   .     S
O597   Zn602   1.926   .     S
S598   O452    1.683   1_655 S
S598   C413    1.782   1_655 S
C604   C614    1.428   .     S
C604   O659    1.269   .     A
C604   O661    1.264   .     A
C605   H633    1.075   .     S
C605   C606    1.395   .     A
C605   C628    1.413   .     A
C606   S666    1.778   .     S
C606   C5      1.411   1_556 S
C607   O660    1.290   .     A
C607   C613    1.455   .     S
C607   O662    1.263   .     A
C608   C609    1.426   .     A
C608   C610    1.412   .     A
C609   C612    1.412   .     A
C609   C629    1.424   .     A
C610   H636    1.080   .     S
C610   C611    1.391   .     A
C611   C623    1.392   .     A
C611   H641    1.084   .     S
C612   C623    1.388   .     A
C612   H640    1.077   .     S
C613   C681    1.354   .     S
C613   H704    1.088   .     S
C614   C747    1.354   1_455 S
C614   S799    1.782   1_455 S
C615   C622    1.421   .     A
C615   I645    2.154   .     S
C615   C624    1.413   .     A
C616   C619    1.450   .     S
C616   C818    1.331   .     S
C616   H839    1.088   .     S
C617   C618    1.434   .     S
C617   C1018   1.331   1_545 S
C617   H1041   1.086   1_545 S
C618   O663    1.278   .     A
C618   O657    1.279   .     A
C619   O658    1.270   .     A
C619   O664    1.269   .     A
C620   C623    1.455   .     S
C620   O647    1.281   .     A
C620   O649    1.276   .     A
C621   O648    1.276   .     A
C621   O650    1.291   .     A
C621   C622    1.482   .     S
C622   C625    1.395   .     A
C624   I644    2.157   .     S
C624   C627    1.417   .     A
C625   H642    1.078   .     S
C625   C626    1.405   .     A
C626   C627    1.420   .     A
C626   C628    1.430   .     A
C627   C28     1.399   1_556 S
C628   C26     1.419   1_556 S
C629   C630    1.410   .     A
C630   H643    1.077   .     S
C630   C631    1.383   .     A
C631   H632    1.079   .     S
H634   O653    0.991   .     S
H635   O656    0.991   .     S
H637   C747    1.088   1_455 S
H638   C1018   1.088   1_545 S
H639   C818    1.086   .     S
O646   Zn668   1.951   .     S
O646   Zn669   1.935   .     S
O646   Zn670   1.928   .     S
O646   Zn667   1.956   .     S
O647   Zn668   1.923   .     S
O648   Zn670   1.934   .     S
O649   Zn669   1.931   .     S
O650   Zn667   1.920   .     S
O651   S665    1.503   .     D
O652   S665    1.504   .     D
O653   S799    1.683   1_455 S
O654   S666    1.504   .     D
O655   S666    1.503   .     D
O656   S666    1.682   .     S
O657   Zn667   1.929   .     S
O658   Zn670   1.929   .     S
O659   Zn668   1.934   .     S
O660   Zn669   1.946   .     S
O661   Zn670   1.946   .     S
O662   Zn667   1.935   .     S
O663   Zn668   1.931   .     S
O664   Zn669   1.926   .     S
S665   O720    1.683   .     S
S665   C681    1.782   .     S
C671   C681    1.428   .     S
C671   O726    1.269   .     A
C671   O728    1.264   .     A
C672   H700    1.075   .     S
C672   C673    1.395   .     A
C672   C695    1.413   .     A
C673   S733    1.778   .     S
C673   C72     1.411   1_556 S
C674   O727    1.290   .     A
C674   C680    1.455   .     S
C674   O729    1.263   .     A
C675   C676    1.426   .     A
C675   C677    1.412   .     A
C676   C679    1.412   .     A
C676   C696    1.424   .     A
C677   H703    1.080   .     S
C677   C678    1.391   .     A
C678   C690    1.392   .     A
C678   H708    1.084   .     S
C679   C690    1.388   .     A
C679   H707    1.077   .     S
C680   C748    1.354   .     S
C680   H771    1.088   .     S
C682   C689    1.421   .     A
C682   I712    2.154   .     S
C682   C691    1.413   .     A
C683   C686    1.450   .     S
C683   C885    1.331   .     S
C683   H906    1.088   .     S
C684   C685    1.434   .     S
C684   C1085   1.331   1_545 S
C684   H1108   1.086   1_545 S
C685   O730    1.278   .     A
C685   O724    1.279   .     A
C686   O725    1.270   .     A
C686   O731    1.269   .     A
C687   C690    1.455   .     S
C687   O714    1.281   .     A
C687   O716    1.276   .     A
C688   O715    1.276   .     A
C688   O717    1.291   .     A
C688   C689    1.482   .     S
C689   C692    1.395   .     A
C691   I711    2.157   .     S
C691   C694    1.417   .     A
C692   H709    1.078   .     S
C692   C693    1.405   .     A
C693   C694    1.420   .     A
C693   C695    1.430   .     A
C694   C95     1.399   1_556 S
C695   C93     1.419   1_556 S
C696   C697    1.410   .     A
C697   H710    1.077   .     S
C697   C698    1.383   .     A
C698   H699    1.079   .     S
H701   O720    0.991   .     S
H702   O723    0.991   .     S
H705   C1085   1.088   1_545 S
H706   C885    1.086   .     S
O713   Zn735   1.951   .     S
O713   Zn736   1.935   .     S
O713   Zn737   1.928   .     S
O713   Zn734   1.956   .     S
O714   Zn735   1.923   .     S
O715   Zn737   1.934   .     S
O716   Zn736   1.931   .     S
O717   Zn734   1.920   .     S
O718   S732    1.503   .     D
O719   S732    1.504   .     D
O721   S733    1.504   .     D
O722   S733    1.503   .     D
O723   S733    1.682   .     S
O724   Zn734   1.929   .     S
O725   Zn737   1.929   .     S
O726   Zn735   1.934   .     S
O727   Zn736   1.946   .     S
O728   Zn737   1.946   .     S
O729   Zn734   1.935   .     S
O730   Zn735   1.931   .     S
O731   Zn736   1.926   .     S
S732   O787    1.683   .     S
S732   C748    1.782   .     S
C738   C748    1.428   .     S
C738   O793    1.269   .     A
C738   O795    1.264   .     A
C739   H767    1.075   .     S
C739   C740    1.395   .     A
C739   C762    1.413   .     A
C740   S800    1.778   .     S
C740   C139    1.411   1_556 S
C741   O794    1.290   .     A
C741   C747    1.455   .     S
C741   O796    1.263   .     A
C742   C743    1.426   .     A
C742   C744    1.412   .     A
C743   C746    1.412   .     A
C743   C763    1.424   .     A
C744   H770    1.080   .     S
C744   C745    1.391   .     A
C745   C757    1.392   .     A
C745   H775    1.084   .     S
C746   C757    1.388   .     A
C746   H774    1.077   .     S
C747   C614    1.354   1_655 S
C747   H637    1.088   1_655 S
C749   C756    1.421   .     A
C749   I779    2.154   .     S
C749   C758    1.413   .     A
C750   C753    1.450   .     S
C750   C952    1.331   .     S
C750   H973    1.088   .     S
C751   C752    1.434   .     S
C751   C1152   1.331   1_545 S
C751   H1175   1.086   1_545 S
C752   O797    1.278   .     A
C752   O791    1.279   .     A
C753   O792    1.270   .     A
C753   O798    1.269   .     A
C754   C757    1.455   .     S
C754   O781    1.281   .     A
C754   O783    1.276   .     A
C755   O782    1.276   .     A
C755   O784    1.291   .     A
C755   C756    1.482   .     S
C756   C759    1.395   .     A
C758   I778    2.157   .     S
C758   C761    1.417   .     A
C759   H776    1.078   .     S
C759   C760    1.405   .     A
C760   C761    1.420   .     A
C760   C762    1.430   .     A
C761   C162    1.399   1_556 S
C762   C160    1.419   1_556 S
C763   C764    1.410   .     A
C764   H777    1.077   .     S
C764   C765    1.383   .     A
C765   H766    1.079   .     S
H768   O787    0.991   .     S
H769   O790    0.991   .     S
H772   C1152   1.088   1_545 S
H773   C952    1.086   .     S
O780   Zn802   1.951   .     S
O780   Zn803   1.935   .     S
O780   Zn804   1.928   .     S
O780   Zn801   1.956   .     S
O781   Zn802   1.923   .     S
O782   Zn804   1.934   .     S
O783   Zn803   1.931   .     S
O784   Zn801   1.920   .     S
O785   S799    1.503   .     D
O786   S799    1.504   .     D
O788   S800    1.504   .     D
O789   S800    1.503   .     D
O790   S800    1.682   .     S
O791   Zn801   1.929   .     S
O792   Zn804   1.929   .     S
O793   Zn802   1.934   .     S
O794   Zn803   1.946   .     S
O795   Zn804   1.946   .     S
O796   Zn801   1.935   .     S
O797   Zn802   1.931   .     S
O798   Zn803   1.926   .     S
S799   O653    1.683   1_655 S
S799   C614    1.782   1_655 S
C805   C815    1.428   .     S
C805   O860    1.269   .     A
C805   O862    1.264   .     A
C806   H834    1.075   .     S
C806   C807    1.395   .     A
C806   C829    1.413   .     A
C807   S867    1.778   .     S
C807   C206    1.411   1_556 S
C808   O861    1.290   .     A
C808   C814    1.455   .     S
C808   O863    1.263   .     A
C809   C810    1.426   .     A
C809   C811    1.412   .     A
C810   C813    1.412   .     A
C810   C830    1.424   .     A
C811   H837    1.080   .     S
C811   C812    1.391   .     A
C812   C824    1.392   .     A
C812   H842    1.084   .     S
C813   C824    1.388   .     A
C813   H841    1.077   .     S
C814   C882    1.354   .     S
C814   H905    1.088   .     S
C815   C948    1.354   1_455 S
C815   S1000   1.782   1_455 S
C816   C823    1.421   .     A
C816   I846    2.154   .     S
C816   C825    1.413   .     A
C817   C820    1.450   .     S
C817   C1019   1.331   .     S
C817   H1040   1.088   .     S
C818   C819    1.434   .     S
C819   O864    1.278   .     A
C819   O858    1.279   .     A
C820   O859    1.270   .     A
C820   O865    1.269   .     A
C821   C824    1.455   .     S
C821   O848    1.281   .     A
C821   O850    1.276   .     A
C822   O849    1.276   .     A
C822   O851    1.291   .     A
C822   C823    1.482   .     S
C823   C826    1.395   .     A
C825   I845    2.157   .     S
C825   C828    1.417   .     A
C826   H843    1.078   .     S
C826   C827    1.405   .     A
C827   C828    1.420   .     A
C827   C829    1.430   .     A
C828   C229    1.399   1_556 S
C829   C227    1.419   1_556 S
C830   C831    1.410   .     A
C831   H844    1.077   .     S
C831   C832    1.383   .     A
C832   H833    1.079   .     S
H835   O854    0.991   .     S
H836   O857    0.991   .     S
H838   C948    1.088   1_455 S
H840   C1019   1.086   .     S
O847   Zn869   1.951   .     S
O847   Zn870   1.935   .     S
O847   Zn871   1.928   .     S
O847   Zn868   1.956   .     S
O848   Zn869   1.923   .     S
O849   Zn871   1.934   .     S
O850   Zn870   1.931   .     S
O851   Zn868   1.920   .     S
O852   S866    1.503   .     D
O853   S866    1.504   .     D
O854   S1000   1.683   1_455 S
O855   S867    1.504   .     D
O856   S867    1.503   .     D
O857   S867    1.682   .     S
O858   Zn868   1.929   .     S
O859   Zn871   1.929   .     S
O860   Zn869   1.934   .     S
O861   Zn870   1.946   .     S
O862   Zn871   1.946   .     S
O863   Zn868   1.935   .     S
O864   Zn869   1.931   .     S
O865   Zn870   1.926   .     S
S866   O921    1.683   .     S
S866   C882    1.782   .     S
C872   C882    1.428   .     S
C872   O927    1.269   .     A
C872   O929    1.264   .     A
C873   H901    1.075   .     S
C873   C874    1.395   .     A
C873   C896    1.413   .     A
C874   S934    1.778   .     S
C874   C273    1.411   1_556 S
C875   O928    1.290   .     A
C875   C881    1.455   .     S
C875   O930    1.263   .     A
C876   C877    1.426   .     A
C876   C878    1.412   .     A
C877   C880    1.412   .     A
C877   C897    1.424   .     A
C878   H904    1.080   .     S
C878   C879    1.391   .     A
C879   C891    1.392   .     A
C879   H909    1.084   .     S
C880   C891    1.388   .     A
C880   H908    1.077   .     S
C881   C949    1.354   .     S
C881   H972    1.088   .     S
C883   C890    1.421   .     A
C883   I913    2.154   .     S
C883   C892    1.413   .     A
C884   C887    1.450   .     S
C884   C1086   1.331   .     S
C884   H1107   1.088   .     S
C885   C886    1.434   .     S
C886   O931    1.278   .     A
C886   O925    1.279   .     A
C887   O926    1.270   .     A
C887   O932    1.269   .     A
C888   C891    1.455   .     S
C888   O915    1.281   .     A
C888   O917    1.276   .     A
C889   O916    1.276   .     A
C889   O918    1.291   .     A
C889   C890    1.482   .     S
C890   C893    1.395   .     A
C892   I912    2.157   .     S
C892   C895    1.417   .     A
C893   H910    1.078   .     S
C893   C894    1.405   .     A
C894   C895    1.420   .     A
C894   C896    1.430   .     A
C895   C296    1.399   1_556 S
C896   C294    1.419   1_556 S
C897   C898    1.410   .     A
C898   H911    1.077   .     S
C898   C899    1.383   .     A
C899   H900    1.079   .     S
H902   O921    0.991   .     S
H903   O924    0.991   .     S
H907   C1086   1.086   .     S
O914   Zn936   1.951   .     S
O914   Zn937   1.935   .     S
O914   Zn938   1.928   .     S
O914   Zn935   1.956   .     S
O915   Zn936   1.923   .     S
O916   Zn938   1.934   .     S
O917   Zn937   1.931   .     S
O918   Zn935   1.920   .     S
O919   S933    1.503   .     D
O920   S933    1.504   .     D
O922   S934    1.504   .     D
O923   S934    1.503   .     D
O924   S934    1.682   .     S
O925   Zn935   1.929   .     S
O926   Zn938   1.929   .     S
O927   Zn936   1.934   .     S
O928   Zn937   1.946   .     S
O929   Zn938   1.946   .     S
O930   Zn935   1.935   .     S
O931   Zn936   1.931   .     S
O932   Zn937   1.926   .     S
S933   O988    1.683   .     S
S933   C949    1.782   .     S
C939   C949    1.428   .     S
C939   O994    1.269   .     A
C939   O996    1.264   .     A
C940   H968    1.075   .     S
C940   C941    1.395   .     A
C940   C963    1.413   .     A
C941   S1001   1.778   .     S
C941   C340    1.411   1_556 S
C942   O995    1.290   .     A
C942   C948    1.455   .     S
C942   O997    1.263   .     A
C943   C944    1.426   .     A
C943   C945    1.412   .     A
C944   C947    1.412   .     A
C944   C964    1.424   .     A
C945   H971    1.080   .     S
C945   C946    1.391   .     A
C946   C958    1.392   .     A
C946   H976    1.084   .     S
C947   C958    1.388   .     A
C947   H975    1.077   .     S
C948   C815    1.354   1_655 S
C948   H838    1.088   1_655 S
C950   C957    1.421   .     A
C950   I980    2.154   .     S
C950   C959    1.413   .     A
C951   C954    1.450   .     S
C951   C1153   1.331   .     S
C951   H1174   1.088   .     S
C952   C953    1.434   .     S
C953   O998    1.278   .     A
C953   O992    1.279   .     A
C954   O993    1.270   .     A
C954   O999    1.269   .     A
C955   C958    1.455   .     S
C955   O982    1.281   .     A
C955   O984    1.276   .     A
C956   O983    1.276   .     A
C956   O985    1.291   .     A
C956   C957    1.482   .     S
C957   C960    1.395   .     A
C959   I979    2.157   .     S
C959   C962    1.417   .     A
C960   H977    1.078   .     S
C960   C961    1.405   .     A
C961   C962    1.420   .     A
C961   C963    1.430   .     A
C962   C363    1.399   1_556 S
C963   C361    1.419   1_556 S
C964   C965    1.410   .     A
C965   H978    1.077   .     S
C965   C966    1.383   .     A
C966   H967    1.079   .     S
H969   O988    0.991   .     S
H970   O991    0.991   .     S
H974   C1153   1.086   .     S
O981   Zn1003  1.951   .     S
O981   Zn1004  1.935   .     S
O981   Zn1005  1.928   .     S
O981   Zn1002  1.956   .     S
O982   Zn1003  1.923   .     S
O983   Zn1005  1.934   .     S
O984   Zn1004  1.931   .     S
O985   Zn1002  1.920   .     S
O986   S1000   1.503   .     D
O987   S1000   1.504   .     D
O989   S1001   1.504   .     D
O990   S1001   1.503   .     D
O991   S1001   1.682   .     S
O992   Zn1002  1.929   .     S
O993   Zn1005  1.929   .     S
O994   Zn1003  1.934   .     S
O995   Zn1004  1.946   .     S
O996   Zn1005  1.946   .     S
O997   Zn1002  1.935   .     S
O998   Zn1003  1.931   .     S
O999   Zn1004  1.926   .     S
S1000  O854    1.683   1_655 S
S1000  C815    1.782   1_655 S
C1006  C1016   1.428   .     S
C1006  O1061   1.269   .     A
C1006  O1063   1.264   .     A
C1007  H1035   1.075   .     S
C1007  C1008   1.395   .     A
C1007  C1030   1.413   .     A
C1008  S1068   1.778   .     S
C1008  C407    1.411   1_556 S
C1009  O1062   1.290   .     A
C1009  C1015   1.455   .     S
C1009  O1064   1.263   .     A
C1010  C1011   1.426   .     A
C1010  C1012   1.412   .     A
C1011  C1014   1.412   .     A
C1011  C1031   1.424   .     A
C1012  H1038   1.080   .     S
C1012  C1013   1.391   .     A
C1013  C1025   1.392   .     A
C1013  H1043   1.084   .     S
C1014  C1025   1.388   .     A
C1014  H1042   1.077   .     S
C1015  C1083   1.354   .     S
C1015  H1106   1.088   .     S
C1016  C1149   1.354   1_455 S
C1016  S1201   1.782   1_455 S
C1017  C1024   1.421   .     A
C1017  I1047   2.154   .     S
C1017  C1026   1.413   .     A
C1018  C1021   1.450   .     S
C1018  C617    1.331   1_565 S
C1018  H638    1.088   1_565 S
C1019  C1020   1.434   .     S
C1020  O1065   1.278   .     A
C1020  O1059   1.279   .     A
C1021  O1060   1.270   .     A
C1021  O1066   1.269   .     A
C1022  C1025   1.455   .     S
C1022  O1049   1.281   .     A
C1022  O1051   1.276   .     A
C1023  O1050   1.276   .     A
C1023  O1052   1.291   .     A
C1023  C1024   1.482   .     S
C1024  C1027   1.395   .     A
C1026  I1046   2.157   .     S
C1026  C1029   1.417   .     A
C1027  H1044   1.078   .     S
C1027  C1028   1.405   .     A
C1028  C1029   1.420   .     A
C1028  C1030   1.430   .     A
C1029  C430    1.399   1_556 S
C1030  C428    1.419   1_556 S
C1031  C1032   1.410   .     A
C1032  H1045   1.077   .     S
C1032  C1033   1.383   .     A
C1033  H1034   1.079   .     S
H1036  O1055   0.991   .     S
H1037  O1058   0.991   .     S
H1039  C1149   1.088   1_455 S
H1041  C617    1.086   1_565 S
O1048  Zn1070  1.951   .     S
O1048  Zn1071  1.935   .     S
O1048  Zn1072  1.928   .     S
O1048  Zn1069  1.956   .     S
O1049  Zn1070  1.923   .     S
O1050  Zn1072  1.934   .     S
O1051  Zn1071  1.931   .     S
O1052  Zn1069  1.920   .     S
O1053  S1067   1.503   .     D
O1054  S1067   1.504   .     D
O1055  S1201   1.683   1_455 S
O1056  S1068   1.504   .     D
O1057  S1068   1.503   .     D
O1058  S1068   1.682   .     S
O1059  Zn1069  1.929   .     S
O1060  Zn1072  1.929   .     S
O1061  Zn1070  1.934   .     S
O1062  Zn1071  1.946   .     S
O1063  Zn1072  1.946   .     S
O1064  Zn1069  1.935   .     S
O1065  Zn1070  1.931   .     S
O1066  Zn1071  1.926   .     S
S1067  O1122   1.683   .     S
S1067  C1083   1.782   .     S
C1073  C1083   1.428   .     S
C1073  O1128   1.269   .     A
C1073  O1130   1.264   .     A
C1074  H1102   1.075   .     S
C1074  C1075   1.395   .     A
C1074  C1097   1.413   .     A
C1075  S1135   1.778   .     S
C1075  C474    1.411   1_556 S
C1076  O1129   1.290   .     A
C1076  C1082   1.455   .     S
C1076  O1131   1.263   .     A
C1077  C1078   1.426   .     A
C1077  C1079   1.412   .     A
C1078  C1081   1.412   .     A
C1078  C1098   1.424   .     A
C1079  H1105   1.080   .     S
C1079  C1080   1.391   .     A
C1080  C1092   1.392   .     A
C1080  H1110   1.084   .     S
C1081  C1092   1.388   .     A
C1081  H1109   1.077   .     S
C1082  C1150   1.354   .     S
C1082  H1173   1.088   .     S
C1084  C1091   1.421   .     A
C1084  I1114   2.154   .     S
C1084  C1093   1.413   .     A
C1085  C1088   1.450   .     S
C1085  C684    1.331   1_565 S
C1085  H705    1.088   1_565 S
C1086  C1087   1.434   .     S
C1087  O1132   1.278   .     A
C1087  O1126   1.279   .     A
C1088  O1127   1.270   .     A
C1088  O1133   1.269   .     A
C1089  C1092   1.455   .     S
C1089  O1116   1.281   .     A
C1089  O1118   1.276   .     A
C1090  O1117   1.276   .     A
C1090  O1119   1.291   .     A
C1090  C1091   1.482   .     S
C1091  C1094   1.395   .     A
C1093  I1113   2.157   .     S
C1093  C1096   1.417   .     A
C1094  H1111   1.078   .     S
C1094  C1095   1.405   .     A
C1095  C1096   1.420   .     A
C1095  C1097   1.430   .     A
C1096  C497    1.399   1_556 S
C1097  C495    1.419   1_556 S
C1098  C1099   1.410   .     A
C1099  H1112   1.077   .     S
C1099  C1100   1.383   .     A
C1100  H1101   1.079   .     S
H1103  O1122   0.991   .     S
H1104  O1125   0.991   .     S
H1108  C684    1.086   1_565 S
O1115  Zn1137  1.951   .     S
O1115  Zn1138  1.935   .     S
O1115  Zn1139  1.928   .     S
O1115  Zn1136  1.956   .     S
O1116  Zn1137  1.923   .     S
O1117  Zn1139  1.934   .     S
O1118  Zn1138  1.931   .     S
O1119  Zn1136  1.920   .     S
O1120  S1134   1.503   .     D
O1121  S1134   1.504   .     D
O1123  S1135   1.504   .     D
O1124  S1135   1.503   .     D
O1125  S1135   1.682   .     S
O1126  Zn1136  1.929   .     S
O1127  Zn1139  1.929   .     S
O1128  Zn1137  1.934   .     S
O1129  Zn1138  1.946   .     S
O1130  Zn1139  1.946   .     S
O1131  Zn1136  1.935   .     S
O1132  Zn1137  1.931   .     S
O1133  Zn1138  1.926   .     S
S1134  O1189   1.683   .     S
S1134  C1150   1.782   .     S
C1140  C1150   1.428   .     S
C1140  O1195   1.269   .     A
C1140  O1197   1.264   .     A
C1141  H1169   1.075   .     S
C1141  C1142   1.395   .     A
C1141  C1164   1.413   .     A
C1142  S1202   1.778   .     S
C1142  C541    1.411   1_556 S
C1143  O1196   1.290   .     A
C1143  C1149   1.455   .     S
C1143  O1198   1.263   .     A
C1144  C1145   1.426   .     A
C1144  C1146   1.412   .     A
C1145  C1148   1.412   .     A
C1145  C1165   1.424   .     A
C1146  H1172   1.080   .     S
C1146  C1147   1.391   .     A
C1147  C1159   1.392   .     A
C1147  H1177   1.084   .     S
C1148  C1159   1.388   .     A
C1148  H1176   1.077   .     S
C1149  C1016   1.354   1_655 S
C1149  H1039   1.088   1_655 S
C1151  C1158   1.421   .     A
C1151  I1181   2.154   .     S
C1151  C1160   1.413   .     A
C1152  C1155   1.450   .     S
C1152  C751    1.331   1_565 S
C1152  H772    1.088   1_565 S
C1153  C1154   1.434   .     S
C1154  O1199   1.278   .     A
C1154  O1193   1.279   .     A
C1155  O1194   1.270   .     A
C1155  O1200   1.269   .     A
C1156  C1159   1.455   .     S
C1156  O1183   1.281   .     A
C1156  O1185   1.276   .     A
C1157  O1184   1.276   .     A
C1157  O1186   1.291   .     A
C1157  C1158   1.482   .     S
C1158  C1161   1.395   .     A
C1160  I1180   2.157   .     S
C1160  C1163   1.417   .     A
C1161  H1178   1.078   .     S
C1161  C1162   1.405   .     A
C1162  C1163   1.420   .     A
C1162  C1164   1.430   .     A
C1163  C564    1.399   1_556 S
C1164  C562    1.419   1_556 S
C1165  C1166   1.410   .     A
C1166  H1179   1.077   .     S
C1166  C1167   1.383   .     A
C1167  H1168   1.079   .     S
H1170  O1189   0.991   .     S
H1171  O1192   0.991   .     S
H1175  C751    1.086   1_565 S
O1182  Zn1204  1.951   .     S
O1182  Zn1205  1.935   .     S
O1182  Zn1206  1.928   .     S
O1182  Zn1203  1.956   .     S
O1183  Zn1204  1.923   .     S
O1184  Zn1206  1.934   .     S
O1185  Zn1205  1.931   .     S
O1186  Zn1203  1.920   .     S
O1187  S1201   1.503   .     D
O1188  S1201   1.504   .     D
O1190  S1202   1.504   .     D
O1191  S1202   1.503   .     D
O1192  S1202   1.682   .     S
O1193  Zn1203  1.929   .     S
O1194  Zn1206  1.929   .     S
O1195  Zn1204  1.934   .     S
O1196  Zn1205  1.946   .     S
O1197  Zn1206  1.946   .     S
O1198  Zn1203  1.935   .     S
O1199  Zn1204  1.931   .     S
O1200  Zn1205  1.926   .     S
S1201  O1055   1.683   1_655 S
S1201  C1016   1.782   1_655 S
