data_str_m1_o10_o18_pcu_sym.68
_audit_creation_date              2020-01-03
_audit_creation_method            'Materials Studio'
_symmetry_space_group_name_H-M    'P1'
_symmetry_Int_Tables_number       1
_symmetry_cell_setting            triclinic
loop_
_symmetry_equiv_pos_as_xyz
  x,y,z
_cell_length_a                    32.6664
_cell_length_b                    32.6948
_cell_length_c                    35.2661
_cell_angle_alpha                 97.7944
_cell_angle_beta                  73.2201
_cell_angle_gamma                 98.3918
loop_
_atom_site_label
_atom_site_type_symbol
_atom_site_fract_x
_atom_site_fract_y
_atom_site_fract_z
_atom_site_U_iso_or_equiv
_atom_site_adp_type
_atom_site_occupancy
Zn1    Zn    0.19244   0.14090   0.28277   0.00000  Uiso   1.00
Zn2    Zn    0.13459   0.12378   0.22257   0.00000  Uiso   1.00
Zn3    Zn    0.21166   0.19664   0.21188   0.00000  Uiso   1.00
Zn4    Zn    0.12798   0.20535   0.28277   0.00000  Uiso   1.00
O5     O     0.16667   0.16667   0.25000   0.00000  Uiso   1.00
O6     O     0.06990   0.18960   0.27820   0.00000  Uiso   1.00
O7     O     0.25440   0.15277   0.26767   0.00000  Uiso   1.00
O8     O     0.13800   0.06903   0.23607   0.00000  Uiso   1.00
O9     O     0.20437   0.25527   0.21805   0.00000  Uiso   1.00
O10    O     0.15693   0.12393   0.16625   0.00000  Uiso   1.00
O11    O     0.12687   0.20646   0.33749   0.00000  Uiso   1.00
O12    O     0.21088   0.17493   0.15877   0.00000  Uiso   1.00
O13    O     0.17198   0.16135   0.33749   0.00000  Uiso   1.00
O14    O     0.17849   0.08101   0.27820   0.00000  Uiso   1.00
O15    O     0.14581   0.26136   0.26767   0.00000  Uiso   1.00
O16    O     0.07452   0.13251   0.23607   0.00000  Uiso   1.00
O17    O     0.26785   0.19179   0.21805   0.00000  Uiso   1.00
C18    C     0.05274   0.15956   0.25895   0.00000  Uiso   1.00
C19    C     0.28105   0.17408   0.24171   0.00000  Uiso   1.00
C20    C     0.15625   0.05632   0.25911   0.00000  Uiso   1.00
C21    C     0.17661   0.27766   0.24111   0.00000  Uiso   1.00
C22    C     0.18803   0.14554   0.14381   0.00000  Uiso   1.00
C23    C     0.14511   0.18737   0.35659   0.00000  Uiso   1.00
C24    C     0.13003   0.18924   0.40071   0.00000  Uiso   1.00
C25    C     0.19862   0.13476   0.10063   0.00000  Uiso   1.00
C26    C     0.07074   0.18663   0.46098   0.00000  Uiso   1.00
C27    C     0.08729   0.19641   0.42185   0.00000  Uiso   1.00
C28    C     0.15667   0.17705   0.42118   0.00000  Uiso   1.00
C29    C     0.13830   0.16217   0.45935   0.00000  Uiso   1.00
C30    C     0.09547   0.16943   0.48003   0.00000  Uiso   1.00
C31    C     0.16116   0.14069   0.47778   0.00000  Uiso   1.00
C32    C     0.14770   0.14087   0.01955   0.00000  Uiso   1.00
C33    C     0.10372   0.14530   0.03959   0.00000  Uiso   1.00
C34    C     0.07726   0.15827   0.01903   0.00000  Uiso   1.00
C35    C     0.19574   0.11755   0.45622   0.00000  Uiso   1.00
C36    C     0.22220   0.10415   0.47607   0.00000  Uiso   1.00
C37    C     0.21302   0.11127   0.01819   0.00000  Uiso   1.00
C38    C     0.17792   0.13383   0.03938   0.00000  Uiso   1.00
C39    C     0.23701   0.09590   0.04005   0.00000  Uiso   1.00
C40    C     0.22930   0.10701   0.08122   0.00000  Uiso   1.00
C41    C     0.17511   0.15011   0.07939   0.00000  Uiso   1.00
H42    H     0.03788   0.19232   0.47627   0.00000  Uiso   1.00
C43    C     0.32691   0.17832   0.23938   0.00000  Uiso   1.00
C44    C     0.00755   0.15601   0.26188   0.00000  Uiso   1.00
C45    C     0.17817   0.32178   0.23610   0.00000  Uiso   1.00
C46    C     0.15282   0.01305   0.26429   0.00000  Uiso   1.00
O47    O     0.03372   0.16047   0.03612   0.00000  Uiso   1.00
H48    H     0.02268   0.14053   0.05644   0.00000  Uiso   1.00
N49    N     0.26591   0.06520   0.02202   0.00000  Uiso   1.00
O50    O     0.30503   0.07085   0.02535   0.00000  Uiso   1.00
O51    O     0.25103   0.02889   0.00824   0.00000  Uiso   1.00
N52    N     0.02274   0.20694   0.21339   0.00000  Uiso   1.00
O53    O     0.01077   0.24214   0.20979   0.00000  Uiso   1.00
O54    O     0.05956   0.19654   0.19064   0.00000  Uiso   1.00
O55    O     0.31321   0.12755   0.28575   0.00000  Uiso   1.00
H56    H     0.32984   0.11446   0.29941   0.00000  Uiso   1.00
O57    O     0.20432   0.00518   0.20200   0.00000  Uiso   1.00
H58    H     0.21944   0.31635   0.18364   0.00000  Uiso   1.00
N59    N     0.13007   0.00098   0.30329   0.00000  Uiso   1.00
O60    O     0.09156   0.01156   0.31999   0.00000  Uiso   1.00
O61    O     0.15118   0.32268   0.32539   0.00000  Uiso   1.00
O62    O     0.15179   0.18281   0.09794   0.00000  Uiso   1.00
H63    H     0.14948   0.19944   0.07731   0.00000  Uiso   1.00
O64    O     0.25207   0.08939   0.10120   0.00000  Uiso   1.00
H65    H     0.24510   0.10033   0.12959   0.00000  Uiso   1.00
N66    N     0.26053   0.08688   0.45238   0.00000  Uiso   1.00
O67    O     0.29799   0.10720   0.45193   0.00000  Uiso   1.00
O68    O     0.25808   0.05458   0.42681   0.00000  Uiso   1.00
O69    O     0.06032   0.21198   0.40516   0.00000  Uiso   1.00
H70    H     0.07671   0.23648   0.39185   0.00000  Uiso   1.00
O71    O     0.20056   0.18228   0.40385   0.00000  Uiso   1.00
H72    H     0.21520   0.18789   0.42534   0.00000  Uiso   1.00
N73    N     0.08490   0.13265   0.07902   0.00000  Uiso   1.00
O74    O     0.09065   0.09664   0.08722   0.00000  Uiso   1.00
O75    O     0.06157   0.15681   0.10671   0.00000  Uiso   1.00
O76    O     0.20298   0.10492   0.41607   0.00000  Uiso   1.00
H77    H     0.17505   0.10121   0.40953   0.00000  Uiso   1.00
Zn78   Zn    0.52577   0.14090   0.28277   0.00000  Uiso   1.00
Zn79   Zn    0.46792   0.12378   0.22257   0.00000  Uiso   1.00
Zn80   Zn    0.54500   0.19664   0.21188   0.00000  Uiso   1.00
Zn81   Zn    0.46131   0.20535   0.28277   0.00000  Uiso   1.00
O82    O     0.50000   0.16667   0.25000   0.00000  Uiso   1.00
O83    O     0.40323   0.18960   0.27820   0.00000  Uiso   1.00
O84    O     0.58773   0.15277   0.26767   0.00000  Uiso   1.00
O85    O     0.47133   0.06903   0.23607   0.00000  Uiso   1.00
O86    O     0.53771   0.25527   0.21805   0.00000  Uiso   1.00
O87    O     0.49027   0.12393   0.16625   0.00000  Uiso   1.00
O88    O     0.46020   0.20646   0.33749   0.00000  Uiso   1.00
O89    O     0.54421   0.17493   0.15877   0.00000  Uiso   1.00
O90    O     0.50532   0.16135   0.33749   0.00000  Uiso   1.00
O91    O     0.51182   0.08101   0.27820   0.00000  Uiso   1.00
O92    O     0.47914   0.26136   0.26767   0.00000  Uiso   1.00
O93    O     0.40785   0.13251   0.23607   0.00000  Uiso   1.00
O94    O     0.60119   0.19179   0.21805   0.00000  Uiso   1.00
C95    C     0.38608   0.15956   0.25895   0.00000  Uiso   1.00
C96    C     0.61439   0.17408   0.24171   0.00000  Uiso   1.00
C97    C     0.48959   0.05632   0.25911   0.00000  Uiso   1.00
C98    C     0.50995   0.27766   0.24111   0.00000  Uiso   1.00
C99    C     0.52136   0.14554   0.14381   0.00000  Uiso   1.00
C100   C     0.47844   0.18737   0.35659   0.00000  Uiso   1.00
C101   C     0.46336   0.18924   0.40071   0.00000  Uiso   1.00
C102   C     0.53195   0.13476   0.10063   0.00000  Uiso   1.00
C103   C     0.40407   0.18663   0.46098   0.00000  Uiso   1.00
C104   C     0.42063   0.19641   0.42185   0.00000  Uiso   1.00
C105   C     0.49000   0.17705   0.42118   0.00000  Uiso   1.00
C106   C     0.47164   0.16217   0.45935   0.00000  Uiso   1.00
C107   C     0.42880   0.16943   0.48003   0.00000  Uiso   1.00
C108   C     0.49450   0.14069   0.47778   0.00000  Uiso   1.00
C109   C     0.48103   0.14087   0.01955   0.00000  Uiso   1.00
C110   C     0.43705   0.14530   0.03959   0.00000  Uiso   1.00
C111   C     0.41060   0.15827   0.01903   0.00000  Uiso   1.00
C112   C     0.52907   0.11755   0.45622   0.00000  Uiso   1.00
C113   C     0.55553   0.10415   0.47607   0.00000  Uiso   1.00
C114   C     0.54635   0.11127   0.01819   0.00000  Uiso   1.00
C115   C     0.51125   0.13383   0.03938   0.00000  Uiso   1.00
C116   C     0.57035   0.09590   0.04005   0.00000  Uiso   1.00
C117   C     0.56263   0.10701   0.08122   0.00000  Uiso   1.00
C118   C     0.50844   0.15011   0.07939   0.00000  Uiso   1.00
H119   H     0.37121   0.19232   0.47627   0.00000  Uiso   1.00
C120   C     0.66024   0.17832   0.23938   0.00000  Uiso   1.00
C121   C     0.34089   0.15601   0.26188   0.00000  Uiso   1.00
C122   C     0.51151   0.32178   0.23610   0.00000  Uiso   1.00
C123   C     0.48615   0.01305   0.26429   0.00000  Uiso   1.00
O124   O     0.36705   0.16047   0.03612   0.00000  Uiso   1.00
H125   H     0.35601   0.14053   0.05644   0.00000  Uiso   1.00
N126   N     0.59924   0.06520   0.02202   0.00000  Uiso   1.00
O127   O     0.63836   0.07085   0.02535   0.00000  Uiso   1.00
O128   O     0.58437   0.02889   0.00824   0.00000  Uiso   1.00
N129   N     0.35607   0.20694   0.21339   0.00000  Uiso   1.00
O130   O     0.34410   0.24214   0.20979   0.00000  Uiso   1.00
O131   O     0.39289   0.19654   0.19064   0.00000  Uiso   1.00
O132   O     0.64654   0.12755   0.28575   0.00000  Uiso   1.00
H133   H     0.66318   0.11446   0.29941   0.00000  Uiso   1.00
O134   O     0.53765   0.00518   0.20200   0.00000  Uiso   1.00
H135   H     0.55277   0.31635   0.18364   0.00000  Uiso   1.00
N136   N     0.46340   0.00098   0.30329   0.00000  Uiso   1.00
O137   O     0.42490   0.01156   0.31999   0.00000  Uiso   1.00
O138   O     0.48452   0.32268   0.32539   0.00000  Uiso   1.00
O139   O     0.48512   0.18281   0.09794   0.00000  Uiso   1.00
H140   H     0.48281   0.19944   0.07731   0.00000  Uiso   1.00
O141   O     0.58540   0.08939   0.10120   0.00000  Uiso   1.00
H142   H     0.57844   0.10033   0.12959   0.00000  Uiso   1.00
N143   N     0.59387   0.08688   0.45238   0.00000  Uiso   1.00
O144   O     0.63133   0.10720   0.45193   0.00000  Uiso   1.00
O145   O     0.59142   0.05458   0.42681   0.00000  Uiso   1.00
O146   O     0.39365   0.21198   0.40516   0.00000  Uiso   1.00
H147   H     0.41004   0.23648   0.39185   0.00000  Uiso   1.00
O148   O     0.53390   0.18228   0.40385   0.00000  Uiso   1.00
H149   H     0.54853   0.18789   0.42534   0.00000  Uiso   1.00
N150   N     0.41823   0.13265   0.07902   0.00000  Uiso   1.00
O151   O     0.42398   0.09664   0.08722   0.00000  Uiso   1.00
O152   O     0.39491   0.15681   0.10671   0.00000  Uiso   1.00
O153   O     0.53631   0.10492   0.41607   0.00000  Uiso   1.00
H154   H     0.50838   0.10121   0.40953   0.00000  Uiso   1.00
Zn155  Zn    0.85910   0.14090   0.28277   0.00000  Uiso   1.00
Zn156  Zn    0.80125   0.12378   0.22257   0.00000  Uiso   1.00
Zn157  Zn    0.87833   0.19664   0.21188   0.00000  Uiso   1.00
Zn158  Zn    0.79465   0.20535   0.28277   0.00000  Uiso   1.00
O159   O     0.83333   0.16667   0.25000   0.00000  Uiso   1.00
O160   O     0.73656   0.18960   0.27820   0.00000  Uiso   1.00
O161   O     0.92106   0.15277   0.26767   0.00000  Uiso   1.00
O162   O     0.80467   0.06903   0.23607   0.00000  Uiso   1.00
O163   O     0.87104   0.25527   0.21805   0.00000  Uiso   1.00
O164   O     0.82360   0.12393   0.16625   0.00000  Uiso   1.00
O165   O     0.79354   0.20646   0.33749   0.00000  Uiso   1.00
O166   O     0.87755   0.17493   0.15877   0.00000  Uiso   1.00
O167   O     0.83865   0.16135   0.33749   0.00000  Uiso   1.00
O168   O     0.84515   0.08101   0.27820   0.00000  Uiso   1.00
O169   O     0.81247   0.26136   0.26767   0.00000  Uiso   1.00
O170   O     0.74119   0.13251   0.23607   0.00000  Uiso   1.00
O171   O     0.93452   0.19179   0.21805   0.00000  Uiso   1.00
C172   C     0.71941   0.15956   0.25895   0.00000  Uiso   1.00
C173   C     0.94772   0.17408   0.24171   0.00000  Uiso   1.00
C174   C     0.82292   0.05632   0.25911   0.00000  Uiso   1.00
C175   C     0.84328   0.27766   0.24111   0.00000  Uiso   1.00
C176   C     0.85470   0.14554   0.14381   0.00000  Uiso   1.00
C177   C     0.81178   0.18737   0.35659   0.00000  Uiso   1.00
C178   C     0.79670   0.18924   0.40071   0.00000  Uiso   1.00
C179   C     0.86528   0.13476   0.10063   0.00000  Uiso   1.00
C180   C     0.73740   0.18663   0.46098   0.00000  Uiso   1.00
C181   C     0.75396   0.19641   0.42185   0.00000  Uiso   1.00
C182   C     0.82334   0.17705   0.42118   0.00000  Uiso   1.00
C183   C     0.80497   0.16217   0.45935   0.00000  Uiso   1.00
C184   C     0.76214   0.16943   0.48003   0.00000  Uiso   1.00
C185   C     0.82783   0.14069   0.47778   0.00000  Uiso   1.00
C186   C     0.81436   0.14087   0.01955   0.00000  Uiso   1.00
C187   C     0.77039   0.14530   0.03959   0.00000  Uiso   1.00
C188   C     0.74393   0.15827   0.01903   0.00000  Uiso   1.00
C189   C     0.86240   0.11755   0.45622   0.00000  Uiso   1.00
C190   C     0.88886   0.10415   0.47607   0.00000  Uiso   1.00
C191   C     0.87968   0.11127   0.01819   0.00000  Uiso   1.00
C192   C     0.84458   0.13383   0.03938   0.00000  Uiso   1.00
C193   C     0.90368   0.09590   0.04005   0.00000  Uiso   1.00
C194   C     0.89596   0.10701   0.08122   0.00000  Uiso   1.00
C195   C     0.84178   0.15011   0.07939   0.00000  Uiso   1.00
H196   H     0.70454   0.19232   0.47627   0.00000  Uiso   1.00
C197   C     0.99357   0.17832   0.23938   0.00000  Uiso   1.00
C198   C     0.67422   0.15601   0.26188   0.00000  Uiso   1.00
C199   C     0.84484   0.32178   0.23610   0.00000  Uiso   1.00
C200   C     0.81949   0.01305   0.26429   0.00000  Uiso   1.00
O201   O     0.70039   0.16047   0.03612   0.00000  Uiso   1.00
H202   H     0.68935   0.14053   0.05644   0.00000  Uiso   1.00
N203   N     0.93257   0.06520   0.02202   0.00000  Uiso   1.00
O204   O     0.97170   0.07085   0.02535   0.00000  Uiso   1.00
O205   O     0.91770   0.02889   0.00824   0.00000  Uiso   1.00
N206   N     0.68940   0.20694   0.21339   0.00000  Uiso   1.00
O207   O     0.67743   0.24214   0.20979   0.00000  Uiso   1.00
O208   O     0.72622   0.19654   0.19064   0.00000  Uiso   1.00
O209   O     0.97987   0.12755   0.28575   0.00000  Uiso   1.00
H210   H     0.99651   0.11446   0.29941   0.00000  Uiso   1.00
O211   O     0.87098   0.00518   0.20200   0.00000  Uiso   1.00
H212   H     0.88611   0.31635   0.18364   0.00000  Uiso   1.00
N213   N     0.79673   0.00098   0.30329   0.00000  Uiso   1.00
O214   O     0.75823   0.01156   0.31999   0.00000  Uiso   1.00
O215   O     0.81785   0.32268   0.32539   0.00000  Uiso   1.00
O216   O     0.81845   0.18281   0.09794   0.00000  Uiso   1.00
H217   H     0.81615   0.19944   0.07731   0.00000  Uiso   1.00
O218   O     0.91873   0.08939   0.10120   0.00000  Uiso   1.00
H219   H     0.91177   0.10033   0.12959   0.00000  Uiso   1.00
N220   N     0.92720   0.08688   0.45238   0.00000  Uiso   1.00
O221   O     0.96466   0.10720   0.45193   0.00000  Uiso   1.00
O222   O     0.92475   0.05458   0.42681   0.00000  Uiso   1.00
O223   O     0.72698   0.21198   0.40516   0.00000  Uiso   1.00
H224   H     0.74338   0.23648   0.39185   0.00000  Uiso   1.00
O225   O     0.86723   0.18228   0.40385   0.00000  Uiso   1.00
H226   H     0.88186   0.18789   0.42534   0.00000  Uiso   1.00
N227   N     0.75156   0.13265   0.07902   0.00000  Uiso   1.00
O228   O     0.75732   0.09664   0.08722   0.00000  Uiso   1.00
O229   O     0.72824   0.15681   0.10671   0.00000  Uiso   1.00
O230   O     0.86965   0.10492   0.41607   0.00000  Uiso   1.00
H231   H     0.84171   0.10121   0.40953   0.00000  Uiso   1.00
Zn232  Zn    0.19244   0.47423   0.28277   0.00000  Uiso   1.00
Zn233  Zn    0.13459   0.45711   0.22257   0.00000  Uiso   1.00
Zn234  Zn    0.21166   0.52997   0.21188   0.00000  Uiso   1.00
Zn235  Zn    0.12798   0.53868   0.28277   0.00000  Uiso   1.00
O236   O     0.16667   0.50000   0.25000   0.00000  Uiso   1.00
O237   O     0.06990   0.52293   0.27820   0.00000  Uiso   1.00
O238   O     0.25440   0.48610   0.26767   0.00000  Uiso   1.00
O239   O     0.13800   0.40236   0.23607   0.00000  Uiso   1.00
O240   O     0.20437   0.58860   0.21805   0.00000  Uiso   1.00
O241   O     0.15693   0.45726   0.16625   0.00000  Uiso   1.00
O242   O     0.12687   0.53979   0.33749   0.00000  Uiso   1.00
O243   O     0.21088   0.50826   0.15877   0.00000  Uiso   1.00
O244   O     0.17198   0.49468   0.33749   0.00000  Uiso   1.00
O245   O     0.17849   0.41434   0.27820   0.00000  Uiso   1.00
O246   O     0.14581   0.59469   0.26767   0.00000  Uiso   1.00
O247   O     0.07452   0.46584   0.23607   0.00000  Uiso   1.00
O248   O     0.26785   0.52512   0.21805   0.00000  Uiso   1.00
C249   C     0.05274   0.49289   0.25895   0.00000  Uiso   1.00
C250   C     0.28105   0.50741   0.24171   0.00000  Uiso   1.00
C251   C     0.15625   0.38966   0.25911   0.00000  Uiso   1.00
C252   C     0.17661   0.61099   0.24111   0.00000  Uiso   1.00
C253   C     0.18803   0.47888   0.14381   0.00000  Uiso   1.00
C254   C     0.14511   0.52070   0.35659   0.00000  Uiso   1.00
C255   C     0.13003   0.52257   0.40071   0.00000  Uiso   1.00
C256   C     0.19862   0.46809   0.10063   0.00000  Uiso   1.00
C257   C     0.07074   0.51997   0.46098   0.00000  Uiso   1.00
C258   C     0.08729   0.52974   0.42185   0.00000  Uiso   1.00
C259   C     0.15667   0.51039   0.42118   0.00000  Uiso   1.00
C260   C     0.13830   0.49550   0.45935   0.00000  Uiso   1.00
C261   C     0.09547   0.50276   0.48003   0.00000  Uiso   1.00
C262   C     0.16116   0.47402   0.47778   0.00000  Uiso   1.00
C263   C     0.14770   0.47421   0.01955   0.00000  Uiso   1.00
C264   C     0.10372   0.47863   0.03959   0.00000  Uiso   1.00
C265   C     0.07726   0.49161   0.01903   0.00000  Uiso   1.00
C266   C     0.19574   0.45088   0.45622   0.00000  Uiso   1.00
C267   C     0.22220   0.43749   0.47607   0.00000  Uiso   1.00
C268   C     0.21302   0.44460   0.01819   0.00000  Uiso   1.00
C269   C     0.17792   0.46716   0.03938   0.00000  Uiso   1.00
C270   C     0.23701   0.42923   0.04005   0.00000  Uiso   1.00
C271   C     0.22930   0.44035   0.08122   0.00000  Uiso   1.00
C272   C     0.17511   0.48344   0.07939   0.00000  Uiso   1.00
H273   H     0.03788   0.52565   0.47627   0.00000  Uiso   1.00
C274   C     0.32691   0.51165   0.23938   0.00000  Uiso   1.00
C275   C     0.00755   0.48934   0.26188   0.00000  Uiso   1.00
C276   C     0.17817   0.65512   0.23610   0.00000  Uiso   1.00
C277   C     0.15282   0.34639   0.26429   0.00000  Uiso   1.00
O278   O     0.03372   0.49381   0.03612   0.00000  Uiso   1.00
H279   H     0.02268   0.47386   0.05644   0.00000  Uiso   1.00
N280   N     0.26591   0.39854   0.02202   0.00000  Uiso   1.00
O281   O     0.30503   0.40418   0.02535   0.00000  Uiso   1.00
O282   O     0.25103   0.36222   0.00824   0.00000  Uiso   1.00
N283   N     0.02274   0.54027   0.21339   0.00000  Uiso   1.00
O284   O     0.01077   0.57548   0.20979   0.00000  Uiso   1.00
O285   O     0.05956   0.52987   0.19064   0.00000  Uiso   1.00
O286   O     0.31321   0.46088   0.28575   0.00000  Uiso   1.00
H287   H     0.32984   0.44779   0.29941   0.00000  Uiso   1.00
O288   O     0.20432   0.33851   0.20200   0.00000  Uiso   1.00
H289   H     0.21944   0.64969   0.18364   0.00000  Uiso   1.00
N290   N     0.13007   0.33431   0.30329   0.00000  Uiso   1.00
O291   O     0.09156   0.34489   0.31999   0.00000  Uiso   1.00
O292   O     0.15118   0.65601   0.32539   0.00000  Uiso   1.00
O293   O     0.15179   0.51615   0.09794   0.00000  Uiso   1.00
H294   H     0.14948   0.53278   0.07731   0.00000  Uiso   1.00
O295   O     0.25207   0.42272   0.10120   0.00000  Uiso   1.00
H296   H     0.24510   0.43366   0.12959   0.00000  Uiso   1.00
N297   N     0.26053   0.42021   0.45238   0.00000  Uiso   1.00
O298   O     0.29799   0.44054   0.45193   0.00000  Uiso   1.00
O299   O     0.25808   0.38791   0.42681   0.00000  Uiso   1.00
O300   O     0.06032   0.54531   0.40516   0.00000  Uiso   1.00
H301   H     0.07671   0.56982   0.39185   0.00000  Uiso   1.00
O302   O     0.20056   0.51562   0.40385   0.00000  Uiso   1.00
H303   H     0.21520   0.52123   0.42534   0.00000  Uiso   1.00
N304   N     0.08490   0.46598   0.07902   0.00000  Uiso   1.00
O305   O     0.09065   0.42997   0.08722   0.00000  Uiso   1.00
O306   O     0.06157   0.49014   0.10671   0.00000  Uiso   1.00
O307   O     0.20298   0.43825   0.41607   0.00000  Uiso   1.00
H308   H     0.17505   0.43454   0.40953   0.00000  Uiso   1.00
Zn309  Zn    0.52577   0.47423   0.28277   0.00000  Uiso   1.00
Zn310  Zn    0.46792   0.45711   0.22257   0.00000  Uiso   1.00
Zn311  Zn    0.54500   0.52997   0.21188   0.00000  Uiso   1.00
Zn312  Zn    0.46131   0.53868   0.28277   0.00000  Uiso   1.00
O313   O     0.50000   0.50000   0.25000   0.00000  Uiso   1.00
O314   O     0.40323   0.52293   0.27820   0.00000  Uiso   1.00
O315   O     0.58773   0.48610   0.26767   0.00000  Uiso   1.00
O316   O     0.47133   0.40236   0.23607   0.00000  Uiso   1.00
O317   O     0.53771   0.58860   0.21805   0.00000  Uiso   1.00
O318   O     0.49027   0.45726   0.16625   0.00000  Uiso   1.00
O319   O     0.46020   0.53979   0.33749   0.00000  Uiso   1.00
O320   O     0.54421   0.50826   0.15877   0.00000  Uiso   1.00
O321   O     0.50532   0.49468   0.33749   0.00000  Uiso   1.00
O322   O     0.51182   0.41434   0.27820   0.00000  Uiso   1.00
O323   O     0.47914   0.59469   0.26767   0.00000  Uiso   1.00
O324   O     0.40785   0.46584   0.23607   0.00000  Uiso   1.00
O325   O     0.60119   0.52512   0.21805   0.00000  Uiso   1.00
C326   C     0.38608   0.49289   0.25895   0.00000  Uiso   1.00
C327   C     0.61439   0.50741   0.24171   0.00000  Uiso   1.00
C328   C     0.48959   0.38966   0.25911   0.00000  Uiso   1.00
C329   C     0.50995   0.61099   0.24111   0.00000  Uiso   1.00
C330   C     0.52136   0.47888   0.14381   0.00000  Uiso   1.00
C331   C     0.47844   0.52070   0.35659   0.00000  Uiso   1.00
C332   C     0.46336   0.52257   0.40071   0.00000  Uiso   1.00
C333   C     0.53195   0.46809   0.10063   0.00000  Uiso   1.00
C334   C     0.40407   0.51997   0.46098   0.00000  Uiso   1.00
C335   C     0.42063   0.52974   0.42185   0.00000  Uiso   1.00
C336   C     0.49000   0.51039   0.42118   0.00000  Uiso   1.00
C337   C     0.47164   0.49550   0.45935   0.00000  Uiso   1.00
C338   C     0.42880   0.50276   0.48003   0.00000  Uiso   1.00
C339   C     0.49450   0.47402   0.47778   0.00000  Uiso   1.00
C340   C     0.48103   0.47421   0.01955   0.00000  Uiso   1.00
C341   C     0.43705   0.47863   0.03959   0.00000  Uiso   1.00
C342   C     0.41060   0.49161   0.01903   0.00000  Uiso   1.00
C343   C     0.52907   0.45088   0.45622   0.00000  Uiso   1.00
C344   C     0.55553   0.43749   0.47607   0.00000  Uiso   1.00
C345   C     0.54635   0.44460   0.01819   0.00000  Uiso   1.00
C346   C     0.51125   0.46716   0.03938   0.00000  Uiso   1.00
C347   C     0.57035   0.42923   0.04005   0.00000  Uiso   1.00
C348   C     0.56263   0.44035   0.08122   0.00000  Uiso   1.00
C349   C     0.50844   0.48344   0.07939   0.00000  Uiso   1.00
H350   H     0.37121   0.52565   0.47627   0.00000  Uiso   1.00
C351   C     0.66024   0.51165   0.23938   0.00000  Uiso   1.00
C352   C     0.34089   0.48934   0.26188   0.00000  Uiso   1.00
C353   C     0.51151   0.65512   0.23610   0.00000  Uiso   1.00
C354   C     0.48615   0.34639   0.26429   0.00000  Uiso   1.00
O355   O     0.36705   0.49381   0.03612   0.00000  Uiso   1.00
H356   H     0.35601   0.47386   0.05644   0.00000  Uiso   1.00
N357   N     0.59924   0.39854   0.02202   0.00000  Uiso   1.00
O358   O     0.63836   0.40418   0.02535   0.00000  Uiso   1.00
O359   O     0.58437   0.36222   0.00824   0.00000  Uiso   1.00
N360   N     0.35607   0.54027   0.21339   0.00000  Uiso   1.00
O361   O     0.34410   0.57548   0.20979   0.00000  Uiso   1.00
O362   O     0.39289   0.52987   0.19064   0.00000  Uiso   1.00
O363   O     0.64654   0.46088   0.28575   0.00000  Uiso   1.00
H364   H     0.66318   0.44779   0.29941   0.00000  Uiso   1.00
O365   O     0.53765   0.33851   0.20200   0.00000  Uiso   1.00
H366   H     0.55277   0.64969   0.18364   0.00000  Uiso   1.00
N367   N     0.46340   0.33431   0.30329   0.00000  Uiso   1.00
O368   O     0.42490   0.34489   0.31999   0.00000  Uiso   1.00
O369   O     0.48452   0.65601   0.32539   0.00000  Uiso   1.00
O370   O     0.48512   0.51615   0.09794   0.00000  Uiso   1.00
H371   H     0.48281   0.53278   0.07731   0.00000  Uiso   1.00
O372   O     0.58540   0.42272   0.10120   0.00000  Uiso   1.00
H373   H     0.57844   0.43366   0.12959   0.00000  Uiso   1.00
N374   N     0.59387   0.42021   0.45238   0.00000  Uiso   1.00
O375   O     0.63133   0.44054   0.45193   0.00000  Uiso   1.00
O376   O     0.59142   0.38791   0.42681   0.00000  Uiso   1.00
O377   O     0.39365   0.54531   0.40516   0.00000  Uiso   1.00
H378   H     0.41004   0.56982   0.39185   0.00000  Uiso   1.00
O379   O     0.53390   0.51562   0.40385   0.00000  Uiso   1.00
H380   H     0.54853   0.52123   0.42534   0.00000  Uiso   1.00
N381   N     0.41823   0.46598   0.07902   0.00000  Uiso   1.00
O382   O     0.42398   0.42997   0.08722   0.00000  Uiso   1.00
O383   O     0.39491   0.49014   0.10671   0.00000  Uiso   1.00
O384   O     0.53631   0.43825   0.41607   0.00000  Uiso   1.00
H385   H     0.50838   0.43454   0.40953   0.00000  Uiso   1.00
Zn386  Zn    0.85910   0.47423   0.28277   0.00000  Uiso   1.00
Zn387  Zn    0.80125   0.45711   0.22257   0.00000  Uiso   1.00
Zn388  Zn    0.87833   0.52997   0.21188   0.00000  Uiso   1.00
Zn389  Zn    0.79465   0.53868   0.28277   0.00000  Uiso   1.00
O390   O     0.83333   0.50000   0.25000   0.00000  Uiso   1.00
O391   O     0.73656   0.52293   0.27820   0.00000  Uiso   1.00
O392   O     0.92106   0.48610   0.26767   0.00000  Uiso   1.00
O393   O     0.80467   0.40236   0.23607   0.00000  Uiso   1.00
O394   O     0.87104   0.58860   0.21805   0.00000  Uiso   1.00
O395   O     0.82360   0.45726   0.16625   0.00000  Uiso   1.00
O396   O     0.79354   0.53979   0.33749   0.00000  Uiso   1.00
O397   O     0.87755   0.50826   0.15877   0.00000  Uiso   1.00
O398   O     0.83865   0.49468   0.33749   0.00000  Uiso   1.00
O399   O     0.84515   0.41434   0.27820   0.00000  Uiso   1.00
O400   O     0.81247   0.59469   0.26767   0.00000  Uiso   1.00
O401   O     0.74119   0.46584   0.23607   0.00000  Uiso   1.00
O402   O     0.93452   0.52512   0.21805   0.00000  Uiso   1.00
C403   C     0.71941   0.49289   0.25895   0.00000  Uiso   1.00
C404   C     0.94772   0.50741   0.24171   0.00000  Uiso   1.00
C405   C     0.82292   0.38966   0.25911   0.00000  Uiso   1.00
C406   C     0.84328   0.61099   0.24111   0.00000  Uiso   1.00
C407   C     0.85470   0.47888   0.14381   0.00000  Uiso   1.00
C408   C     0.81178   0.52070   0.35659   0.00000  Uiso   1.00
C409   C     0.79670   0.52257   0.40071   0.00000  Uiso   1.00
C410   C     0.86528   0.46809   0.10063   0.00000  Uiso   1.00
C411   C     0.73740   0.51997   0.46098   0.00000  Uiso   1.00
C412   C     0.75396   0.52974   0.42185   0.00000  Uiso   1.00
C413   C     0.82334   0.51039   0.42118   0.00000  Uiso   1.00
C414   C     0.80497   0.49550   0.45935   0.00000  Uiso   1.00
C415   C     0.76214   0.50276   0.48003   0.00000  Uiso   1.00
C416   C     0.82783   0.47402   0.47778   0.00000  Uiso   1.00
C417   C     0.81436   0.47421   0.01955   0.00000  Uiso   1.00
C418   C     0.77039   0.47863   0.03959   0.00000  Uiso   1.00
C419   C     0.74393   0.49161   0.01903   0.00000  Uiso   1.00
C420   C     0.86240   0.45088   0.45622   0.00000  Uiso   1.00
C421   C     0.88886   0.43749   0.47607   0.00000  Uiso   1.00
C422   C     0.87968   0.44460   0.01819   0.00000  Uiso   1.00
C423   C     0.84458   0.46716   0.03938   0.00000  Uiso   1.00
C424   C     0.90368   0.42923   0.04005   0.00000  Uiso   1.00
C425   C     0.89596   0.44035   0.08122   0.00000  Uiso   1.00
C426   C     0.84178   0.48344   0.07939   0.00000  Uiso   1.00
H427   H     0.70454   0.52565   0.47627   0.00000  Uiso   1.00
C428   C     0.99357   0.51165   0.23938   0.00000  Uiso   1.00
C429   C     0.67422   0.48934   0.26188   0.00000  Uiso   1.00
C430   C     0.84484   0.65512   0.23610   0.00000  Uiso   1.00
C431   C     0.81949   0.34639   0.26429   0.00000  Uiso   1.00
O432   O     0.70039   0.49381   0.03612   0.00000  Uiso   1.00
H433   H     0.68935   0.47386   0.05644   0.00000  Uiso   1.00
N434   N     0.93257   0.39854   0.02202   0.00000  Uiso   1.00
O435   O     0.97170   0.40418   0.02535   0.00000  Uiso   1.00
O436   O     0.91770   0.36222   0.00824   0.00000  Uiso   1.00
N437   N     0.68940   0.54027   0.21339   0.00000  Uiso   1.00
O438   O     0.67743   0.57548   0.20979   0.00000  Uiso   1.00
O439   O     0.72622   0.52987   0.19064   0.00000  Uiso   1.00
O440   O     0.97987   0.46088   0.28575   0.00000  Uiso   1.00
H441   H     0.99651   0.44779   0.29941   0.00000  Uiso   1.00
O442   O     0.87098   0.33851   0.20200   0.00000  Uiso   1.00
H443   H     0.88611   0.64969   0.18364   0.00000  Uiso   1.00
N444   N     0.79673   0.33431   0.30329   0.00000  Uiso   1.00
O445   O     0.75823   0.34489   0.31999   0.00000  Uiso   1.00
O446   O     0.81785   0.65601   0.32539   0.00000  Uiso   1.00
O447   O     0.81845   0.51615   0.09794   0.00000  Uiso   1.00
H448   H     0.81615   0.53278   0.07731   0.00000  Uiso   1.00
O449   O     0.91873   0.42272   0.10120   0.00000  Uiso   1.00
H450   H     0.91177   0.43366   0.12959   0.00000  Uiso   1.00
N451   N     0.92720   0.42021   0.45238   0.00000  Uiso   1.00
O452   O     0.96466   0.44054   0.45193   0.00000  Uiso   1.00
O453   O     0.92475   0.38791   0.42681   0.00000  Uiso   1.00
O454   O     0.72698   0.54531   0.40516   0.00000  Uiso   1.00
H455   H     0.74338   0.56982   0.39185   0.00000  Uiso   1.00
O456   O     0.86723   0.51562   0.40385   0.00000  Uiso   1.00
H457   H     0.88186   0.52123   0.42534   0.00000  Uiso   1.00
N458   N     0.75156   0.46598   0.07902   0.00000  Uiso   1.00
O459   O     0.75732   0.42997   0.08722   0.00000  Uiso   1.00
O460   O     0.72824   0.49014   0.10671   0.00000  Uiso   1.00
O461   O     0.86965   0.43825   0.41607   0.00000  Uiso   1.00
H462   H     0.84171   0.43454   0.40953   0.00000  Uiso   1.00
Zn463  Zn    0.19244   0.80756   0.28277   0.00000  Uiso   1.00
Zn464  Zn    0.13459   0.79044   0.22257   0.00000  Uiso   1.00
Zn465  Zn    0.21166   0.86331   0.21188   0.00000  Uiso   1.00
Zn466  Zn    0.12798   0.87202   0.28277   0.00000  Uiso   1.00
O467   O     0.16667   0.83333   0.25000   0.00000  Uiso   1.00
O468   O     0.06990   0.85627   0.27820   0.00000  Uiso   1.00
O469   O     0.25440   0.81944   0.26767   0.00000  Uiso   1.00
O470   O     0.13800   0.73570   0.23607   0.00000  Uiso   1.00
O471   O     0.20437   0.92193   0.21805   0.00000  Uiso   1.00
O472   O     0.15693   0.79060   0.16625   0.00000  Uiso   1.00
O473   O     0.12687   0.87313   0.33749   0.00000  Uiso   1.00
O474   O     0.21088   0.84159   0.15877   0.00000  Uiso   1.00
O475   O     0.17198   0.82802   0.33749   0.00000  Uiso   1.00
O476   O     0.17849   0.74768   0.27820   0.00000  Uiso   1.00
O477   O     0.14581   0.92803   0.26767   0.00000  Uiso   1.00
O478   O     0.07452   0.79917   0.23607   0.00000  Uiso   1.00
O479   O     0.26785   0.85845   0.21805   0.00000  Uiso   1.00
C480   C     0.05274   0.82623   0.25895   0.00000  Uiso   1.00
C481   C     0.28105   0.84074   0.24171   0.00000  Uiso   1.00
C482   C     0.15625   0.72299   0.25911   0.00000  Uiso   1.00
C483   C     0.17661   0.94432   0.24111   0.00000  Uiso   1.00
C484   C     0.18803   0.81221   0.14381   0.00000  Uiso   1.00
C485   C     0.14511   0.85404   0.35659   0.00000  Uiso   1.00
C486   C     0.13003   0.85590   0.40071   0.00000  Uiso   1.00
C487   C     0.19862   0.80142   0.10063   0.00000  Uiso   1.00
C488   C     0.07074   0.85330   0.46098   0.00000  Uiso   1.00
C489   C     0.08729   0.86307   0.42185   0.00000  Uiso   1.00
C490   C     0.15667   0.84372   0.42118   0.00000  Uiso   1.00
C491   C     0.13830   0.82884   0.45935   0.00000  Uiso   1.00
C492   C     0.09547   0.83609   0.48003   0.00000  Uiso   1.00
C493   C     0.16116   0.80735   0.47778   0.00000  Uiso   1.00
C494   C     0.14770   0.80754   0.01955   0.00000  Uiso   1.00
C495   C     0.10372   0.81196   0.03959   0.00000  Uiso   1.00
C496   C     0.07726   0.82494   0.01903   0.00000  Uiso   1.00
C497   C     0.19574   0.78421   0.45622   0.00000  Uiso   1.00
C498   C     0.22220   0.77082   0.47607   0.00000  Uiso   1.00
C499   C     0.21302   0.77794   0.01819   0.00000  Uiso   1.00
C500   C     0.17792   0.80050   0.03938   0.00000  Uiso   1.00
C501   C     0.23701   0.76257   0.04005   0.00000  Uiso   1.00
C502   C     0.22930   0.77368   0.08122   0.00000  Uiso   1.00
C503   C     0.17511   0.81677   0.07939   0.00000  Uiso   1.00
H504   H     0.03788   0.85898   0.47627   0.00000  Uiso   1.00
C505   C     0.32691   0.84499   0.23938   0.00000  Uiso   1.00
C506   C     0.00755   0.82267   0.26188   0.00000  Uiso   1.00
C507   C     0.17817   0.98845   0.23610   0.00000  Uiso   1.00
C508   C     0.15282   0.67972   0.26429   0.00000  Uiso   1.00
O509   O     0.03372   0.82714   0.03612   0.00000  Uiso   1.00
H510   H     0.02268   0.80720   0.05644   0.00000  Uiso   1.00
N511   N     0.26591   0.73187   0.02202   0.00000  Uiso   1.00
O512   O     0.30503   0.73751   0.02535   0.00000  Uiso   1.00
O513   O     0.25103   0.69555   0.00824   0.00000  Uiso   1.00
N514   N     0.02274   0.87361   0.21339   0.00000  Uiso   1.00
O515   O     0.01077   0.90881   0.20979   0.00000  Uiso   1.00
O516   O     0.05956   0.86320   0.19064   0.00000  Uiso   1.00
O517   O     0.31321   0.79421   0.28575   0.00000  Uiso   1.00
H518   H     0.32984   0.78113   0.29941   0.00000  Uiso   1.00
O519   O     0.20432   0.67185   0.20200   0.00000  Uiso   1.00
H520   H     0.21944   0.98302   0.18364   0.00000  Uiso   1.00
N521   N     0.13007   0.66765   0.30329   0.00000  Uiso   1.00
O522   O     0.09156   0.67822   0.31999   0.00000  Uiso   1.00
O523   O     0.15118   0.98935   0.32539   0.00000  Uiso   1.00
O524   O     0.15179   0.84948   0.09794   0.00000  Uiso   1.00
H525   H     0.14948   0.86611   0.07731   0.00000  Uiso   1.00
O526   O     0.25207   0.75606   0.10120   0.00000  Uiso   1.00
H527   H     0.24510   0.76699   0.12959   0.00000  Uiso   1.00
N528   N     0.26053   0.75354   0.45238   0.00000  Uiso   1.00
O529   O     0.29799   0.77387   0.45193   0.00000  Uiso   1.00
O530   O     0.25808   0.72124   0.42681   0.00000  Uiso   1.00
O531   O     0.06032   0.87864   0.40516   0.00000  Uiso   1.00
H532   H     0.07671   0.90315   0.39185   0.00000  Uiso   1.00
O533   O     0.20056   0.84895   0.40385   0.00000  Uiso   1.00
H534   H     0.21520   0.85456   0.42534   0.00000  Uiso   1.00
N535   N     0.08490   0.79932   0.07902   0.00000  Uiso   1.00
O536   O     0.09065   0.76330   0.08722   0.00000  Uiso   1.00
O537   O     0.06157   0.82348   0.10671   0.00000  Uiso   1.00
O538   O     0.20298   0.77158   0.41607   0.00000  Uiso   1.00
H539   H     0.17505   0.76788   0.40953   0.00000  Uiso   1.00
Zn540  Zn    0.52577   0.80756   0.28277   0.00000  Uiso   1.00
Zn541  Zn    0.46792   0.79044   0.22257   0.00000  Uiso   1.00
Zn542  Zn    0.54500   0.86331   0.21188   0.00000  Uiso   1.00
Zn543  Zn    0.46131   0.87202   0.28277   0.00000  Uiso   1.00
O544   O     0.50000   0.83333   0.25000   0.00000  Uiso   1.00
O545   O     0.40323   0.85627   0.27820   0.00000  Uiso   1.00
O546   O     0.58773   0.81944   0.26767   0.00000  Uiso   1.00
O547   O     0.47133   0.73570   0.23607   0.00000  Uiso   1.00
O548   O     0.53771   0.92193   0.21805   0.00000  Uiso   1.00
O549   O     0.49027   0.79060   0.16625   0.00000  Uiso   1.00
O550   O     0.46020   0.87313   0.33749   0.00000  Uiso   1.00
O551   O     0.54421   0.84159   0.15877   0.00000  Uiso   1.00
O552   O     0.50532   0.82802   0.33749   0.00000  Uiso   1.00
O553   O     0.51182   0.74768   0.27820   0.00000  Uiso   1.00
O554   O     0.47914   0.92803   0.26767   0.00000  Uiso   1.00
O555   O     0.40785   0.79917   0.23607   0.00000  Uiso   1.00
O556   O     0.60119   0.85845   0.21805   0.00000  Uiso   1.00
C557   C     0.38608   0.82623   0.25895   0.00000  Uiso   1.00
C558   C     0.61439   0.84074   0.24171   0.00000  Uiso   1.00
C559   C     0.48959   0.72299   0.25911   0.00000  Uiso   1.00
C560   C     0.50995   0.94432   0.24111   0.00000  Uiso   1.00
C561   C     0.52136   0.81221   0.14381   0.00000  Uiso   1.00
C562   C     0.47844   0.85404   0.35659   0.00000  Uiso   1.00
C563   C     0.46336   0.85590   0.40071   0.00000  Uiso   1.00
C564   C     0.53195   0.80142   0.10063   0.00000  Uiso   1.00
C565   C     0.40407   0.85330   0.46098   0.00000  Uiso   1.00
C566   C     0.42063   0.86307   0.42185   0.00000  Uiso   1.00
C567   C     0.49000   0.84372   0.42118   0.00000  Uiso   1.00
C568   C     0.47164   0.82884   0.45935   0.00000  Uiso   1.00
C569   C     0.42880   0.83609   0.48003   0.00000  Uiso   1.00
C570   C     0.49450   0.80735   0.47778   0.00000  Uiso   1.00
C571   C     0.48103   0.80754   0.01955   0.00000  Uiso   1.00
C572   C     0.43705   0.81196   0.03959   0.00000  Uiso   1.00
C573   C     0.41060   0.82494   0.01903   0.00000  Uiso   1.00
C574   C     0.52907   0.78421   0.45622   0.00000  Uiso   1.00
C575   C     0.55553   0.77082   0.47607   0.00000  Uiso   1.00
C576   C     0.54635   0.77794   0.01819   0.00000  Uiso   1.00
C577   C     0.51125   0.80050   0.03938   0.00000  Uiso   1.00
C578   C     0.57035   0.76257   0.04005   0.00000  Uiso   1.00
C579   C     0.56263   0.77368   0.08122   0.00000  Uiso   1.00
C580   C     0.50844   0.81677   0.07939   0.00000  Uiso   1.00
H581   H     0.37121   0.85898   0.47627   0.00000  Uiso   1.00
C582   C     0.66024   0.84499   0.23938   0.00000  Uiso   1.00
C583   C     0.34089   0.82267   0.26188   0.00000  Uiso   1.00
C584   C     0.51151   0.98845   0.23610   0.00000  Uiso   1.00
C585   C     0.48615   0.67972   0.26429   0.00000  Uiso   1.00
O586   O     0.36705   0.82714   0.03612   0.00000  Uiso   1.00
H587   H     0.35601   0.80720   0.05644   0.00000  Uiso   1.00
N588   N     0.59924   0.73187   0.02202   0.00000  Uiso   1.00
O589   O     0.63836   0.73751   0.02535   0.00000  Uiso   1.00
O590   O     0.58437   0.69555   0.00824   0.00000  Uiso   1.00
N591   N     0.35607   0.87361   0.21339   0.00000  Uiso   1.00
O592   O     0.34410   0.90881   0.20979   0.00000  Uiso   1.00
O593   O     0.39289   0.86320   0.19064   0.00000  Uiso   1.00
O594   O     0.64654   0.79421   0.28575   0.00000  Uiso   1.00
H595   H     0.66318   0.78113   0.29941   0.00000  Uiso   1.00
O596   O     0.53765   0.67185   0.20200   0.00000  Uiso   1.00
H597   H     0.55277   0.98302   0.18364   0.00000  Uiso   1.00
N598   N     0.46340   0.66765   0.30329   0.00000  Uiso   1.00
O599   O     0.42490   0.67822   0.31999   0.00000  Uiso   1.00
O600   O     0.48452   0.98935   0.32539   0.00000  Uiso   1.00
O601   O     0.48512   0.84948   0.09794   0.00000  Uiso   1.00
H602   H     0.48281   0.86611   0.07731   0.00000  Uiso   1.00
O603   O     0.58540   0.75606   0.10120   0.00000  Uiso   1.00
H604   H     0.57844   0.76699   0.12959   0.00000  Uiso   1.00
N605   N     0.59387   0.75354   0.45238   0.00000  Uiso   1.00
O606   O     0.63133   0.77387   0.45193   0.00000  Uiso   1.00
O607   O     0.59142   0.72124   0.42681   0.00000  Uiso   1.00
O608   O     0.39365   0.87864   0.40516   0.00000  Uiso   1.00
H609   H     0.41004   0.90315   0.39185   0.00000  Uiso   1.00
O610   O     0.53390   0.84895   0.40385   0.00000  Uiso   1.00
H611   H     0.54853   0.85456   0.42534   0.00000  Uiso   1.00
N612   N     0.41823   0.79932   0.07902   0.00000  Uiso   1.00
O613   O     0.42398   0.76330   0.08722   0.00000  Uiso   1.00
O614   O     0.39491   0.82348   0.10671   0.00000  Uiso   1.00
O615   O     0.53631   0.77158   0.41607   0.00000  Uiso   1.00
H616   H     0.50838   0.76788   0.40953   0.00000  Uiso   1.00
Zn617  Zn    0.85910   0.80756   0.28277   0.00000  Uiso   1.00
Zn618  Zn    0.80125   0.79044   0.22257   0.00000  Uiso   1.00
Zn619  Zn    0.87833   0.86331   0.21188   0.00000  Uiso   1.00
Zn620  Zn    0.79465   0.87202   0.28277   0.00000  Uiso   1.00
O621   O     0.83333   0.83333   0.25000   0.00000  Uiso   1.00
O622   O     0.73656   0.85627   0.27820   0.00000  Uiso   1.00
O623   O     0.92106   0.81944   0.26767   0.00000  Uiso   1.00
O624   O     0.80467   0.73570   0.23607   0.00000  Uiso   1.00
O625   O     0.87104   0.92193   0.21805   0.00000  Uiso   1.00
O626   O     0.82360   0.79060   0.16625   0.00000  Uiso   1.00
O627   O     0.79354   0.87313   0.33749   0.00000  Uiso   1.00
O628   O     0.87755   0.84159   0.15877   0.00000  Uiso   1.00
O629   O     0.83865   0.82802   0.33749   0.00000  Uiso   1.00
O630   O     0.84515   0.74768   0.27820   0.00000  Uiso   1.00
O631   O     0.81247   0.92803   0.26767   0.00000  Uiso   1.00
O632   O     0.74119   0.79917   0.23607   0.00000  Uiso   1.00
O633   O     0.93452   0.85845   0.21805   0.00000  Uiso   1.00
C634   C     0.71941   0.82623   0.25895   0.00000  Uiso   1.00
C635   C     0.94772   0.84074   0.24171   0.00000  Uiso   1.00
C636   C     0.82292   0.72299   0.25911   0.00000  Uiso   1.00
C637   C     0.84328   0.94432   0.24111   0.00000  Uiso   1.00
C638   C     0.85470   0.81221   0.14381   0.00000  Uiso   1.00
C639   C     0.81178   0.85404   0.35659   0.00000  Uiso   1.00
C640   C     0.79670   0.85590   0.40071   0.00000  Uiso   1.00
C641   C     0.86528   0.80142   0.10063   0.00000  Uiso   1.00
C642   C     0.73740   0.85330   0.46098   0.00000  Uiso   1.00
C643   C     0.75396   0.86307   0.42185   0.00000  Uiso   1.00
C644   C     0.82334   0.84372   0.42118   0.00000  Uiso   1.00
C645   C     0.80497   0.82884   0.45935   0.00000  Uiso   1.00
C646   C     0.76214   0.83609   0.48003   0.00000  Uiso   1.00
C647   C     0.82783   0.80735   0.47778   0.00000  Uiso   1.00
C648   C     0.81436   0.80754   0.01955   0.00000  Uiso   1.00
C649   C     0.77039   0.81196   0.03959   0.00000  Uiso   1.00
C650   C     0.74393   0.82494   0.01903   0.00000  Uiso   1.00
C651   C     0.86240   0.78421   0.45622   0.00000  Uiso   1.00
C652   C     0.88886   0.77082   0.47607   0.00000  Uiso   1.00
C653   C     0.87968   0.77794   0.01819   0.00000  Uiso   1.00
C654   C     0.84458   0.80050   0.03938   0.00000  Uiso   1.00
C655   C     0.90368   0.76257   0.04005   0.00000  Uiso   1.00
C656   C     0.89596   0.77368   0.08122   0.00000  Uiso   1.00
C657   C     0.84178   0.81677   0.07939   0.00000  Uiso   1.00
H658   H     0.70454   0.85898   0.47627   0.00000  Uiso   1.00
C659   C     0.99357   0.84499   0.23938   0.00000  Uiso   1.00
C660   C     0.67422   0.82267   0.26188   0.00000  Uiso   1.00
C661   C     0.84484   0.98845   0.23610   0.00000  Uiso   1.00
C662   C     0.81949   0.67972   0.26429   0.00000  Uiso   1.00
O663   O     0.70039   0.82714   0.03612   0.00000  Uiso   1.00
H664   H     0.68935   0.80720   0.05644   0.00000  Uiso   1.00
N665   N     0.93257   0.73187   0.02202   0.00000  Uiso   1.00
O666   O     0.97170   0.73751   0.02535   0.00000  Uiso   1.00
O667   O     0.91770   0.69555   0.00824   0.00000  Uiso   1.00
N668   N     0.68940   0.87361   0.21339   0.00000  Uiso   1.00
O669   O     0.67743   0.90881   0.20979   0.00000  Uiso   1.00
O670   O     0.72622   0.86320   0.19064   0.00000  Uiso   1.00
O671   O     0.97987   0.79421   0.28575   0.00000  Uiso   1.00
H672   H     0.99651   0.78113   0.29941   0.00000  Uiso   1.00
O673   O     0.87098   0.67185   0.20200   0.00000  Uiso   1.00
H674   H     0.88611   0.98302   0.18364   0.00000  Uiso   1.00
N675   N     0.79673   0.66765   0.30329   0.00000  Uiso   1.00
O676   O     0.75823   0.67822   0.31999   0.00000  Uiso   1.00
O677   O     0.81785   0.98935   0.32539   0.00000  Uiso   1.00
O678   O     0.81845   0.84948   0.09794   0.00000  Uiso   1.00
H679   H     0.81615   0.86611   0.07731   0.00000  Uiso   1.00
O680   O     0.91873   0.75606   0.10120   0.00000  Uiso   1.00
H681   H     0.91177   0.76699   0.12959   0.00000  Uiso   1.00
N682   N     0.92720   0.75354   0.45238   0.00000  Uiso   1.00
O683   O     0.96466   0.77387   0.45193   0.00000  Uiso   1.00
O684   O     0.92475   0.72124   0.42681   0.00000  Uiso   1.00
O685   O     0.72698   0.87864   0.40516   0.00000  Uiso   1.00
H686   H     0.74338   0.90315   0.39185   0.00000  Uiso   1.00
O687   O     0.86723   0.84895   0.40385   0.00000  Uiso   1.00
H688   H     0.88186   0.85456   0.42534   0.00000  Uiso   1.00
N689   N     0.75156   0.79932   0.07902   0.00000  Uiso   1.00
O690   O     0.75732   0.76330   0.08722   0.00000  Uiso   1.00
O691   O     0.72824   0.82348   0.10671   0.00000  Uiso   1.00
O692   O     0.86965   0.77158   0.41607   0.00000  Uiso   1.00
H693   H     0.84171   0.76788   0.40953   0.00000  Uiso   1.00
Zn694  Zn    0.19244   0.14090   0.78277   0.00000  Uiso   1.00
Zn695  Zn    0.13459   0.12378   0.72257   0.00000  Uiso   1.00
Zn696  Zn    0.21166   0.19664   0.71188   0.00000  Uiso   1.00
Zn697  Zn    0.12798   0.20535   0.78277   0.00000  Uiso   1.00
O698   O     0.16667   0.16667   0.75000   0.00000  Uiso   1.00
O699   O     0.06990   0.18960   0.77820   0.00000  Uiso   1.00
O700   O     0.25440   0.15277   0.76767   0.00000  Uiso   1.00
O701   O     0.13800   0.06903   0.73607   0.00000  Uiso   1.00
O702   O     0.20437   0.25527   0.71805   0.00000  Uiso   1.00
O703   O     0.15693   0.12393   0.66625   0.00000  Uiso   1.00
O704   O     0.12687   0.20646   0.83749   0.00000  Uiso   1.00
O705   O     0.21088   0.17493   0.65877   0.00000  Uiso   1.00
O706   O     0.17198   0.16135   0.83749   0.00000  Uiso   1.00
O707   O     0.17849   0.08101   0.77820   0.00000  Uiso   1.00
O708   O     0.14581   0.26136   0.76767   0.00000  Uiso   1.00
O709   O     0.07452   0.13251   0.73607   0.00000  Uiso   1.00
O710   O     0.26785   0.19179   0.71805   0.00000  Uiso   1.00
C711   C     0.05274   0.15956   0.75895   0.00000  Uiso   1.00
C712   C     0.28105   0.17408   0.74171   0.00000  Uiso   1.00
C713   C     0.15625   0.05632   0.75911   0.00000  Uiso   1.00
C714   C     0.17661   0.27766   0.74111   0.00000  Uiso   1.00
C715   C     0.18803   0.14554   0.64381   0.00000  Uiso   1.00
C716   C     0.14511   0.18737   0.85659   0.00000  Uiso   1.00
C717   C     0.13003   0.18924   0.90071   0.00000  Uiso   1.00
C718   C     0.19862   0.13476   0.60063   0.00000  Uiso   1.00
C719   C     0.07074   0.18663   0.96098   0.00000  Uiso   1.00
C720   C     0.08729   0.19641   0.92185   0.00000  Uiso   1.00
C721   C     0.15667   0.17705   0.92118   0.00000  Uiso   1.00
C722   C     0.13830   0.16217   0.95935   0.00000  Uiso   1.00
C723   C     0.09547   0.16943   0.98003   0.00000  Uiso   1.00
C724   C     0.16116   0.14069   0.97778   0.00000  Uiso   1.00
C725   C     0.14770   0.14087   0.51955   0.00000  Uiso   1.00
C726   C     0.10372   0.14530   0.53959   0.00000  Uiso   1.00
C727   C     0.07726   0.15827   0.51903   0.00000  Uiso   1.00
C728   C     0.19574   0.11755   0.95622   0.00000  Uiso   1.00
C729   C     0.22220   0.10415   0.97607   0.00000  Uiso   1.00
C730   C     0.21302   0.11127   0.51819   0.00000  Uiso   1.00
C731   C     0.17792   0.13383   0.53938   0.00000  Uiso   1.00
C732   C     0.23701   0.09590   0.54005   0.00000  Uiso   1.00
C733   C     0.22930   0.10701   0.58122   0.00000  Uiso   1.00
C734   C     0.17511   0.15011   0.57939   0.00000  Uiso   1.00
H735   H     0.03788   0.19232   0.97627   0.00000  Uiso   1.00
C736   C     0.32691   0.17832   0.73938   0.00000  Uiso   1.00
C737   C     0.00755   0.15601   0.76188   0.00000  Uiso   1.00
C738   C     0.17817   0.32178   0.73610   0.00000  Uiso   1.00
C739   C     0.15282   0.01305   0.76429   0.00000  Uiso   1.00
O740   O     0.03372   0.16047   0.53612   0.00000  Uiso   1.00
H741   H     0.02268   0.14053   0.55644   0.00000  Uiso   1.00
N742   N     0.26591   0.06520   0.52202   0.00000  Uiso   1.00
O743   O     0.30503   0.07085   0.52535   0.00000  Uiso   1.00
O744   O     0.25103   0.02889   0.50824   0.00000  Uiso   1.00
N745   N     0.02274   0.20694   0.71339   0.00000  Uiso   1.00
O746   O     0.01077   0.24214   0.70979   0.00000  Uiso   1.00
O747   O     0.05956   0.19654   0.69064   0.00000  Uiso   1.00
O748   O     0.31321   0.12755   0.78575   0.00000  Uiso   1.00
H749   H     0.32984   0.11446   0.79941   0.00000  Uiso   1.00
O750   O     0.20432   0.00518   0.70200   0.00000  Uiso   1.00
H751   H     0.21944   0.31635   0.68364   0.00000  Uiso   1.00
N752   N     0.13007   0.00098   0.80329   0.00000  Uiso   1.00
O753   O     0.09156   0.01156   0.81999   0.00000  Uiso   1.00
O754   O     0.15118   0.32268   0.82539   0.00000  Uiso   1.00
O755   O     0.15179   0.18281   0.59794   0.00000  Uiso   1.00
H756   H     0.14948   0.19944   0.57731   0.00000  Uiso   1.00
O757   O     0.25207   0.08939   0.60120   0.00000  Uiso   1.00
H758   H     0.24510   0.10033   0.62959   0.00000  Uiso   1.00
N759   N     0.26053   0.08688   0.95238   0.00000  Uiso   1.00
O760   O     0.29799   0.10720   0.95193   0.00000  Uiso   1.00
O761   O     0.25808   0.05458   0.92681   0.00000  Uiso   1.00
O762   O     0.06032   0.21198   0.90516   0.00000  Uiso   1.00
H763   H     0.07671   0.23648   0.89185   0.00000  Uiso   1.00
O764   O     0.20056   0.18228   0.90385   0.00000  Uiso   1.00
H765   H     0.21520   0.18789   0.92534   0.00000  Uiso   1.00
N766   N     0.08490   0.13265   0.57902   0.00000  Uiso   1.00
O767   O     0.09065   0.09664   0.58722   0.00000  Uiso   1.00
O768   O     0.06157   0.15681   0.60671   0.00000  Uiso   1.00
O769   O     0.20298   0.10492   0.91607   0.00000  Uiso   1.00
H770   H     0.17505   0.10121   0.90953   0.00000  Uiso   1.00
Zn771  Zn    0.52577   0.14090   0.78277   0.00000  Uiso   1.00
Zn772  Zn    0.46792   0.12378   0.72257   0.00000  Uiso   1.00
Zn773  Zn    0.54500   0.19664   0.71188   0.00000  Uiso   1.00
Zn774  Zn    0.46131   0.20535   0.78277   0.00000  Uiso   1.00
O775   O     0.50000   0.16667   0.75000   0.00000  Uiso   1.00
O776   O     0.40323   0.18960   0.77820   0.00000  Uiso   1.00
O777   O     0.58773   0.15277   0.76767   0.00000  Uiso   1.00
O778   O     0.47133   0.06903   0.73607   0.00000  Uiso   1.00
O779   O     0.53771   0.25527   0.71805   0.00000  Uiso   1.00
O780   O     0.49027   0.12393   0.66625   0.00000  Uiso   1.00
O781   O     0.46020   0.20646   0.83749   0.00000  Uiso   1.00
O782   O     0.54421   0.17493   0.65877   0.00000  Uiso   1.00
O783   O     0.50532   0.16135   0.83749   0.00000  Uiso   1.00
O784   O     0.51182   0.08101   0.77820   0.00000  Uiso   1.00
O785   O     0.47914   0.26136   0.76767   0.00000  Uiso   1.00
O786   O     0.40785   0.13251   0.73607   0.00000  Uiso   1.00
O787   O     0.60119   0.19179   0.71805   0.00000  Uiso   1.00
C788   C     0.38608   0.15956   0.75895   0.00000  Uiso   1.00
C789   C     0.61439   0.17408   0.74171   0.00000  Uiso   1.00
C790   C     0.48959   0.05632   0.75911   0.00000  Uiso   1.00
C791   C     0.50995   0.27766   0.74111   0.00000  Uiso   1.00
C792   C     0.52136   0.14554   0.64381   0.00000  Uiso   1.00
C793   C     0.47844   0.18737   0.85659   0.00000  Uiso   1.00
C794   C     0.46336   0.18924   0.90071   0.00000  Uiso   1.00
C795   C     0.53195   0.13476   0.60063   0.00000  Uiso   1.00
C796   C     0.40407   0.18663   0.96098   0.00000  Uiso   1.00
C797   C     0.42063   0.19641   0.92185   0.00000  Uiso   1.00
C798   C     0.49000   0.17705   0.92118   0.00000  Uiso   1.00
C799   C     0.47164   0.16217   0.95935   0.00000  Uiso   1.00
C800   C     0.42880   0.16943   0.98003   0.00000  Uiso   1.00
C801   C     0.49450   0.14069   0.97778   0.00000  Uiso   1.00
C802   C     0.48103   0.14087   0.51955   0.00000  Uiso   1.00
C803   C     0.43705   0.14530   0.53959   0.00000  Uiso   1.00
C804   C     0.41060   0.15827   0.51903   0.00000  Uiso   1.00
C805   C     0.52907   0.11755   0.95622   0.00000  Uiso   1.00
C806   C     0.55553   0.10415   0.97607   0.00000  Uiso   1.00
C807   C     0.54635   0.11127   0.51819   0.00000  Uiso   1.00
C808   C     0.51125   0.13383   0.53938   0.00000  Uiso   1.00
C809   C     0.57035   0.09590   0.54005   0.00000  Uiso   1.00
C810   C     0.56263   0.10701   0.58122   0.00000  Uiso   1.00
C811   C     0.50844   0.15011   0.57939   0.00000  Uiso   1.00
H812   H     0.37121   0.19232   0.97627   0.00000  Uiso   1.00
C813   C     0.66024   0.17832   0.73938   0.00000  Uiso   1.00
C814   C     0.34089   0.15601   0.76188   0.00000  Uiso   1.00
C815   C     0.51151   0.32178   0.73610   0.00000  Uiso   1.00
C816   C     0.48615   0.01305   0.76429   0.00000  Uiso   1.00
O817   O     0.36705   0.16047   0.53612   0.00000  Uiso   1.00
H818   H     0.35601   0.14053   0.55644   0.00000  Uiso   1.00
N819   N     0.59924   0.06520   0.52202   0.00000  Uiso   1.00
O820   O     0.63836   0.07085   0.52535   0.00000  Uiso   1.00
O821   O     0.58437   0.02889   0.50824   0.00000  Uiso   1.00
N822   N     0.35607   0.20694   0.71339   0.00000  Uiso   1.00
O823   O     0.34410   0.24214   0.70979   0.00000  Uiso   1.00
O824   O     0.39289   0.19654   0.69064   0.00000  Uiso   1.00
O825   O     0.64654   0.12755   0.78575   0.00000  Uiso   1.00
H826   H     0.66318   0.11446   0.79941   0.00000  Uiso   1.00
O827   O     0.53765   0.00518   0.70200   0.00000  Uiso   1.00
H828   H     0.55277   0.31635   0.68364   0.00000  Uiso   1.00
N829   N     0.46340   0.00098   0.80329   0.00000  Uiso   1.00
O830   O     0.42490   0.01156   0.81999   0.00000  Uiso   1.00
O831   O     0.48452   0.32268   0.82539   0.00000  Uiso   1.00
O832   O     0.48512   0.18281   0.59794   0.00000  Uiso   1.00
H833   H     0.48281   0.19944   0.57731   0.00000  Uiso   1.00
O834   O     0.58540   0.08939   0.60120   0.00000  Uiso   1.00
H835   H     0.57844   0.10033   0.62959   0.00000  Uiso   1.00
N836   N     0.59387   0.08688   0.95238   0.00000  Uiso   1.00
O837   O     0.63133   0.10720   0.95193   0.00000  Uiso   1.00
O838   O     0.59142   0.05458   0.92681   0.00000  Uiso   1.00
O839   O     0.39365   0.21198   0.90516   0.00000  Uiso   1.00
H840   H     0.41004   0.23648   0.89185   0.00000  Uiso   1.00
O841   O     0.53390   0.18228   0.90385   0.00000  Uiso   1.00
H842   H     0.54853   0.18789   0.92534   0.00000  Uiso   1.00
N843   N     0.41823   0.13265   0.57902   0.00000  Uiso   1.00
O844   O     0.42398   0.09664   0.58722   0.00000  Uiso   1.00
O845   O     0.39491   0.15681   0.60671   0.00000  Uiso   1.00
O846   O     0.53631   0.10492   0.91607   0.00000  Uiso   1.00
H847   H     0.50838   0.10121   0.90953   0.00000  Uiso   1.00
Zn848  Zn    0.85910   0.14090   0.78277   0.00000  Uiso   1.00
Zn849  Zn    0.80125   0.12378   0.72257   0.00000  Uiso   1.00
Zn850  Zn    0.87833   0.19664   0.71188   0.00000  Uiso   1.00
Zn851  Zn    0.79465   0.20535   0.78277   0.00000  Uiso   1.00
O852   O     0.83333   0.16667   0.75000   0.00000  Uiso   1.00
O853   O     0.73656   0.18960   0.77820   0.00000  Uiso   1.00
O854   O     0.92106   0.15277   0.76767   0.00000  Uiso   1.00
O855   O     0.80467   0.06903   0.73607   0.00000  Uiso   1.00
O856   O     0.87104   0.25527   0.71805   0.00000  Uiso   1.00
O857   O     0.82360   0.12393   0.66625   0.00000  Uiso   1.00
O858   O     0.79354   0.20646   0.83749   0.00000  Uiso   1.00
O859   O     0.87755   0.17493   0.65877   0.00000  Uiso   1.00
O860   O     0.83865   0.16135   0.83749   0.00000  Uiso   1.00
O861   O     0.84515   0.08101   0.77820   0.00000  Uiso   1.00
O862   O     0.81247   0.26136   0.76767   0.00000  Uiso   1.00
O863   O     0.74119   0.13251   0.73607   0.00000  Uiso   1.00
O864   O     0.93452   0.19179   0.71805   0.00000  Uiso   1.00
C865   C     0.71941   0.15956   0.75895   0.00000  Uiso   1.00
C866   C     0.94772   0.17408   0.74171   0.00000  Uiso   1.00
C867   C     0.82292   0.05632   0.75911   0.00000  Uiso   1.00
C868   C     0.84328   0.27766   0.74111   0.00000  Uiso   1.00
C869   C     0.85470   0.14554   0.64381   0.00000  Uiso   1.00
C870   C     0.81178   0.18737   0.85659   0.00000  Uiso   1.00
C871   C     0.79670   0.18924   0.90071   0.00000  Uiso   1.00
C872   C     0.86528   0.13476   0.60063   0.00000  Uiso   1.00
C873   C     0.73740   0.18663   0.96098   0.00000  Uiso   1.00
C874   C     0.75396   0.19641   0.92185   0.00000  Uiso   1.00
C875   C     0.82334   0.17705   0.92118   0.00000  Uiso   1.00
C876   C     0.80497   0.16217   0.95935   0.00000  Uiso   1.00
C877   C     0.76214   0.16943   0.98003   0.00000  Uiso   1.00
C878   C     0.82783   0.14069   0.97778   0.00000  Uiso   1.00
C879   C     0.81436   0.14087   0.51955   0.00000  Uiso   1.00
C880   C     0.77039   0.14530   0.53959   0.00000  Uiso   1.00
C881   C     0.74393   0.15827   0.51903   0.00000  Uiso   1.00
C882   C     0.86240   0.11755   0.95622   0.00000  Uiso   1.00
C883   C     0.88886   0.10415   0.97607   0.00000  Uiso   1.00
C884   C     0.87968   0.11127   0.51819   0.00000  Uiso   1.00
C885   C     0.84458   0.13383   0.53938   0.00000  Uiso   1.00
C886   C     0.90368   0.09590   0.54005   0.00000  Uiso   1.00
C887   C     0.89596   0.10701   0.58122   0.00000  Uiso   1.00
C888   C     0.84178   0.15011   0.57939   0.00000  Uiso   1.00
H889   H     0.70454   0.19232   0.97627   0.00000  Uiso   1.00
C890   C     0.99357   0.17832   0.73938   0.00000  Uiso   1.00
C891   C     0.67422   0.15601   0.76188   0.00000  Uiso   1.00
C892   C     0.84484   0.32178   0.73610   0.00000  Uiso   1.00
C893   C     0.81949   0.01305   0.76429   0.00000  Uiso   1.00
O894   O     0.70039   0.16047   0.53612   0.00000  Uiso   1.00
H895   H     0.68935   0.14053   0.55644   0.00000  Uiso   1.00
N896   N     0.93257   0.06520   0.52202   0.00000  Uiso   1.00
O897   O     0.97170   0.07085   0.52535   0.00000  Uiso   1.00
O898   O     0.91770   0.02889   0.50824   0.00000  Uiso   1.00
N899   N     0.68940   0.20694   0.71339   0.00000  Uiso   1.00
O900   O     0.67743   0.24214   0.70979   0.00000  Uiso   1.00
O901   O     0.72622   0.19654   0.69064   0.00000  Uiso   1.00
O902   O     0.97987   0.12755   0.78575   0.00000  Uiso   1.00
H903   H     0.99651   0.11446   0.79941   0.00000  Uiso   1.00
O904   O     0.87098   0.00518   0.70200   0.00000  Uiso   1.00
H905   H     0.88611   0.31635   0.68364   0.00000  Uiso   1.00
N906   N     0.79673   0.00098   0.80329   0.00000  Uiso   1.00
O907   O     0.75823   0.01156   0.81999   0.00000  Uiso   1.00
O908   O     0.81785   0.32268   0.82539   0.00000  Uiso   1.00
O909   O     0.81845   0.18281   0.59794   0.00000  Uiso   1.00
H910   H     0.81615   0.19944   0.57731   0.00000  Uiso   1.00
O911   O     0.91873   0.08939   0.60120   0.00000  Uiso   1.00
H912   H     0.91177   0.10033   0.62959   0.00000  Uiso   1.00
N913   N     0.92720   0.08688   0.95238   0.00000  Uiso   1.00
O914   O     0.96466   0.10720   0.95193   0.00000  Uiso   1.00
O915   O     0.92475   0.05458   0.92681   0.00000  Uiso   1.00
O916   O     0.72698   0.21198   0.90516   0.00000  Uiso   1.00
H917   H     0.74338   0.23648   0.89185   0.00000  Uiso   1.00
O918   O     0.86723   0.18228   0.90385   0.00000  Uiso   1.00
H919   H     0.88186   0.18789   0.92534   0.00000  Uiso   1.00
N920   N     0.75156   0.13265   0.57902   0.00000  Uiso   1.00
O921   O     0.75732   0.09664   0.58722   0.00000  Uiso   1.00
O922   O     0.72824   0.15681   0.60671   0.00000  Uiso   1.00
O923   O     0.86965   0.10492   0.91607   0.00000  Uiso   1.00
H924   H     0.84171   0.10121   0.90953   0.00000  Uiso   1.00
Zn925  Zn    0.19244   0.47423   0.78277   0.00000  Uiso   1.00
Zn926  Zn    0.13459   0.45711   0.72257   0.00000  Uiso   1.00
Zn927  Zn    0.21166   0.52997   0.71188   0.00000  Uiso   1.00
Zn928  Zn    0.12798   0.53868   0.78277   0.00000  Uiso   1.00
O929   O     0.16667   0.50000   0.75000   0.00000  Uiso   1.00
O930   O     0.06990   0.52293   0.77820   0.00000  Uiso   1.00
O931   O     0.25440   0.48610   0.76767   0.00000  Uiso   1.00
O932   O     0.13800   0.40236   0.73607   0.00000  Uiso   1.00
O933   O     0.20437   0.58860   0.71805   0.00000  Uiso   1.00
O934   O     0.15693   0.45726   0.66625   0.00000  Uiso   1.00
O935   O     0.12687   0.53979   0.83749   0.00000  Uiso   1.00
O936   O     0.21088   0.50826   0.65877   0.00000  Uiso   1.00
O937   O     0.17198   0.49468   0.83749   0.00000  Uiso   1.00
O938   O     0.17849   0.41434   0.77820   0.00000  Uiso   1.00
O939   O     0.14581   0.59469   0.76767   0.00000  Uiso   1.00
O940   O     0.07452   0.46584   0.73607   0.00000  Uiso   1.00
O941   O     0.26785   0.52512   0.71805   0.00000  Uiso   1.00
C942   C     0.05274   0.49289   0.75895   0.00000  Uiso   1.00
C943   C     0.28105   0.50741   0.74171   0.00000  Uiso   1.00
C944   C     0.15625   0.38966   0.75911   0.00000  Uiso   1.00
C945   C     0.17661   0.61099   0.74111   0.00000  Uiso   1.00
C946   C     0.18803   0.47888   0.64381   0.00000  Uiso   1.00
C947   C     0.14511   0.52070   0.85659   0.00000  Uiso   1.00
C948   C     0.13003   0.52257   0.90071   0.00000  Uiso   1.00
C949   C     0.19862   0.46809   0.60063   0.00000  Uiso   1.00
C950   C     0.07074   0.51997   0.96098   0.00000  Uiso   1.00
C951   C     0.08729   0.52974   0.92185   0.00000  Uiso   1.00
C952   C     0.15667   0.51039   0.92118   0.00000  Uiso   1.00
C953   C     0.13830   0.49550   0.95935   0.00000  Uiso   1.00
C954   C     0.09547   0.50276   0.98003   0.00000  Uiso   1.00
C955   C     0.16116   0.47402   0.97778   0.00000  Uiso   1.00
C956   C     0.14770   0.47421   0.51955   0.00000  Uiso   1.00
C957   C     0.10372   0.47863   0.53959   0.00000  Uiso   1.00
C958   C     0.07726   0.49161   0.51903   0.00000  Uiso   1.00
C959   C     0.19574   0.45088   0.95622   0.00000  Uiso   1.00
C960   C     0.22220   0.43749   0.97607   0.00000  Uiso   1.00
C961   C     0.21302   0.44460   0.51819   0.00000  Uiso   1.00
C962   C     0.17792   0.46716   0.53938   0.00000  Uiso   1.00
C963   C     0.23701   0.42923   0.54005   0.00000  Uiso   1.00
C964   C     0.22930   0.44035   0.58122   0.00000  Uiso   1.00
C965   C     0.17511   0.48344   0.57939   0.00000  Uiso   1.00
H966   H     0.03788   0.52565   0.97627   0.00000  Uiso   1.00
C967   C     0.32691   0.51165   0.73938   0.00000  Uiso   1.00
C968   C     0.00755   0.48934   0.76188   0.00000  Uiso   1.00
C969   C     0.17817   0.65512   0.73610   0.00000  Uiso   1.00
C970   C     0.15282   0.34639   0.76429   0.00000  Uiso   1.00
O971   O     0.03372   0.49381   0.53612   0.00000  Uiso   1.00
H972   H     0.02268   0.47386   0.55644   0.00000  Uiso   1.00
N973   N     0.26591   0.39854   0.52202   0.00000  Uiso   1.00
O974   O     0.30503   0.40418   0.52535   0.00000  Uiso   1.00
O975   O     0.25103   0.36222   0.50824   0.00000  Uiso   1.00
N976   N     0.02274   0.54027   0.71339   0.00000  Uiso   1.00
O977   O     0.01077   0.57548   0.70979   0.00000  Uiso   1.00
O978   O     0.05956   0.52987   0.69064   0.00000  Uiso   1.00
O979   O     0.31321   0.46088   0.78575   0.00000  Uiso   1.00
H980   H     0.32984   0.44779   0.79941   0.00000  Uiso   1.00
O981   O     0.20432   0.33851   0.70200   0.00000  Uiso   1.00
H982   H     0.21944   0.64969   0.68364   0.00000  Uiso   1.00
N983   N     0.13007   0.33431   0.80329   0.00000  Uiso   1.00
O984   O     0.09156   0.34489   0.81999   0.00000  Uiso   1.00
O985   O     0.15118   0.65601   0.82539   0.00000  Uiso   1.00
O986   O     0.15179   0.51615   0.59794   0.00000  Uiso   1.00
H987   H     0.14948   0.53278   0.57731   0.00000  Uiso   1.00
O988   O     0.25207   0.42272   0.60120   0.00000  Uiso   1.00
H989   H     0.24510   0.43366   0.62959   0.00000  Uiso   1.00
N990   N     0.26053   0.42021   0.95238   0.00000  Uiso   1.00
O991   O     0.29799   0.44054   0.95193   0.00000  Uiso   1.00
O992   O     0.25808   0.38791   0.92681   0.00000  Uiso   1.00
O993   O     0.06032   0.54531   0.90516   0.00000  Uiso   1.00
H994   H     0.07671   0.56982   0.89185   0.00000  Uiso   1.00
O995   O     0.20056   0.51562   0.90385   0.00000  Uiso   1.00
H996   H     0.21520   0.52123   0.92534   0.00000  Uiso   1.00
N997   N     0.08490   0.46598   0.57902   0.00000  Uiso   1.00
O998   O     0.09065   0.42997   0.58722   0.00000  Uiso   1.00
O999   O     0.06157   0.49014   0.60671   0.00000  Uiso   1.00
O1000  O     0.20298   0.43825   0.91607   0.00000  Uiso   1.00
H1001  H     0.17505   0.43454   0.90953   0.00000  Uiso   1.00
Zn1002 Zn    0.52577   0.47423   0.78277   0.00000  Uiso   1.00
Zn1003 Zn    0.46792   0.45711   0.72257   0.00000  Uiso   1.00
Zn1004 Zn    0.54500   0.52997   0.71188   0.00000  Uiso   1.00
Zn1005 Zn    0.46131   0.53868   0.78277   0.00000  Uiso   1.00
O1006  O     0.50000   0.50000   0.75000   0.00000  Uiso   1.00
O1007  O     0.40323   0.52293   0.77820   0.00000  Uiso   1.00
O1008  O     0.58773   0.48610   0.76767   0.00000  Uiso   1.00
O1009  O     0.47133   0.40236   0.73607   0.00000  Uiso   1.00
O1010  O     0.53771   0.58860   0.71805   0.00000  Uiso   1.00
O1011  O     0.49027   0.45726   0.66625   0.00000  Uiso   1.00
O1012  O     0.46020   0.53979   0.83749   0.00000  Uiso   1.00
O1013  O     0.54421   0.50826   0.65877   0.00000  Uiso   1.00
O1014  O     0.50532   0.49468   0.83749   0.00000  Uiso   1.00
O1015  O     0.51182   0.41434   0.77820   0.00000  Uiso   1.00
O1016  O     0.47914   0.59469   0.76767   0.00000  Uiso   1.00
O1017  O     0.40785   0.46584   0.73607   0.00000  Uiso   1.00
O1018  O     0.60119   0.52512   0.71805   0.00000  Uiso   1.00
C1019  C     0.38608   0.49289   0.75895   0.00000  Uiso   1.00
C1020  C     0.61439   0.50741   0.74171   0.00000  Uiso   1.00
C1021  C     0.48959   0.38966   0.75911   0.00000  Uiso   1.00
C1022  C     0.50995   0.61099   0.74111   0.00000  Uiso   1.00
C1023  C     0.52136   0.47888   0.64381   0.00000  Uiso   1.00
C1024  C     0.47844   0.52070   0.85659   0.00000  Uiso   1.00
C1025  C     0.46336   0.52257   0.90071   0.00000  Uiso   1.00
C1026  C     0.53195   0.46809   0.60063   0.00000  Uiso   1.00
C1027  C     0.40407   0.51997   0.96098   0.00000  Uiso   1.00
C1028  C     0.42063   0.52974   0.92185   0.00000  Uiso   1.00
C1029  C     0.49000   0.51039   0.92118   0.00000  Uiso   1.00
C1030  C     0.47164   0.49550   0.95935   0.00000  Uiso   1.00
C1031  C     0.42880   0.50276   0.98003   0.00000  Uiso   1.00
C1032  C     0.49450   0.47402   0.97778   0.00000  Uiso   1.00
C1033  C     0.48103   0.47421   0.51955   0.00000  Uiso   1.00
C1034  C     0.43705   0.47863   0.53959   0.00000  Uiso   1.00
C1035  C     0.41060   0.49161   0.51903   0.00000  Uiso   1.00
C1036  C     0.52907   0.45088   0.95622   0.00000  Uiso   1.00
C1037  C     0.55553   0.43749   0.97607   0.00000  Uiso   1.00
C1038  C     0.54635   0.44460   0.51819   0.00000  Uiso   1.00
C1039  C     0.51125   0.46716   0.53938   0.00000  Uiso   1.00
C1040  C     0.57035   0.42923   0.54005   0.00000  Uiso   1.00
C1041  C     0.56263   0.44035   0.58122   0.00000  Uiso   1.00
C1042  C     0.50844   0.48344   0.57939   0.00000  Uiso   1.00
H1043  H     0.37121   0.52565   0.97627   0.00000  Uiso   1.00
C1044  C     0.66024   0.51165   0.73938   0.00000  Uiso   1.00
C1045  C     0.34089   0.48934   0.76188   0.00000  Uiso   1.00
C1046  C     0.51151   0.65512   0.73610   0.00000  Uiso   1.00
C1047  C     0.48615   0.34639   0.76429   0.00000  Uiso   1.00
O1048  O     0.36705   0.49381   0.53612   0.00000  Uiso   1.00
H1049  H     0.35601   0.47386   0.55644   0.00000  Uiso   1.00
N1050  N     0.59924   0.39854   0.52202   0.00000  Uiso   1.00
O1051  O     0.63836   0.40418   0.52535   0.00000  Uiso   1.00
O1052  O     0.58437   0.36222   0.50824   0.00000  Uiso   1.00
N1053  N     0.35607   0.54027   0.71339   0.00000  Uiso   1.00
O1054  O     0.34410   0.57548   0.70979   0.00000  Uiso   1.00
O1055  O     0.39289   0.52987   0.69064   0.00000  Uiso   1.00
O1056  O     0.64654   0.46088   0.78575   0.00000  Uiso   1.00
H1057  H     0.66318   0.44779   0.79941   0.00000  Uiso   1.00
O1058  O     0.53765   0.33851   0.70200   0.00000  Uiso   1.00
H1059  H     0.55277   0.64969   0.68364   0.00000  Uiso   1.00
N1060  N     0.46340   0.33431   0.80329   0.00000  Uiso   1.00
O1061  O     0.42490   0.34489   0.81999   0.00000  Uiso   1.00
O1062  O     0.48452   0.65601   0.82539   0.00000  Uiso   1.00
O1063  O     0.48512   0.51615   0.59794   0.00000  Uiso   1.00
H1064  H     0.48281   0.53278   0.57731   0.00000  Uiso   1.00
O1065  O     0.58540   0.42272   0.60120   0.00000  Uiso   1.00
H1066  H     0.57844   0.43366   0.62959   0.00000  Uiso   1.00
N1067  N     0.59387   0.42021   0.95238   0.00000  Uiso   1.00
O1068  O     0.63133   0.44054   0.95193   0.00000  Uiso   1.00
O1069  O     0.59142   0.38791   0.92681   0.00000  Uiso   1.00
O1070  O     0.39365   0.54531   0.90516   0.00000  Uiso   1.00
H1071  H     0.41004   0.56982   0.89185   0.00000  Uiso   1.00
O1072  O     0.53390   0.51562   0.90385   0.00000  Uiso   1.00
H1073  H     0.54853   0.52123   0.92534   0.00000  Uiso   1.00
N1074  N     0.41823   0.46598   0.57902   0.00000  Uiso   1.00
O1075  O     0.42398   0.42997   0.58722   0.00000  Uiso   1.00
O1076  O     0.39491   0.49014   0.60671   0.00000  Uiso   1.00
O1077  O     0.53631   0.43825   0.91607   0.00000  Uiso   1.00
H1078  H     0.50838   0.43454   0.90953   0.00000  Uiso   1.00
Zn1079 Zn    0.85910   0.47423   0.78277   0.00000  Uiso   1.00
Zn1080 Zn    0.80125   0.45711   0.72257   0.00000  Uiso   1.00
Zn1081 Zn    0.87833   0.52997   0.71188   0.00000  Uiso   1.00
Zn1082 Zn    0.79465   0.53868   0.78277   0.00000  Uiso   1.00
O1083  O     0.83333   0.50000   0.75000   0.00000  Uiso   1.00
O1084  O     0.73656   0.52293   0.77820   0.00000  Uiso   1.00
O1085  O     0.92106   0.48610   0.76767   0.00000  Uiso   1.00
O1086  O     0.80467   0.40236   0.73607   0.00000  Uiso   1.00
O1087  O     0.87104   0.58860   0.71805   0.00000  Uiso   1.00
O1088  O     0.82360   0.45726   0.66625   0.00000  Uiso   1.00
O1089  O     0.79354   0.53979   0.83749   0.00000  Uiso   1.00
O1090  O     0.87755   0.50826   0.65877   0.00000  Uiso   1.00
O1091  O     0.83865   0.49468   0.83749   0.00000  Uiso   1.00
O1092  O     0.84515   0.41434   0.77820   0.00000  Uiso   1.00
O1093  O     0.81247   0.59469   0.76767   0.00000  Uiso   1.00
O1094  O     0.74119   0.46584   0.73607   0.00000  Uiso   1.00
O1095  O     0.93452   0.52512   0.71805   0.00000  Uiso   1.00
C1096  C     0.71941   0.49289   0.75895   0.00000  Uiso   1.00
C1097  C     0.94772   0.50741   0.74171   0.00000  Uiso   1.00
C1098  C     0.82292   0.38966   0.75911   0.00000  Uiso   1.00
C1099  C     0.84328   0.61099   0.74111   0.00000  Uiso   1.00
C1100  C     0.85470   0.47888   0.64381   0.00000  Uiso   1.00
C1101  C     0.81178   0.52070   0.85659   0.00000  Uiso   1.00
C1102  C     0.79670   0.52257   0.90071   0.00000  Uiso   1.00
C1103  C     0.86528   0.46809   0.60063   0.00000  Uiso   1.00
C1104  C     0.73740   0.51997   0.96098   0.00000  Uiso   1.00
C1105  C     0.75396   0.52974   0.92185   0.00000  Uiso   1.00
C1106  C     0.82334   0.51039   0.92118   0.00000  Uiso   1.00
C1107  C     0.80497   0.49550   0.95935   0.00000  Uiso   1.00
C1108  C     0.76214   0.50276   0.98003   0.00000  Uiso   1.00
C1109  C     0.82783   0.47402   0.97778   0.00000  Uiso   1.00
C1110  C     0.81436   0.47421   0.51955   0.00000  Uiso   1.00
C1111  C     0.77039   0.47863   0.53959   0.00000  Uiso   1.00
C1112  C     0.74393   0.49161   0.51903   0.00000  Uiso   1.00
C1113  C     0.86240   0.45088   0.95622   0.00000  Uiso   1.00
C1114  C     0.88886   0.43749   0.97607   0.00000  Uiso   1.00
C1115  C     0.87968   0.44460   0.51819   0.00000  Uiso   1.00
C1116  C     0.84458   0.46716   0.53938   0.00000  Uiso   1.00
C1117  C     0.90368   0.42923   0.54005   0.00000  Uiso   1.00
C1118  C     0.89596   0.44035   0.58122   0.00000  Uiso   1.00
C1119  C     0.84178   0.48344   0.57939   0.00000  Uiso   1.00
H1120  H     0.70454   0.52565   0.97627   0.00000  Uiso   1.00
C1121  C     0.99357   0.51165   0.73938   0.00000  Uiso   1.00
C1122  C     0.67422   0.48934   0.76188   0.00000  Uiso   1.00
C1123  C     0.84484   0.65512   0.73610   0.00000  Uiso   1.00
C1124  C     0.81949   0.34639   0.76429   0.00000  Uiso   1.00
O1125  O     0.70039   0.49381   0.53612   0.00000  Uiso   1.00
H1126  H     0.68935   0.47386   0.55644   0.00000  Uiso   1.00
N1127  N     0.93257   0.39854   0.52202   0.00000  Uiso   1.00
O1128  O     0.97170   0.40418   0.52535   0.00000  Uiso   1.00
O1129  O     0.91770   0.36222   0.50824   0.00000  Uiso   1.00
N1130  N     0.68940   0.54027   0.71339   0.00000  Uiso   1.00
O1131  O     0.67743   0.57548   0.70979   0.00000  Uiso   1.00
O1132  O     0.72622   0.52987   0.69064   0.00000  Uiso   1.00
O1133  O     0.97987   0.46088   0.78575   0.00000  Uiso   1.00
H1134  H     0.99651   0.44779   0.79941   0.00000  Uiso   1.00
O1135  O     0.87098   0.33851   0.70200   0.00000  Uiso   1.00
H1136  H     0.88611   0.64969   0.68364   0.00000  Uiso   1.00
N1137  N     0.79673   0.33431   0.80329   0.00000  Uiso   1.00
O1138  O     0.75823   0.34489   0.81999   0.00000  Uiso   1.00
O1139  O     0.81785   0.65601   0.82539   0.00000  Uiso   1.00
O1140  O     0.81845   0.51615   0.59794   0.00000  Uiso   1.00
H1141  H     0.81615   0.53278   0.57731   0.00000  Uiso   1.00
O1142  O     0.91873   0.42272   0.60120   0.00000  Uiso   1.00
H1143  H     0.91177   0.43366   0.62959   0.00000  Uiso   1.00
N1144  N     0.92720   0.42021   0.95238   0.00000  Uiso   1.00
O1145  O     0.96466   0.44054   0.95193   0.00000  Uiso   1.00
O1146  O     0.92475   0.38791   0.92681   0.00000  Uiso   1.00
O1147  O     0.72698   0.54531   0.90516   0.00000  Uiso   1.00
H1148  H     0.74338   0.56982   0.89185   0.00000  Uiso   1.00
O1149  O     0.86723   0.51562   0.90385   0.00000  Uiso   1.00
H1150  H     0.88186   0.52123   0.92534   0.00000  Uiso   1.00
N1151  N     0.75156   0.46598   0.57902   0.00000  Uiso   1.00
O1152  O     0.75732   0.42997   0.58722   0.00000  Uiso   1.00
O1153  O     0.72824   0.49014   0.60671   0.00000  Uiso   1.00
O1154  O     0.86965   0.43825   0.91607   0.00000  Uiso   1.00
H1155  H     0.84171   0.43454   0.90953   0.00000  Uiso   1.00
Zn1156 Zn    0.19244   0.80756   0.78277   0.00000  Uiso   1.00
Zn1157 Zn    0.13459   0.79044   0.72257   0.00000  Uiso   1.00
Zn1158 Zn    0.21166   0.86331   0.71188   0.00000  Uiso   1.00
Zn1159 Zn    0.12798   0.87202   0.78277   0.00000  Uiso   1.00
O1160  O     0.16667   0.83333   0.75000   0.00000  Uiso   1.00
O1161  O     0.06990   0.85627   0.77820   0.00000  Uiso   1.00
O1162  O     0.25440   0.81944   0.76767   0.00000  Uiso   1.00
O1163  O     0.13800   0.73570   0.73607   0.00000  Uiso   1.00
O1164  O     0.20437   0.92193   0.71805   0.00000  Uiso   1.00
O1165  O     0.15693   0.79060   0.66625   0.00000  Uiso   1.00
O1166  O     0.12687   0.87313   0.83749   0.00000  Uiso   1.00
O1167  O     0.21088   0.84159   0.65877   0.00000  Uiso   1.00
O1168  O     0.17198   0.82802   0.83749   0.00000  Uiso   1.00
O1169  O     0.17849   0.74768   0.77820   0.00000  Uiso   1.00
O1170  O     0.14581   0.92803   0.76767   0.00000  Uiso   1.00
O1171  O     0.07452   0.79917   0.73607   0.00000  Uiso   1.00
O1172  O     0.26785   0.85845   0.71805   0.00000  Uiso   1.00
C1173  C     0.05274   0.82623   0.75895   0.00000  Uiso   1.00
C1174  C     0.28105   0.84074   0.74171   0.00000  Uiso   1.00
C1175  C     0.15625   0.72299   0.75911   0.00000  Uiso   1.00
C1176  C     0.17661   0.94432   0.74111   0.00000  Uiso   1.00
C1177  C     0.18803   0.81221   0.64381   0.00000  Uiso   1.00
C1178  C     0.14511   0.85404   0.85659   0.00000  Uiso   1.00
C1179  C     0.13003   0.85590   0.90071   0.00000  Uiso   1.00
C1180  C     0.19862   0.80142   0.60063   0.00000  Uiso   1.00
C1181  C     0.07074   0.85330   0.96098   0.00000  Uiso   1.00
C1182  C     0.08729   0.86307   0.92185   0.00000  Uiso   1.00
C1183  C     0.15667   0.84372   0.92118   0.00000  Uiso   1.00
C1184  C     0.13830   0.82884   0.95935   0.00000  Uiso   1.00
C1185  C     0.09547   0.83609   0.98003   0.00000  Uiso   1.00
C1186  C     0.16116   0.80735   0.97778   0.00000  Uiso   1.00
C1187  C     0.14770   0.80754   0.51955   0.00000  Uiso   1.00
C1188  C     0.10372   0.81196   0.53959   0.00000  Uiso   1.00
C1189  C     0.07726   0.82494   0.51903   0.00000  Uiso   1.00
C1190  C     0.19574   0.78421   0.95622   0.00000  Uiso   1.00
C1191  C     0.22220   0.77082   0.97607   0.00000  Uiso   1.00
C1192  C     0.21302   0.77794   0.51819   0.00000  Uiso   1.00
C1193  C     0.17792   0.80050   0.53938   0.00000  Uiso   1.00
C1194  C     0.23701   0.76257   0.54005   0.00000  Uiso   1.00
C1195  C     0.22930   0.77368   0.58122   0.00000  Uiso   1.00
C1196  C     0.17511   0.81677   0.57939   0.00000  Uiso   1.00
H1197  H     0.03788   0.85898   0.97627   0.00000  Uiso   1.00
C1198  C     0.32691   0.84499   0.73938   0.00000  Uiso   1.00
C1199  C     0.00755   0.82267   0.76188   0.00000  Uiso   1.00
C1200  C     0.17817   0.98845   0.73610   0.00000  Uiso   1.00
C1201  C     0.15282   0.67972   0.76429   0.00000  Uiso   1.00
O1202  O     0.03372   0.82714   0.53612   0.00000  Uiso   1.00
H1203  H     0.02268   0.80720   0.55644   0.00000  Uiso   1.00
N1204  N     0.26591   0.73187   0.52202   0.00000  Uiso   1.00
O1205  O     0.30503   0.73751   0.52535   0.00000  Uiso   1.00
O1206  O     0.25103   0.69555   0.50824   0.00000  Uiso   1.00
N1207  N     0.02274   0.87361   0.71339   0.00000  Uiso   1.00
O1208  O     0.01077   0.90881   0.70979   0.00000  Uiso   1.00
O1209  O     0.05956   0.86320   0.69064   0.00000  Uiso   1.00
O1210  O     0.31321   0.79421   0.78575   0.00000  Uiso   1.00
H1211  H     0.32984   0.78113   0.79941   0.00000  Uiso   1.00
O1212  O     0.20432   0.67185   0.70200   0.00000  Uiso   1.00
H1213  H     0.21944   0.98302   0.68364   0.00000  Uiso   1.00
N1214  N     0.13007   0.66765   0.80329   0.00000  Uiso   1.00
O1215  O     0.09156   0.67822   0.81999   0.00000  Uiso   1.00
O1216  O     0.15118   0.98935   0.82539   0.00000  Uiso   1.00
O1217  O     0.15179   0.84948   0.59794   0.00000  Uiso   1.00
H1218  H     0.14948   0.86611   0.57731   0.00000  Uiso   1.00
O1219  O     0.25207   0.75606   0.60120   0.00000  Uiso   1.00
H1220  H     0.24510   0.76699   0.62959   0.00000  Uiso   1.00
N1221  N     0.26053   0.75354   0.95238   0.00000  Uiso   1.00
O1222  O     0.29799   0.77387   0.95193   0.00000  Uiso   1.00
O1223  O     0.25808   0.72124   0.92681   0.00000  Uiso   1.00
O1224  O     0.06032   0.87864   0.90516   0.00000  Uiso   1.00
H1225  H     0.07671   0.90315   0.89185   0.00000  Uiso   1.00
O1226  O     0.20056   0.84895   0.90385   0.00000  Uiso   1.00
H1227  H     0.21520   0.85456   0.92534   0.00000  Uiso   1.00
N1228  N     0.08490   0.79932   0.57902   0.00000  Uiso   1.00
O1229  O     0.09065   0.76330   0.58722   0.00000  Uiso   1.00
O1230  O     0.06157   0.82348   0.60671   0.00000  Uiso   1.00
O1231  O     0.20298   0.77158   0.91607   0.00000  Uiso   1.00
H1232  H     0.17505   0.76788   0.90953   0.00000  Uiso   1.00
Zn1233 Zn    0.52577   0.80756   0.78277   0.00000  Uiso   1.00
Zn1234 Zn    0.46792   0.79044   0.72257   0.00000  Uiso   1.00
Zn1235 Zn    0.54500   0.86331   0.71188   0.00000  Uiso   1.00
Zn1236 Zn    0.46131   0.87202   0.78277   0.00000  Uiso   1.00
O1237  O     0.50000   0.83333   0.75000   0.00000  Uiso   1.00
O1238  O     0.40323   0.85627   0.77820   0.00000  Uiso   1.00
O1239  O     0.58773   0.81944   0.76767   0.00000  Uiso   1.00
O1240  O     0.47133   0.73570   0.73607   0.00000  Uiso   1.00
O1241  O     0.53771   0.92193   0.71805   0.00000  Uiso   1.00
O1242  O     0.49027   0.79060   0.66625   0.00000  Uiso   1.00
O1243  O     0.46020   0.87313   0.83749   0.00000  Uiso   1.00
O1244  O     0.54421   0.84159   0.65877   0.00000  Uiso   1.00
O1245  O     0.50532   0.82802   0.83749   0.00000  Uiso   1.00
O1246  O     0.51182   0.74768   0.77820   0.00000  Uiso   1.00
O1247  O     0.47914   0.92803   0.76767   0.00000  Uiso   1.00
O1248  O     0.40785   0.79917   0.73607   0.00000  Uiso   1.00
O1249  O     0.60119   0.85845   0.71805   0.00000  Uiso   1.00
C1250  C     0.38608   0.82623   0.75895   0.00000  Uiso   1.00
C1251  C     0.61439   0.84074   0.74171   0.00000  Uiso   1.00
C1252  C     0.48959   0.72299   0.75911   0.00000  Uiso   1.00
C1253  C     0.50995   0.94432   0.74111   0.00000  Uiso   1.00
C1254  C     0.52136   0.81221   0.64381   0.00000  Uiso   1.00
C1255  C     0.47844   0.85404   0.85659   0.00000  Uiso   1.00
C1256  C     0.46336   0.85590   0.90071   0.00000  Uiso   1.00
C1257  C     0.53195   0.80142   0.60063   0.00000  Uiso   1.00
C1258  C     0.40407   0.85330   0.96098   0.00000  Uiso   1.00
C1259  C     0.42063   0.86307   0.92185   0.00000  Uiso   1.00
C1260  C     0.49000   0.84372   0.92118   0.00000  Uiso   1.00
C1261  C     0.47164   0.82884   0.95935   0.00000  Uiso   1.00
C1262  C     0.42880   0.83609   0.98003   0.00000  Uiso   1.00
C1263  C     0.49450   0.80735   0.97778   0.00000  Uiso   1.00
C1264  C     0.48103   0.80754   0.51955   0.00000  Uiso   1.00
C1265  C     0.43705   0.81196   0.53959   0.00000  Uiso   1.00
C1266  C     0.41060   0.82494   0.51903   0.00000  Uiso   1.00
C1267  C     0.52907   0.78421   0.95622   0.00000  Uiso   1.00
C1268  C     0.55553   0.77082   0.97607   0.00000  Uiso   1.00
C1269  C     0.54635   0.77794   0.51819   0.00000  Uiso   1.00
C1270  C     0.51125   0.80050   0.53938   0.00000  Uiso   1.00
C1271  C     0.57035   0.76257   0.54005   0.00000  Uiso   1.00
C1272  C     0.56263   0.77368   0.58122   0.00000  Uiso   1.00
C1273  C     0.50844   0.81677   0.57939   0.00000  Uiso   1.00
H1274  H     0.37121   0.85898   0.97627   0.00000  Uiso   1.00
C1275  C     0.66024   0.84499   0.73938   0.00000  Uiso   1.00
C1276  C     0.34089   0.82267   0.76188   0.00000  Uiso   1.00
C1277  C     0.51151   0.98845   0.73610   0.00000  Uiso   1.00
C1278  C     0.48615   0.67972   0.76429   0.00000  Uiso   1.00
O1279  O     0.36705   0.82714   0.53612   0.00000  Uiso   1.00
H1280  H     0.35601   0.80720   0.55644   0.00000  Uiso   1.00
N1281  N     0.59924   0.73187   0.52202   0.00000  Uiso   1.00
O1282  O     0.63836   0.73751   0.52535   0.00000  Uiso   1.00
O1283  O     0.58437   0.69555   0.50824   0.00000  Uiso   1.00
N1284  N     0.35607   0.87361   0.71339   0.00000  Uiso   1.00
O1285  O     0.34410   0.90881   0.70979   0.00000  Uiso   1.00
O1286  O     0.39289   0.86320   0.69064   0.00000  Uiso   1.00
O1287  O     0.64654   0.79421   0.78575   0.00000  Uiso   1.00
H1288  H     0.66318   0.78113   0.79941   0.00000  Uiso   1.00
O1289  O     0.53765   0.67185   0.70200   0.00000  Uiso   1.00
H1290  H     0.55277   0.98302   0.68364   0.00000  Uiso   1.00
N1291  N     0.46340   0.66765   0.80329   0.00000  Uiso   1.00
O1292  O     0.42490   0.67822   0.81999   0.00000  Uiso   1.00
O1293  O     0.48452   0.98935   0.82539   0.00000  Uiso   1.00
O1294  O     0.48512   0.84948   0.59794   0.00000  Uiso   1.00
H1295  H     0.48281   0.86611   0.57731   0.00000  Uiso   1.00
O1296  O     0.58540   0.75606   0.60120   0.00000  Uiso   1.00
H1297  H     0.57844   0.76699   0.62959   0.00000  Uiso   1.00
N1298  N     0.59387   0.75354   0.95238   0.00000  Uiso   1.00
O1299  O     0.63133   0.77387   0.95193   0.00000  Uiso   1.00
O1300  O     0.59142   0.72124   0.92681   0.00000  Uiso   1.00
O1301  O     0.39365   0.87864   0.90516   0.00000  Uiso   1.00
H1302  H     0.41004   0.90315   0.89185   0.00000  Uiso   1.00
O1303  O     0.53390   0.84895   0.90385   0.00000  Uiso   1.00
H1304  H     0.54853   0.85456   0.92534   0.00000  Uiso   1.00
N1305  N     0.41823   0.79932   0.57902   0.00000  Uiso   1.00
O1306  O     0.42398   0.76330   0.58722   0.00000  Uiso   1.00
O1307  O     0.39491   0.82348   0.60671   0.00000  Uiso   1.00
O1308  O     0.53631   0.77158   0.91607   0.00000  Uiso   1.00
H1309  H     0.50838   0.76788   0.90953   0.00000  Uiso   1.00
Zn1310 Zn    0.85910   0.80756   0.78277   0.00000  Uiso   1.00
Zn1311 Zn    0.80125   0.79044   0.72257   0.00000  Uiso   1.00
Zn1312 Zn    0.87833   0.86331   0.71188   0.00000  Uiso   1.00
Zn1313 Zn    0.79465   0.87202   0.78277   0.00000  Uiso   1.00
O1314  O     0.83333   0.83333   0.75000   0.00000  Uiso   1.00
O1315  O     0.73656   0.85627   0.77820   0.00000  Uiso   1.00
O1316  O     0.92106   0.81944   0.76767   0.00000  Uiso   1.00
O1317  O     0.80467   0.73570   0.73607   0.00000  Uiso   1.00
O1318  O     0.87104   0.92193   0.71805   0.00000  Uiso   1.00
O1319  O     0.82360   0.79060   0.66625   0.00000  Uiso   1.00
O1320  O     0.79354   0.87313   0.83749   0.00000  Uiso   1.00
O1321  O     0.87755   0.84159   0.65877   0.00000  Uiso   1.00
O1322  O     0.83865   0.82802   0.83749   0.00000  Uiso   1.00
O1323  O     0.84515   0.74768   0.77820   0.00000  Uiso   1.00
O1324  O     0.81247   0.92803   0.76767   0.00000  Uiso   1.00
O1325  O     0.74119   0.79917   0.73607   0.00000  Uiso   1.00
O1326  O     0.93452   0.85845   0.71805   0.00000  Uiso   1.00
C1327  C     0.71941   0.82623   0.75895   0.00000  Uiso   1.00
C1328  C     0.94772   0.84074   0.74171   0.00000  Uiso   1.00
C1329  C     0.82292   0.72299   0.75911   0.00000  Uiso   1.00
C1330  C     0.84328   0.94432   0.74111   0.00000  Uiso   1.00
C1331  C     0.85470   0.81221   0.64381   0.00000  Uiso   1.00
C1332  C     0.81178   0.85404   0.85659   0.00000  Uiso   1.00
C1333  C     0.79670   0.85590   0.90071   0.00000  Uiso   1.00
C1334  C     0.86528   0.80142   0.60063   0.00000  Uiso   1.00
C1335  C     0.73740   0.85330   0.96098   0.00000  Uiso   1.00
C1336  C     0.75396   0.86307   0.92185   0.00000  Uiso   1.00
C1337  C     0.82334   0.84372   0.92118   0.00000  Uiso   1.00
C1338  C     0.80497   0.82884   0.95935   0.00000  Uiso   1.00
C1339  C     0.76214   0.83609   0.98003   0.00000  Uiso   1.00
C1340  C     0.82783   0.80735   0.97778   0.00000  Uiso   1.00
C1341  C     0.81436   0.80754   0.51955   0.00000  Uiso   1.00
C1342  C     0.77039   0.81196   0.53959   0.00000  Uiso   1.00
C1343  C     0.74393   0.82494   0.51903   0.00000  Uiso   1.00
C1344  C     0.86240   0.78421   0.95622   0.00000  Uiso   1.00
C1345  C     0.88886   0.77082   0.97607   0.00000  Uiso   1.00
C1346  C     0.87968   0.77794   0.51819   0.00000  Uiso   1.00
C1347  C     0.84458   0.80050   0.53938   0.00000  Uiso   1.00
C1348  C     0.90368   0.76257   0.54005   0.00000  Uiso   1.00
C1349  C     0.89596   0.77368   0.58122   0.00000  Uiso   1.00
C1350  C     0.84178   0.81677   0.57939   0.00000  Uiso   1.00
H1351  H     0.70454   0.85898   0.97627   0.00000  Uiso   1.00
C1352  C     0.99357   0.84499   0.73938   0.00000  Uiso   1.00
C1353  C     0.67422   0.82267   0.76188   0.00000  Uiso   1.00
C1354  C     0.84484   0.98845   0.73610   0.00000  Uiso   1.00
C1355  C     0.81949   0.67972   0.76429   0.00000  Uiso   1.00
O1356  O     0.70039   0.82714   0.53612   0.00000  Uiso   1.00
H1357  H     0.68935   0.80720   0.55644   0.00000  Uiso   1.00
N1358  N     0.93257   0.73187   0.52202   0.00000  Uiso   1.00
O1359  O     0.97170   0.73751   0.52535   0.00000  Uiso   1.00
O1360  O     0.91770   0.69555   0.50824   0.00000  Uiso   1.00
N1361  N     0.68940   0.87361   0.71339   0.00000  Uiso   1.00
O1362  O     0.67743   0.90881   0.70979   0.00000  Uiso   1.00
O1363  O     0.72622   0.86320   0.69064   0.00000  Uiso   1.00
O1364  O     0.97987   0.79421   0.78575   0.00000  Uiso   1.00
H1365  H     0.99651   0.78113   0.79941   0.00000  Uiso   1.00
O1366  O     0.87098   0.67185   0.70200   0.00000  Uiso   1.00
H1367  H     0.88611   0.98302   0.68364   0.00000  Uiso   1.00
N1368  N     0.79673   0.66765   0.80329   0.00000  Uiso   1.00
O1369  O     0.75823   0.67822   0.81999   0.00000  Uiso   1.00
O1370  O     0.81785   0.98935   0.82539   0.00000  Uiso   1.00
O1371  O     0.81845   0.84948   0.59794   0.00000  Uiso   1.00
H1372  H     0.81615   0.86611   0.57731   0.00000  Uiso   1.00
O1373  O     0.91873   0.75606   0.60120   0.00000  Uiso   1.00
H1374  H     0.91177   0.76699   0.62959   0.00000  Uiso   1.00
N1375  N     0.92720   0.75354   0.95238   0.00000  Uiso   1.00
O1376  O     0.96466   0.77387   0.95193   0.00000  Uiso   1.00
O1377  O     0.92475   0.72124   0.92681   0.00000  Uiso   1.00
O1378  O     0.72698   0.87864   0.90516   0.00000  Uiso   1.00
H1379  H     0.74338   0.90315   0.89185   0.00000  Uiso   1.00
O1380  O     0.86723   0.84895   0.90385   0.00000  Uiso   1.00
H1381  H     0.88186   0.85456   0.92534   0.00000  Uiso   1.00
N1382  N     0.75156   0.79932   0.57902   0.00000  Uiso   1.00
O1383  O     0.75732   0.76330   0.58722   0.00000  Uiso   1.00
O1384  O     0.72824   0.82348   0.60671   0.00000  Uiso   1.00
O1385  O     0.86965   0.77158   0.91607   0.00000  Uiso   1.00
H1386  H     0.84171   0.76788   0.90953   0.00000  Uiso   1.00
loop_
_geom_bond_atom_site_label_1
_geom_bond_atom_site_label_2
_geom_bond_distance
_geom_bond_site_symmetry_2
_ccdc_geom_bond_type
Zn1    O5      1.946   .     S
Zn1    O13     1.911   .     S
Zn1    O7      1.933   .     S
Zn1    O14     1.940   .     S
Zn2    O16     1.935   .     S
Zn2    O10     1.909   .     S
Zn2    O8      1.940   .     S
Zn2    O5      1.946   .     S
Zn3    O12     1.917   .     S
Zn3    O9      1.941   .     S
Zn3    O5      1.930   .     S
Zn3    O17     1.941   .     S
Zn4    O6      1.939   .     S
Zn4    O11     1.915   .     S
Zn4    O5      1.939   .     S
Zn4    O15     1.937   .     S
O6     C18     1.272   .     A
O7     C19     1.272   .     A
O8     C20     1.277   .     A
O9     C21     1.275   .     A
O10    C22     1.279   .     A
O11    C23     1.286   .     A
O12    C22     1.280   .     A
O13    C23     1.292   .     A
O14    C20     1.263   .     A
O15    C21     1.268   .     A
O16    C18     1.264   .     A
O17    C19     1.276   .     A
C18    C44     1.438   .     S
C19    C43     1.463   .     S
C20    C46     1.435   .     S
C21    C45     1.469   .     S
C22    C25     1.466   .     S
C23    C24     1.486   .     S
C24    C27     1.417   .     A
C24    C28     1.407   .     A
C25    C40     1.413   .     A
C25    C41     1.396   .     A
C26    C27     1.392   .     A
C26    C30     1.403   .     A
C26    H42     1.084   .     S
C27    O69     1.376   .     S
C28    O71     1.382   .     S
C28    C29     1.427   .     A
C29    C30     1.417   .     A
C29    C31     1.425   .     A
C30    C727    1.407   .     S
C31    C35     1.423   .     A
C31    C725    1.410   .     S
C32    C38     1.423   .     A
C32    C33     1.425   .     A
C32    C724    1.410   1_554 S
C33    C34     1.416   .     A
C33    N73     1.439   .     S
C34    O47     1.384   .     S
C34    C723    1.407   1_554 S
C35    C36     1.404   .     A
C35    O76     1.381   .     S
C36    N66     1.435   .     S
C36    C730    1.421   .     S
C37    C38     1.421   .     A
C37    C39     1.425   .     A
C37    C729    1.421   1_554 S
C38    C41     1.421   .     A
C39    C40     1.406   .     A
C39    N49     1.435   .     S
C40    O64     1.385   .     S
C41    O62     1.383   .     S
C43    C121    1.354   .     S
C43    N129    1.446   .     S
C44    C197    1.354   1_455 S
C44    O209    1.386   1_455 S
C45    C277    1.350   .     S
C45    O288    1.387   .     S
C46    N59     1.439   .     S
C46    C507    1.350   1_545 S
O47    H48     0.989   .     S
N49    O51     1.301   .     A
N49    O50     1.301   .     A
N52    O54     1.302   .     A
N52    O53     1.301   .     A
N52    C197    1.446   1_455 S
O55    H56     0.993   .     S
O55    C121    1.386   .     S
O57    C507    1.387   1_545 S
O57    H520    0.990   1_545 S
H58    O288    0.990   .     S
N59    O60     1.301   .     A
N59    O523    1.302   1_545 S
O61    N290    1.302   .     S
O62    H63     0.991   .     S
O64    H65     0.989   .     S
N66    O68     1.301   .     A
N66    O67     1.301   .     A
O69    H70     0.990   .     S
O71    H72     0.991   .     S
N73    O74     1.301   .     A
N73    O75     1.302   .     A
O76    H77     0.991   .     S
Zn78   O82     1.946   .     S
Zn78   O90     1.911   .     S
Zn78   O84     1.933   .     S
Zn78   O91     1.940   .     S
Zn79   O93     1.935   .     S
Zn79   O87     1.909   .     S
Zn79   O85     1.940   .     S
Zn79   O82     1.946   .     S
Zn80   O89     1.917   .     S
Zn80   O86     1.941   .     S
Zn80   O82     1.930   .     S
Zn80   O94     1.941   .     S
Zn81   O83     1.939   .     S
Zn81   O88     1.915   .     S
Zn81   O82     1.939   .     S
Zn81   O92     1.937   .     S
O83    C95     1.272   .     A
O84    C96     1.272   .     A
O85    C97     1.277   .     A
O86    C98     1.275   .     A
O87    C99     1.279   .     A
O88    C100    1.286   .     A
O89    C99     1.280   .     A
O90    C100    1.292   .     A
O91    C97     1.263   .     A
O92    C98     1.268   .     A
O93    C95     1.264   .     A
O94    C96     1.276   .     A
C95    C121    1.438   .     S
C96    C120    1.463   .     S
C97    C123    1.435   .     S
C98    C122    1.469   .     S
C99    C102    1.466   .     S
C100   C101    1.486   .     S
C101   C104    1.417   .     A
C101   C105    1.407   .     A
C102   C117    1.413   .     A
C102   C118    1.396   .     A
C103   C104    1.392   .     A
C103   C107    1.403   .     A
C103   H119    1.084   .     S
C104   O146    1.376   .     S
C105   O148    1.382   .     S
C105   C106    1.427   .     A
C106   C107    1.417   .     A
C106   C108    1.425   .     A
C107   C804    1.407   .     S
C108   C112    1.423   .     A
C108   C802    1.410   .     S
C109   C115    1.423   .     A
C109   C110    1.425   .     A
C109   C801    1.410   1_554 S
C110   C111    1.416   .     A
C110   N150    1.439   .     S
C111   O124    1.384   .     S
C111   C800    1.407   1_554 S
C112   C113    1.404   .     A
C112   O153    1.381   .     S
C113   N143    1.435   .     S
C113   C807    1.421   .     S
C114   C115    1.421   .     A
C114   C116    1.425   .     A
C114   C806    1.421   1_554 S
C115   C118    1.421   .     A
C116   C117    1.406   .     A
C116   N126    1.435   .     S
C117   O141    1.385   .     S
C118   O139    1.383   .     S
C120   C198    1.354   .     S
C120   N206    1.446   .     S
C122   C354    1.350   .     S
C122   O365    1.387   .     S
C123   N136    1.439   .     S
C123   C584    1.350   1_545 S
O124   H125    0.989   .     S
N126   O128    1.301   .     A
N126   O127    1.301   .     A
N129   O131    1.302   .     A
N129   O130    1.301   .     A
O132   H133    0.993   .     S
O132   C198    1.386   .     S
O134   C584    1.387   1_545 S
O134   H597    0.990   1_545 S
H135   O365    0.990   .     S
N136   O137    1.301   .     A
N136   O600    1.302   1_545 S
O138   N367    1.302   .     S
O139   H140    0.991   .     S
O141   H142    0.989   .     S
N143   O145    1.301   .     A
N143   O144    1.301   .     A
O146   H147    0.990   .     S
O148   H149    0.991   .     S
N150   O151    1.301   .     A
N150   O152    1.302   .     A
O153   H154    0.991   .     S
Zn155  O159    1.946   .     S
Zn155  O167    1.911   .     S
Zn155  O161    1.933   .     S
Zn155  O168    1.940   .     S
Zn156  O170    1.935   .     S
Zn156  O164    1.909   .     S
Zn156  O162    1.940   .     S
Zn156  O159    1.946   .     S
Zn157  O166    1.917   .     S
Zn157  O163    1.941   .     S
Zn157  O159    1.930   .     S
Zn157  O171    1.941   .     S
Zn158  O160    1.939   .     S
Zn158  O165    1.915   .     S
Zn158  O159    1.939   .     S
Zn158  O169    1.937   .     S
O160   C172    1.272   .     A
O161   C173    1.272   .     A
O162   C174    1.277   .     A
O163   C175    1.275   .     A
O164   C176    1.279   .     A
O165   C177    1.286   .     A
O166   C176    1.280   .     A
O167   C177    1.292   .     A
O168   C174    1.263   .     A
O169   C175    1.268   .     A
O170   C172    1.264   .     A
O171   C173    1.276   .     A
C172   C198    1.438   .     S
C173   C197    1.463   .     S
C174   C200    1.435   .     S
C175   C199    1.469   .     S
C176   C179    1.466   .     S
C177   C178    1.486   .     S
C178   C181    1.417   .     A
C178   C182    1.407   .     A
C179   C194    1.413   .     A
C179   C195    1.396   .     A
C180   C181    1.392   .     A
C180   C184    1.403   .     A
C180   H196    1.084   .     S
C181   O223    1.376   .     S
C182   O225    1.382   .     S
C182   C183    1.427   .     A
C183   C184    1.417   .     A
C183   C185    1.425   .     A
C184   C881    1.407   .     S
C185   C189    1.423   .     A
C185   C879    1.410   .     S
C186   C192    1.423   .     A
C186   C187    1.425   .     A
C186   C878    1.410   1_554 S
C187   C188    1.416   .     A
C187   N227    1.439   .     S
C188   O201    1.384   .     S
C188   C877    1.407   1_554 S
C189   C190    1.404   .     A
C189   O230    1.381   .     S
C190   N220    1.435   .     S
C190   C884    1.421   .     S
C191   C192    1.421   .     A
C191   C193    1.425   .     A
C191   C883    1.421   1_554 S
C192   C195    1.421   .     A
C193   C194    1.406   .     A
C193   N203    1.435   .     S
C194   O218    1.385   .     S
C195   O216    1.383   .     S
C197   C44     1.354   1_655 S
C197   N52     1.446   1_655 S
C199   C431    1.350   .     S
C199   O442    1.387   .     S
C200   N213    1.439   .     S
C200   C661    1.350   1_545 S
O201   H202    0.989   .     S
N203   O205    1.301   .     A
N203   O204    1.301   .     A
N206   O208    1.302   .     A
N206   O207    1.301   .     A
O209   H210    0.993   .     S
O209   C44     1.386   1_655 S
O211   C661    1.387   1_545 S
O211   H674    0.990   1_545 S
H212   O442    0.990   .     S
N213   O214    1.301   .     A
N213   O677    1.302   1_545 S
O215   N444    1.302   .     S
O216   H217    0.991   .     S
O218   H219    0.989   .     S
N220   O222    1.301   .     A
N220   O221    1.301   .     A
O223   H224    0.990   .     S
O225   H226    0.991   .     S
N227   O228    1.301   .     A
N227   O229    1.302   .     A
O230   H231    0.991   .     S
Zn232  O236    1.946   .     S
Zn232  O244    1.911   .     S
Zn232  O238    1.933   .     S
Zn232  O245    1.940   .     S
Zn233  O247    1.935   .     S
Zn233  O241    1.909   .     S
Zn233  O239    1.940   .     S
Zn233  O236    1.946   .     S
Zn234  O243    1.917   .     S
Zn234  O240    1.941   .     S
Zn234  O236    1.930   .     S
Zn234  O248    1.941   .     S
Zn235  O237    1.939   .     S
Zn235  O242    1.915   .     S
Zn235  O236    1.939   .     S
Zn235  O246    1.937   .     S
O237   C249    1.272   .     A
O238   C250    1.272   .     A
O239   C251    1.277   .     A
O240   C252    1.275   .     A
O241   C253    1.279   .     A
O242   C254    1.286   .     A
O243   C253    1.280   .     A
O244   C254    1.292   .     A
O245   C251    1.263   .     A
O246   C252    1.268   .     A
O247   C249    1.264   .     A
O248   C250    1.276   .     A
C249   C275    1.438   .     S
C250   C274    1.463   .     S
C251   C277    1.435   .     S
C252   C276    1.469   .     S
C253   C256    1.466   .     S
C254   C255    1.486   .     S
C255   C258    1.417   .     A
C255   C259    1.407   .     A
C256   C271    1.413   .     A
C256   C272    1.396   .     A
C257   C258    1.392   .     A
C257   C261    1.403   .     A
C257   H273    1.084   .     S
C258   O300    1.376   .     S
C259   O302    1.382   .     S
C259   C260    1.427   .     A
C260   C261    1.417   .     A
C260   C262    1.425   .     A
C261   C958    1.407   .     S
C262   C266    1.423   .     A
C262   C956    1.410   .     S
C263   C269    1.423   .     A
C263   C264    1.425   .     A
C263   C955    1.410   1_554 S
C264   C265    1.416   .     A
C264   N304    1.439   .     S
C265   O278    1.384   .     S
C265   C954    1.407   1_554 S
C266   C267    1.404   .     A
C266   O307    1.381   .     S
C267   N297    1.435   .     S
C267   C961    1.421   .     S
C268   C269    1.421   .     A
C268   C270    1.425   .     A
C268   C960    1.421   1_554 S
C269   C272    1.421   .     A
C270   C271    1.406   .     A
C270   N280    1.435   .     S
C271   O295    1.385   .     S
C272   O293    1.383   .     S
C274   C352    1.354   .     S
C274   N360    1.446   .     S
C275   C428    1.354   1_455 S
C275   O440    1.386   1_455 S
C276   C508    1.350   .     S
C276   O519    1.387   .     S
C277   N290    1.439   .     S
O278   H279    0.989   .     S
N280   O282    1.301   .     A
N280   O281    1.301   .     A
N283   O285    1.302   .     A
N283   O284    1.301   .     A
N283   C428    1.446   1_455 S
O286   H287    0.993   .     S
O286   C352    1.386   .     S
H289   O519    0.990   .     S
N290   O291    1.301   .     A
O292   N521    1.302   .     S
O293   H294    0.991   .     S
O295   H296    0.989   .     S
N297   O299    1.301   .     A
N297   O298    1.301   .     A
O300   H301    0.990   .     S
O302   H303    0.991   .     S
N304   O305    1.301   .     A
N304   O306    1.302   .     A
O307   H308    0.991   .     S
Zn309  O313    1.946   .     S
Zn309  O321    1.911   .     S
Zn309  O315    1.933   .     S
Zn309  O322    1.940   .     S
Zn310  O324    1.935   .     S
Zn310  O318    1.909   .     S
Zn310  O316    1.940   .     S
Zn310  O313    1.946   .     S
Zn311  O320    1.917   .     S
Zn311  O317    1.941   .     S
Zn311  O313    1.930   .     S
Zn311  O325    1.941   .     S
Zn312  O314    1.939   .     S
Zn312  O319    1.915   .     S
Zn312  O313    1.939   .     S
Zn312  O323    1.937   .     S
O314   C326    1.272   .     A
O315   C327    1.272   .     A
O316   C328    1.277   .     A
O317   C329    1.275   .     A
O318   C330    1.279   .     A
O319   C331    1.286   .     A
O320   C330    1.280   .     A
O321   C331    1.292   .     A
O322   C328    1.263   .     A
O323   C329    1.268   .     A
O324   C326    1.264   .     A
O325   C327    1.276   .     A
C326   C352    1.438   .     S
C327   C351    1.463   .     S
C328   C354    1.435   .     S
C329   C353    1.469   .     S
C330   C333    1.466   .     S
C331   C332    1.486   .     S
C332   C335    1.417   .     A
C332   C336    1.407   .     A
C333   C348    1.413   .     A
C333   C349    1.396   .     A
C334   C335    1.392   .     A
C334   C338    1.403   .     A
C334   H350    1.084   .     S
C335   O377    1.376   .     S
C336   O379    1.382   .     S
C336   C337    1.427   .     A
C337   C338    1.417   .     A
C337   C339    1.425   .     A
C338   C1035   1.407   .     S
C339   C343    1.423   .     A
C339   C1033   1.410   .     S
C340   C346    1.423   .     A
C340   C341    1.425   .     A
C340   C1032   1.410   1_554 S
C341   C342    1.416   .     A
C341   N381    1.439   .     S
C342   O355    1.384   .     S
C342   C1031   1.407   1_554 S
C343   C344    1.404   .     A
C343   O384    1.381   .     S
C344   N374    1.435   .     S
C344   C1038   1.421   .     S
C345   C346    1.421   .     A
C345   C347    1.425   .     A
C345   C1037   1.421   1_554 S
C346   C349    1.421   .     A
C347   C348    1.406   .     A
C347   N357    1.435   .     S
C348   O372    1.385   .     S
C349   O370    1.383   .     S
C351   C429    1.354   .     S
C351   N437    1.446   .     S
C353   C585    1.350   .     S
C353   O596    1.387   .     S
C354   N367    1.439   .     S
O355   H356    0.989   .     S
N357   O359    1.301   .     A
N357   O358    1.301   .     A
N360   O362    1.302   .     A
N360   O361    1.301   .     A
O363   H364    0.993   .     S
O363   C429    1.386   .     S
H366   O596    0.990   .     S
N367   O368    1.301   .     A
O369   N598    1.302   .     S
O370   H371    0.991   .     S
O372   H373    0.989   .     S
N374   O376    1.301   .     A
N374   O375    1.301   .     A
O377   H378    0.990   .     S
O379   H380    0.991   .     S
N381   O382    1.301   .     A
N381   O383    1.302   .     A
O384   H385    0.991   .     S
Zn386  O390    1.946   .     S
Zn386  O398    1.911   .     S
Zn386  O392    1.933   .     S
Zn386  O399    1.940   .     S
Zn387  O401    1.935   .     S
Zn387  O395    1.909   .     S
Zn387  O393    1.940   .     S
Zn387  O390    1.946   .     S
Zn388  O397    1.917   .     S
Zn388  O394    1.941   .     S
Zn388  O390    1.930   .     S
Zn388  O402    1.941   .     S
Zn389  O391    1.939   .     S
Zn389  O396    1.915   .     S
Zn389  O390    1.939   .     S
Zn389  O400    1.937   .     S
O391   C403    1.272   .     A
O392   C404    1.272   .     A
O393   C405    1.277   .     A
O394   C406    1.275   .     A
O395   C407    1.279   .     A
O396   C408    1.286   .     A
O397   C407    1.280   .     A
O398   C408    1.292   .     A
O399   C405    1.263   .     A
O400   C406    1.268   .     A
O401   C403    1.264   .     A
O402   C404    1.276   .     A
C403   C429    1.438   .     S
C404   C428    1.463   .     S
C405   C431    1.435   .     S
C406   C430    1.469   .     S
C407   C410    1.466   .     S
C408   C409    1.486   .     S
C409   C412    1.417   .     A
C409   C413    1.407   .     A
C410   C425    1.413   .     A
C410   C426    1.396   .     A
C411   C412    1.392   .     A
C411   C415    1.403   .     A
C411   H427    1.084   .     S
C412   O454    1.376   .     S
C413   O456    1.382   .     S
C413   C414    1.427   .     A
C414   C415    1.417   .     A
C414   C416    1.425   .     A
C415   C1112   1.407   .     S
C416   C420    1.423   .     A
C416   C1110   1.410   .     S
C417   C423    1.423   .     A
C417   C418    1.425   .     A
C417   C1109   1.410   1_554 S
C418   C419    1.416   .     A
C418   N458    1.439   .     S
C419   O432    1.384   .     S
C419   C1108   1.407   1_554 S
C420   C421    1.404   .     A
C420   O461    1.381   .     S
C421   N451    1.435   .     S
C421   C1115   1.421   .     S
C422   C423    1.421   .     A
C422   C424    1.425   .     A
C422   C1114   1.421   1_554 S
C423   C426    1.421   .     A
C424   C425    1.406   .     A
C424   N434    1.435   .     S
C425   O449    1.385   .     S
C426   O447    1.383   .     S
C428   C275    1.354   1_655 S
C428   N283    1.446   1_655 S
C430   C662    1.350   .     S
C430   O673    1.387   .     S
C431   N444    1.439   .     S
O432   H433    0.989   .     S
N434   O436    1.301   .     A
N434   O435    1.301   .     A
N437   O439    1.302   .     A
N437   O438    1.301   .     A
O440   H441    0.993   .     S
O440   C275    1.386   1_655 S
H443   O673    0.990   .     S
N444   O445    1.301   .     A
O446   N675    1.302   .     S
O447   H448    0.991   .     S
O449   H450    0.989   .     S
N451   O453    1.301   .     A
N451   O452    1.301   .     A
O454   H455    0.990   .     S
O456   H457    0.991   .     S
N458   O459    1.301   .     A
N458   O460    1.302   .     A
O461   H462    0.991   .     S
Zn463  O467    1.946   .     S
Zn463  O475    1.911   .     S
Zn463  O469    1.933   .     S
Zn463  O476    1.940   .     S
Zn464  O478    1.935   .     S
Zn464  O472    1.909   .     S
Zn464  O470    1.940   .     S
Zn464  O467    1.946   .     S
Zn465  O474    1.917   .     S
Zn465  O471    1.941   .     S
Zn465  O467    1.930   .     S
Zn465  O479    1.941   .     S
Zn466  O468    1.939   .     S
Zn466  O473    1.915   .     S
Zn466  O467    1.939   .     S
Zn466  O477    1.937   .     S
O468   C480    1.272   .     A
O469   C481    1.272   .     A
O470   C482    1.277   .     A
O471   C483    1.275   .     A
O472   C484    1.279   .     A
O473   C485    1.286   .     A
O474   C484    1.280   .     A
O475   C485    1.292   .     A
O476   C482    1.263   .     A
O477   C483    1.268   .     A
O478   C480    1.264   .     A
O479   C481    1.276   .     A
C480   C506    1.438   .     S
C481   C505    1.463   .     S
C482   C508    1.435   .     S
C483   C507    1.469   .     S
C484   C487    1.466   .     S
C485   C486    1.486   .     S
C486   C489    1.417   .     A
C486   C490    1.407   .     A
C487   C502    1.413   .     A
C487   C503    1.396   .     A
C488   C489    1.392   .     A
C488   C492    1.403   .     A
C488   H504    1.084   .     S
C489   O531    1.376   .     S
C490   O533    1.382   .     S
C490   C491    1.427   .     A
C491   C492    1.417   .     A
C491   C493    1.425   .     A
C492   C1189   1.407   .     S
C493   C497    1.423   .     A
C493   C1187   1.410   .     S
C494   C500    1.423   .     A
C494   C495    1.425   .     A
C494   C1186   1.410   1_554 S
C495   C496    1.416   .     A
C495   N535    1.439   .     S
C496   O509    1.384   .     S
C496   C1185   1.407   1_554 S
C497   C498    1.404   .     A
C497   O538    1.381   .     S
C498   N528    1.435   .     S
C498   C1192   1.421   .     S
C499   C500    1.421   .     A
C499   C501    1.425   .     A
C499   C1191   1.421   1_554 S
C500   C503    1.421   .     A
C501   C502    1.406   .     A
C501   N511    1.435   .     S
C502   O526    1.385   .     S
C503   O524    1.383   .     S
C505   C583    1.354   .     S
C505   N591    1.446   .     S
C506   C659    1.354   1_455 S
C506   O671    1.386   1_455 S
C507   C46     1.350   1_565 S
C507   O57     1.387   1_565 S
C508   N521    1.439   .     S
O509   H510    0.989   .     S
N511   O513    1.301   .     A
N511   O512    1.301   .     A
N514   O516    1.302   .     A
N514   O515    1.301   .     A
N514   C659    1.446   1_455 S
O517   H518    0.993   .     S
O517   C583    1.386   .     S
H520   O57     0.990   1_565 S
N521   O522    1.301   .     A
O523   N59     1.302   1_565 S
O524   H525    0.991   .     S
O526   H527    0.989   .     S
N528   O530    1.301   .     A
N528   O529    1.301   .     A
O531   H532    0.990   .     S
O533   H534    0.991   .     S
N535   O536    1.301   .     A
N535   O537    1.302   .     A
O538   H539    0.991   .     S
Zn540  O544    1.946   .     S
Zn540  O552    1.911   .     S
Zn540  O546    1.933   .     S
Zn540  O553    1.940   .     S
Zn541  O555    1.935   .     S
Zn541  O549    1.909   .     S
Zn541  O547    1.940   .     S
Zn541  O544    1.946   .     S
Zn542  O551    1.917   .     S
Zn542  O548    1.941   .     S
Zn542  O544    1.930   .     S
Zn542  O556    1.941   .     S
Zn543  O545    1.939   .     S
Zn543  O550    1.915   .     S
Zn543  O544    1.939   .     S
Zn543  O554    1.937   .     S
O545   C557    1.272   .     A
O546   C558    1.272   .     A
O547   C559    1.277   .     A
O548   C560    1.275   .     A
O549   C561    1.279   .     A
O550   C562    1.286   .     A
O551   C561    1.280   .     A
O552   C562    1.292   .     A
O553   C559    1.263   .     A
O554   C560    1.268   .     A
O555   C557    1.264   .     A
O556   C558    1.276   .     A
C557   C583    1.438   .     S
C558   C582    1.463   .     S
C559   C585    1.435   .     S
C560   C584    1.469   .     S
C561   C564    1.466   .     S
C562   C563    1.486   .     S
C563   C566    1.417   .     A
C563   C567    1.407   .     A
C564   C579    1.413   .     A
C564   C580    1.396   .     A
C565   C566    1.392   .     A
C565   C569    1.403   .     A
C565   H581    1.084   .     S
C566   O608    1.376   .     S
C567   O610    1.382   .     S
C567   C568    1.427   .     A
C568   C569    1.417   .     A
C568   C570    1.425   .     A
C569   C1266   1.407   .     S
C570   C574    1.423   .     A
C570   C1264   1.410   .     S
C571   C577    1.423   .     A
C571   C572    1.425   .     A
C571   C1263   1.410   1_554 S
C572   C573    1.416   .     A
C572   N612    1.439   .     S
C573   O586    1.384   .     S
C573   C1262   1.407   1_554 S
C574   C575    1.404   .     A
C574   O615    1.381   .     S
C575   N605    1.435   .     S
C575   C1269   1.421   .     S
C576   C577    1.421   .     A
C576   C578    1.425   .     A
C576   C1268   1.421   1_554 S
C577   C580    1.421   .     A
C578   C579    1.406   .     A
C578   N588    1.435   .     S
C579   O603    1.385   .     S
C580   O601    1.383   .     S
C582   C660    1.354   .     S
C582   N668    1.446   .     S
C584   C123    1.350   1_565 S
C584   O134    1.387   1_565 S
C585   N598    1.439   .     S
O586   H587    0.989   .     S
N588   O590    1.301   .     A
N588   O589    1.301   .     A
N591   O593    1.302   .     A
N591   O592    1.301   .     A
O594   H595    0.993   .     S
O594   C660    1.386   .     S
H597   O134    0.990   1_565 S
N598   O599    1.301   .     A
O600   N136    1.302   1_565 S
O601   H602    0.991   .     S
O603   H604    0.989   .     S
N605   O607    1.301   .     A
N605   O606    1.301   .     A
O608   H609    0.990   .     S
O610   H611    0.991   .     S
N612   O613    1.301   .     A
N612   O614    1.302   .     A
O615   H616    0.991   .     S
Zn617  O621    1.946   .     S
Zn617  O629    1.911   .     S
Zn617  O623    1.933   .     S
Zn617  O630    1.940   .     S
Zn618  O632    1.935   .     S
Zn618  O626    1.909   .     S
Zn618  O624    1.940   .     S
Zn618  O621    1.946   .     S
Zn619  O628    1.917   .     S
Zn619  O625    1.941   .     S
Zn619  O621    1.930   .     S
Zn619  O633    1.941   .     S
Zn620  O622    1.939   .     S
Zn620  O627    1.915   .     S
Zn620  O621    1.939   .     S
Zn620  O631    1.937   .     S
O622   C634    1.272   .     A
O623   C635    1.272   .     A
O624   C636    1.277   .     A
O625   C637    1.275   .     A
O626   C638    1.279   .     A
O627   C639    1.286   .     A
O628   C638    1.280   .     A
O629   C639    1.292   .     A
O630   C636    1.263   .     A
O631   C637    1.268   .     A
O632   C634    1.264   .     A
O633   C635    1.276   .     A
C634   C660    1.438   .     S
C635   C659    1.463   .     S
C636   C662    1.435   .     S
C637   C661    1.469   .     S
C638   C641    1.466   .     S
C639   C640    1.486   .     S
C640   C643    1.417   .     A
C640   C644    1.407   .     A
C641   C656    1.413   .     A
C641   C657    1.396   .     A
C642   C643    1.392   .     A
C642   C646    1.403   .     A
C642   H658    1.084   .     S
C643   O685    1.376   .     S
C644   O687    1.382   .     S
C644   C645    1.427   .     A
C645   C646    1.417   .     A
C645   C647    1.425   .     A
C646   C1343   1.407   .     S
C647   C651    1.423   .     A
C647   C1341   1.410   .     S
C648   C654    1.423   .     A
C648   C649    1.425   .     A
C648   C1340   1.410   1_554 S
C649   C650    1.416   .     A
C649   N689    1.439   .     S
C650   O663    1.384   .     S
C650   C1339   1.407   1_554 S
C651   C652    1.404   .     A
C651   O692    1.381   .     S
C652   N682    1.435   .     S
C652   C1346   1.421   .     S
C653   C654    1.421   .     A
C653   C655    1.425   .     A
C653   C1345   1.421   1_554 S
C654   C657    1.421   .     A
C655   C656    1.406   .     A
C655   N665    1.435   .     S
C656   O680    1.385   .     S
C657   O678    1.383   .     S
C659   C506    1.354   1_655 S
C659   N514    1.446   1_655 S
C661   C200    1.350   1_565 S
C661   O211    1.387   1_565 S
C662   N675    1.439   .     S
O663   H664    0.989   .     S
N665   O667    1.301   .     A
N665   O666    1.301   .     A
N668   O670    1.302   .     A
N668   O669    1.301   .     A
O671   H672    0.993   .     S
O671   C506    1.386   1_655 S
H674   O211    0.990   1_565 S
N675   O676    1.301   .     A
O677   N213    1.302   1_565 S
O678   H679    0.991   .     S
O680   H681    0.989   .     S
N682   O684    1.301   .     A
N682   O683    1.301   .     A
O685   H686    0.990   .     S
O687   H688    0.991   .     S
N689   O690    1.301   .     A
N689   O691    1.302   .     A
O692   H693    0.991   .     S
Zn694  O698    1.946   .     S
Zn694  O706    1.911   .     S
Zn694  O700    1.933   .     S
Zn694  O707    1.940   .     S
Zn695  O709    1.935   .     S
Zn695  O703    1.909   .     S
Zn695  O701    1.940   .     S
Zn695  O698    1.946   .     S
Zn696  O705    1.917   .     S
Zn696  O702    1.941   .     S
Zn696  O698    1.930   .     S
Zn696  O710    1.941   .     S
Zn697  O699    1.939   .     S
Zn697  O704    1.915   .     S
Zn697  O698    1.939   .     S
Zn697  O708    1.937   .     S
O699   C711    1.272   .     A
O700   C712    1.272   .     A
O701   C713    1.277   .     A
O702   C714    1.275   .     A
O703   C715    1.279   .     A
O704   C716    1.286   .     A
O705   C715    1.280   .     A
O706   C716    1.292   .     A
O707   C713    1.263   .     A
O708   C714    1.268   .     A
O709   C711    1.264   .     A
O710   C712    1.276   .     A
C711   C737    1.438   .     S
C712   C736    1.463   .     S
C713   C739    1.435   .     S
C714   C738    1.469   .     S
C715   C718    1.466   .     S
C716   C717    1.486   .     S
C717   C720    1.417   .     A
C717   C721    1.407   .     A
C718   C733    1.413   .     A
C718   C734    1.396   .     A
C719   C720    1.392   .     A
C719   C723    1.403   .     A
C719   H735    1.084   .     S
C720   O762    1.376   .     S
C721   O764    1.382   .     S
C721   C722    1.427   .     A
C722   C723    1.417   .     A
C722   C724    1.425   .     A
C723   C34     1.407   1_556 S
C724   C728    1.423   .     A
C724   C32     1.410   1_556 S
C725   C731    1.423   .     A
C725   C726    1.425   .     A
C726   C727    1.416   .     A
C726   N766    1.439   .     S
C727   O740    1.384   .     S
C728   C729    1.404   .     A
C728   O769    1.381   .     S
C729   N759    1.435   .     S
C729   C37     1.421   1_556 S
C730   C731    1.421   .     A
C730   C732    1.425   .     A
C731   C734    1.421   .     A
C732   C733    1.406   .     A
C732   N742    1.435   .     S
C733   O757    1.385   .     S
C734   O755    1.383   .     S
C736   C814    1.354   .     S
C736   N822    1.446   .     S
C737   C890    1.354   1_455 S
C737   O902    1.386   1_455 S
C738   C970    1.350   .     S
C738   O981    1.387   .     S
C739   N752    1.439   .     S
C739   C1200   1.350   1_545 S
O740   H741    0.989   .     S
N742   O744    1.301   .     A
N742   O743    1.301   .     A
N745   O747    1.302   .     A
N745   O746    1.301   .     A
N745   C890    1.446   1_455 S
O748   H749    0.993   .     S
O748   C814    1.386   .     S
O750   C1200   1.387   1_545 S
O750   H1213   0.990   1_545 S
H751   O981    0.990   .     S
N752   O753    1.301   .     A
N752   O1216   1.302   1_545 S
O754   N983    1.302   .     S
O755   H756    0.991   .     S
O757   H758    0.989   .     S
N759   O761    1.301   .     A
N759   O760    1.301   .     A
O762   H763    0.990   .     S
O764   H765    0.991   .     S
N766   O767    1.301   .     A
N766   O768    1.302   .     A
O769   H770    0.991   .     S
Zn771  O775    1.946   .     S
Zn771  O783    1.911   .     S
Zn771  O777    1.933   .     S
Zn771  O784    1.940   .     S
Zn772  O786    1.935   .     S
Zn772  O780    1.909   .     S
Zn772  O778    1.940   .     S
Zn772  O775    1.946   .     S
Zn773  O782    1.917   .     S
Zn773  O779    1.941   .     S
Zn773  O775    1.930   .     S
Zn773  O787    1.941   .     S
Zn774  O776    1.939   .     S
Zn774  O781    1.915   .     S
Zn774  O775    1.939   .     S
Zn774  O785    1.937   .     S
O776   C788    1.272   .     A
O777   C789    1.272   .     A
O778   C790    1.277   .     A
O779   C791    1.275   .     A
O780   C792    1.279   .     A
O781   C793    1.286   .     A
O782   C792    1.280   .     A
O783   C793    1.292   .     A
O784   C790    1.263   .     A
O785   C791    1.268   .     A
O786   C788    1.264   .     A
O787   C789    1.276   .     A
C788   C814    1.438   .     S
C789   C813    1.463   .     S
C790   C816    1.435   .     S
C791   C815    1.469   .     S
C792   C795    1.466   .     S
C793   C794    1.486   .     S
C794   C797    1.417   .     A
C794   C798    1.407   .     A
C795   C810    1.413   .     A
C795   C811    1.396   .     A
C796   C797    1.392   .     A
C796   C800    1.403   .     A
C796   H812    1.084   .     S
C797   O839    1.376   .     S
C798   O841    1.382   .     S
C798   C799    1.427   .     A
C799   C800    1.417   .     A
C799   C801    1.425   .     A
C800   C111    1.407   1_556 S
C801   C805    1.423   .     A
C801   C109    1.410   1_556 S
C802   C808    1.423   .     A
C802   C803    1.425   .     A
C803   C804    1.416   .     A
C803   N843    1.439   .     S
C804   O817    1.384   .     S
C805   C806    1.404   .     A
C805   O846    1.381   .     S
C806   N836    1.435   .     S
C806   C114    1.421   1_556 S
C807   C808    1.421   .     A
C807   C809    1.425   .     A
C808   C811    1.421   .     A
C809   C810    1.406   .     A
C809   N819    1.435   .     S
C810   O834    1.385   .     S
C811   O832    1.383   .     S
C813   C891    1.354   .     S
C813   N899    1.446   .     S
C815   C1047   1.350   .     S
C815   O1058   1.387   .     S
C816   N829    1.439   .     S
C816   C1277   1.350   1_545 S
O817   H818    0.989   .     S
N819   O821    1.301   .     A
N819   O820    1.301   .     A
N822   O824    1.302   .     A
N822   O823    1.301   .     A
O825   H826    0.993   .     S
O825   C891    1.386   .     S
O827   C1277   1.387   1_545 S
O827   H1290   0.990   1_545 S
H828   O1058   0.990   .     S
N829   O830    1.301   .     A
N829   O1293   1.302   1_545 S
O831   N1060   1.302   .     S
O832   H833    0.991   .     S
O834   H835    0.989   .     S
N836   O838    1.301   .     A
N836   O837    1.301   .     A
O839   H840    0.990   .     S
O841   H842    0.991   .     S
N843   O844    1.301   .     A
N843   O845    1.302   .     A
O846   H847    0.991   .     S
Zn848  O852    1.946   .     S
Zn848  O860    1.911   .     S
Zn848  O854    1.933   .     S
Zn848  O861    1.940   .     S
Zn849  O863    1.935   .     S
Zn849  O857    1.909   .     S
Zn849  O855    1.940   .     S
Zn849  O852    1.946   .     S
Zn850  O859    1.917   .     S
Zn850  O856    1.941   .     S
Zn850  O852    1.930   .     S
Zn850  O864    1.941   .     S
Zn851  O853    1.939   .     S
Zn851  O858    1.915   .     S
Zn851  O852    1.939   .     S
Zn851  O862    1.937   .     S
O853   C865    1.272   .     A
O854   C866    1.272   .     A
O855   C867    1.277   .     A
O856   C868    1.275   .     A
O857   C869    1.279   .     A
O858   C870    1.286   .     A
O859   C869    1.280   .     A
O860   C870    1.292   .     A
O861   C867    1.263   .     A
O862   C868    1.268   .     A
O863   C865    1.264   .     A
O864   C866    1.276   .     A
C865   C891    1.438   .     S
C866   C890    1.463   .     S
C867   C893    1.435   .     S
C868   C892    1.469   .     S
C869   C872    1.466   .     S
C870   C871    1.486   .     S
C871   C874    1.417   .     A
C871   C875    1.407   .     A
C872   C887    1.413   .     A
C872   C888    1.396   .     A
C873   C874    1.392   .     A
C873   C877    1.403   .     A
C873   H889    1.084   .     S
C874   O916    1.376   .     S
C875   O918    1.382   .     S
C875   C876    1.427   .     A
C876   C877    1.417   .     A
C876   C878    1.425   .     A
C877   C188    1.407   1_556 S
C878   C882    1.423   .     A
C878   C186    1.410   1_556 S
C879   C885    1.423   .     A
C879   C880    1.425   .     A
C880   C881    1.416   .     A
C880   N920    1.439   .     S
C881   O894    1.384   .     S
C882   C883    1.404   .     A
C882   O923    1.381   .     S
C883   N913    1.435   .     S
C883   C191    1.421   1_556 S
C884   C885    1.421   .     A
C884   C886    1.425   .     A
C885   C888    1.421   .     A
C886   C887    1.406   .     A
C886   N896    1.435   .     S
C887   O911    1.385   .     S
C888   O909    1.383   .     S
C890   C737    1.354   1_655 S
C890   N745    1.446   1_655 S
C892   C1124   1.350   .     S
C892   O1135   1.387   .     S
C893   N906    1.439   .     S
C893   C1354   1.350   1_545 S
O894   H895    0.989   .     S
N896   O898    1.301   .     A
N896   O897    1.301   .     A
N899   O901    1.302   .     A
N899   O900    1.301   .     A
O902   H903    0.993   .     S
O902   C737    1.386   1_655 S
O904   C1354   1.387   1_545 S
O904   H1367   0.990   1_545 S
H905   O1135   0.990   .     S
N906   O907    1.301   .     A
N906   O1370   1.302   1_545 S
O908   N1137   1.302   .     S
O909   H910    0.991   .     S
O911   H912    0.989   .     S
N913   O915    1.301   .     A
N913   O914    1.301   .     A
O916   H917    0.990   .     S
O918   H919    0.991   .     S
N920   O921    1.301   .     A
N920   O922    1.302   .     A
O923   H924    0.991   .     S
Zn925  O929    1.946   .     S
Zn925  O937    1.911   .     S
Zn925  O931    1.933   .     S
Zn925  O938    1.940   .     S
Zn926  O940    1.935   .     S
Zn926  O934    1.909   .     S
Zn926  O932    1.940   .     S
Zn926  O929    1.946   .     S
Zn927  O936    1.917   .     S
Zn927  O933    1.941   .     S
Zn927  O929    1.930   .     S
Zn927  O941    1.941   .     S
Zn928  O930    1.939   .     S
Zn928  O935    1.915   .     S
Zn928  O929    1.939   .     S
Zn928  O939    1.937   .     S
O930   C942    1.272   .     A
O931   C943    1.272   .     A
O932   C944    1.277   .     A
O933   C945    1.275   .     A
O934   C946    1.279   .     A
O935   C947    1.286   .     A
O936   C946    1.280   .     A
O937   C947    1.292   .     A
O938   C944    1.263   .     A
O939   C945    1.268   .     A
O940   C942    1.264   .     A
O941   C943    1.276   .     A
C942   C968    1.438   .     S
C943   C967    1.463   .     S
C944   C970    1.435   .     S
C945   C969    1.469   .     S
C946   C949    1.466   .     S
C947   C948    1.486   .     S
C948   C951    1.417   .     A
C948   C952    1.407   .     A
C949   C964    1.413   .     A
C949   C965    1.396   .     A
C950   C951    1.392   .     A
C950   C954    1.403   .     A
C950   H966    1.084   .     S
C951   O993    1.376   .     S
C952   O995    1.382   .     S
C952   C953    1.427   .     A
C953   C954    1.417   .     A
C953   C955    1.425   .     A
C954   C265    1.407   1_556 S
C955   C959    1.423   .     A
C955   C263    1.410   1_556 S
C956   C962    1.423   .     A
C956   C957    1.425   .     A
C957   C958    1.416   .     A
C957   N997    1.439   .     S
C958   O971    1.384   .     S
C959   C960    1.404   .     A
C959   O1000   1.381   .     S
C960   N990    1.435   .     S
C960   C268    1.421   1_556 S
C961   C962    1.421   .     A
C961   C963    1.425   .     A
C962   C965    1.421   .     A
C963   C964    1.406   .     A
C963   N973    1.435   .     S
C964   O988    1.385   .     S
C965   O986    1.383   .     S
C967   C1045   1.354   .     S
C967   N1053   1.446   .     S
C968   C1121   1.354   1_455 S
C968   O1133   1.386   1_455 S
C969   C1201   1.350   .     S
C969   O1212   1.387   .     S
C970   N983    1.439   .     S
O971   H972    0.989   .     S
N973   O975    1.301   .     A
N973   O974    1.301   .     A
N976   O978    1.302   .     A
N976   O977    1.301   .     A
N976   C1121   1.446   1_455 S
O979   H980    0.993   .     S
O979   C1045   1.386   .     S
H982   O1212   0.990   .     S
N983   O984    1.301   .     A
O985   N1214   1.302   .     S
O986   H987    0.991   .     S
O988   H989    0.989   .     S
N990   O992    1.301   .     A
N990   O991    1.301   .     A
O993   H994    0.990   .     S
O995   H996    0.991   .     S
N997   O998    1.301   .     A
N997   O999    1.302   .     A
O1000  H1001   0.991   .     S
Zn1002 O1006   1.946   .     S
Zn1002 O1014   1.911   .     S
Zn1002 O1008   1.933   .     S
Zn1002 O1015   1.940   .     S
Zn1003 O1017   1.935   .     S
Zn1003 O1011   1.909   .     S
Zn1003 O1009   1.940   .     S
Zn1003 O1006   1.946   .     S
Zn1004 O1013   1.917   .     S
Zn1004 O1010   1.941   .     S
Zn1004 O1006   1.930   .     S
Zn1004 O1018   1.941   .     S
Zn1005 O1007   1.939   .     S
Zn1005 O1012   1.915   .     S
Zn1005 O1006   1.939   .     S
Zn1005 O1016   1.937   .     S
O1007  C1019   1.272   .     A
O1008  C1020   1.272   .     A
O1009  C1021   1.277   .     A
O1010  C1022   1.275   .     A
O1011  C1023   1.279   .     A
O1012  C1024   1.286   .     A
O1013  C1023   1.280   .     A
O1014  C1024   1.292   .     A
O1015  C1021   1.263   .     A
O1016  C1022   1.268   .     A
O1017  C1019   1.264   .     A
O1018  C1020   1.276   .     A
C1019  C1045   1.438   .     S
C1020  C1044   1.463   .     S
C1021  C1047   1.435   .     S
C1022  C1046   1.469   .     S
C1023  C1026   1.466   .     S
C1024  C1025   1.486   .     S
C1025  C1028   1.417   .     A
C1025  C1029   1.407   .     A
C1026  C1041   1.413   .     A
C1026  C1042   1.396   .     A
C1027  C1028   1.392   .     A
C1027  C1031   1.403   .     A
C1027  H1043   1.084   .     S
C1028  O1070   1.376   .     S
C1029  O1072   1.382   .     S
C1029  C1030   1.427   .     A
C1030  C1031   1.417   .     A
C1030  C1032   1.425   .     A
C1031  C342    1.407   1_556 S
C1032  C1036   1.423   .     A
C1032  C340    1.410   1_556 S
C1033  C1039   1.423   .     A
C1033  C1034   1.425   .     A
C1034  C1035   1.416   .     A
C1034  N1074   1.439   .     S
C1035  O1048   1.384   .     S
C1036  C1037   1.404   .     A
C1036  O1077   1.381   .     S
C1037  N1067   1.435   .     S
C1037  C345    1.421   1_556 S
C1038  C1039   1.421   .     A
C1038  C1040   1.425   .     A
C1039  C1042   1.421   .     A
C1040  C1041   1.406   .     A
C1040  N1050   1.435   .     S
C1041  O1065   1.385   .     S
C1042  O1063   1.383   .     S
C1044  C1122   1.354   .     S
C1044  N1130   1.446   .     S
C1046  C1278   1.350   .     S
C1046  O1289   1.387   .     S
C1047  N1060   1.439   .     S
O1048  H1049   0.989   .     S
N1050  O1052   1.301   .     A
N1050  O1051   1.301   .     A
N1053  O1055   1.302   .     A
N1053  O1054   1.301   .     A
O1056  H1057   0.993   .     S
O1056  C1122   1.386   .     S
H1059  O1289   0.990   .     S
N1060  O1061   1.301   .     A
O1062  N1291   1.302   .     S
O1063  H1064   0.991   .     S
O1065  H1066   0.989   .     S
N1067  O1069   1.301   .     A
N1067  O1068   1.301   .     A
O1070  H1071   0.990   .     S
O1072  H1073   0.991   .     S
N1074  O1075   1.301   .     A
N1074  O1076   1.302   .     A
O1077  H1078   0.991   .     S
Zn1079 O1083   1.946   .     S
Zn1079 O1091   1.911   .     S
Zn1079 O1085   1.933   .     S
Zn1079 O1092   1.940   .     S
Zn1080 O1094   1.935   .     S
Zn1080 O1088   1.909   .     S
Zn1080 O1086   1.940   .     S
Zn1080 O1083   1.946   .     S
Zn1081 O1090   1.917   .     S
Zn1081 O1087   1.941   .     S
Zn1081 O1083   1.930   .     S
Zn1081 O1095   1.941   .     S
Zn1082 O1084   1.939   .     S
Zn1082 O1089   1.915   .     S
Zn1082 O1083   1.939   .     S
Zn1082 O1093   1.937   .     S
O1084  C1096   1.272   .     A
O1085  C1097   1.272   .     A
O1086  C1098   1.277   .     A
O1087  C1099   1.275   .     A
O1088  C1100   1.279   .     A
O1089  C1101   1.286   .     A
O1090  C1100   1.280   .     A
O1091  C1101   1.292   .     A
O1092  C1098   1.263   .     A
O1093  C1099   1.268   .     A
O1094  C1096   1.264   .     A
O1095  C1097   1.276   .     A
C1096  C1122   1.438   .     S
C1097  C1121   1.463   .     S
C1098  C1124   1.435   .     S
C1099  C1123   1.469   .     S
C1100  C1103   1.466   .     S
C1101  C1102   1.486   .     S
C1102  C1105   1.417   .     A
C1102  C1106   1.407   .     A
C1103  C1118   1.413   .     A
C1103  C1119   1.396   .     A
C1104  C1105   1.392   .     A
C1104  C1108   1.403   .     A
C1104  H1120   1.084   .     S
C1105  O1147   1.376   .     S
C1106  O1149   1.382   .     S
C1106  C1107   1.427   .     A
C1107  C1108   1.417   .     A
C1107  C1109   1.425   .     A
C1108  C419    1.407   1_556 S
C1109  C1113   1.423   .     A
C1109  C417    1.410   1_556 S
C1110  C1116   1.423   .     A
C1110  C1111   1.425   .     A
C1111  C1112   1.416   .     A
C1111  N1151   1.439   .     S
C1112  O1125   1.384   .     S
C1113  C1114   1.404   .     A
C1113  O1154   1.381   .     S
C1114  N1144   1.435   .     S
C1114  C422    1.421   1_556 S
C1115  C1116   1.421   .     A
C1115  C1117   1.425   .     A
C1116  C1119   1.421   .     A
C1117  C1118   1.406   .     A
C1117  N1127   1.435   .     S
C1118  O1142   1.385   .     S
C1119  O1140   1.383   .     S
C1121  C968    1.354   1_655 S
C1121  N976    1.446   1_655 S
C1123  C1355   1.350   .     S
C1123  O1366   1.387   .     S
C1124  N1137   1.439   .     S
O1125  H1126   0.989   .     S
N1127  O1129   1.301   .     A
N1127  O1128   1.301   .     A
N1130  O1132   1.302   .     A
N1130  O1131   1.301   .     A
O1133  H1134   0.993   .     S
O1133  C968    1.386   1_655 S
H1136  O1366   0.990   .     S
N1137  O1138   1.301   .     A
O1139  N1368   1.302   .     S
O1140  H1141   0.991   .     S
O1142  H1143   0.989   .     S
N1144  O1146   1.301   .     A
N1144  O1145   1.301   .     A
O1147  H1148   0.990   .     S
O1149  H1150   0.991   .     S
N1151  O1152   1.301   .     A
N1151  O1153   1.302   .     A
O1154  H1155   0.991   .     S
Zn1156 O1160   1.946   .     S
Zn1156 O1168   1.911   .     S
Zn1156 O1162   1.933   .     S
Zn1156 O1169   1.940   .     S
Zn1157 O1171   1.935   .     S
Zn1157 O1165   1.909   .     S
Zn1157 O1163   1.940   .     S
Zn1157 O1160   1.946   .     S
Zn1158 O1167   1.917   .     S
Zn1158 O1164   1.941   .     S
Zn1158 O1160   1.930   .     S
Zn1158 O1172   1.941   .     S
Zn1159 O1161   1.939   .     S
Zn1159 O1166   1.915   .     S
Zn1159 O1160   1.939   .     S
Zn1159 O1170   1.937   .     S
O1161  C1173   1.272   .     A
O1162  C1174   1.272   .     A
O1163  C1175   1.277   .     A
O1164  C1176   1.275   .     A
O1165  C1177   1.279   .     A
O1166  C1178   1.286   .     A
O1167  C1177   1.280   .     A
O1168  C1178   1.292   .     A
O1169  C1175   1.263   .     A
O1170  C1176   1.268   .     A
O1171  C1173   1.264   .     A
O1172  C1174   1.276   .     A
C1173  C1199   1.438   .     S
C1174  C1198   1.463   .     S
C1175  C1201   1.435   .     S
C1176  C1200   1.469   .     S
C1177  C1180   1.466   .     S
C1178  C1179   1.486   .     S
C1179  C1182   1.417   .     A
C1179  C1183   1.407   .     A
C1180  C1195   1.413   .     A
C1180  C1196   1.396   .     A
C1181  C1182   1.392   .     A
C1181  C1185   1.403   .     A
C1181  H1197   1.084   .     S
C1182  O1224   1.376   .     S
C1183  O1226   1.382   .     S
C1183  C1184   1.427   .     A
C1184  C1185   1.417   .     A
C1184  C1186   1.425   .     A
C1185  C496    1.407   1_556 S
C1186  C1190   1.423   .     A
C1186  C494    1.410   1_556 S
C1187  C1193   1.423   .     A
C1187  C1188   1.425   .     A
C1188  C1189   1.416   .     A
C1188  N1228   1.439   .     S
C1189  O1202   1.384   .     S
C1190  C1191   1.404   .     A
C1190  O1231   1.381   .     S
C1191  N1221   1.435   .     S
C1191  C499    1.421   1_556 S
C1192  C1193   1.421   .     A
C1192  C1194   1.425   .     A
C1193  C1196   1.421   .     A
C1194  C1195   1.406   .     A
C1194  N1204   1.435   .     S
C1195  O1219   1.385   .     S
C1196  O1217   1.383   .     S
C1198  C1276   1.354   .     S
C1198  N1284   1.446   .     S
C1199  C1352   1.354   1_455 S
C1199  O1364   1.386   1_455 S
C1200  C739    1.350   1_565 S
C1200  O750    1.387   1_565 S
C1201  N1214   1.439   .     S
O1202  H1203   0.989   .     S
N1204  O1206   1.301   .     A
N1204  O1205   1.301   .     A
N1207  O1209   1.302   .     A
N1207  O1208   1.301   .     A
N1207  C1352   1.446   1_455 S
O1210  H1211   0.993   .     S
O1210  C1276   1.386   .     S
H1213  O750    0.990   1_565 S
N1214  O1215   1.301   .     A
O1216  N752    1.302   1_565 S
O1217  H1218   0.991   .     S
O1219  H1220   0.989   .     S
N1221  O1223   1.301   .     A
N1221  O1222   1.301   .     A
O1224  H1225   0.990   .     S
O1226  H1227   0.991   .     S
N1228  O1229   1.301   .     A
N1228  O1230   1.302   .     A
O1231  H1232   0.991   .     S
Zn1233 O1237   1.946   .     S
Zn1233 O1245   1.911   .     S
Zn1233 O1239   1.933   .     S
Zn1233 O1246   1.940   .     S
Zn1234 O1248   1.935   .     S
Zn1234 O1242   1.909   .     S
Zn1234 O1240   1.940   .     S
Zn1234 O1237   1.946   .     S
Zn1235 O1244   1.917   .     S
Zn1235 O1241   1.941   .     S
Zn1235 O1237   1.930   .     S
Zn1235 O1249   1.941   .     S
Zn1236 O1238   1.939   .     S
Zn1236 O1243   1.915   .     S
Zn1236 O1237   1.939   .     S
Zn1236 O1247   1.937   .     S
O1238  C1250   1.272   .     A
O1239  C1251   1.272   .     A
O1240  C1252   1.277   .     A
O1241  C1253   1.275   .     A
O1242  C1254   1.279   .     A
O1243  C1255   1.286   .     A
O1244  C1254   1.280   .     A
O1245  C1255   1.292   .     A
O1246  C1252   1.263   .     A
O1247  C1253   1.268   .     A
O1248  C1250   1.264   .     A
O1249  C1251   1.276   .     A
C1250  C1276   1.438   .     S
C1251  C1275   1.463   .     S
C1252  C1278   1.435   .     S
C1253  C1277   1.469   .     S
C1254  C1257   1.466   .     S
C1255  C1256   1.486   .     S
C1256  C1259   1.417   .     A
C1256  C1260   1.407   .     A
C1257  C1272   1.413   .     A
C1257  C1273   1.396   .     A
C1258  C1259   1.392   .     A
C1258  C1262   1.403   .     A
C1258  H1274   1.084   .     S
C1259  O1301   1.376   .     S
C1260  O1303   1.382   .     S
C1260  C1261   1.427   .     A
C1261  C1262   1.417   .     A
C1261  C1263   1.425   .     A
C1262  C573    1.407   1_556 S
C1263  C1267   1.423   .     A
C1263  C571    1.410   1_556 S
C1264  C1270   1.423   .     A
C1264  C1265   1.425   .     A
C1265  C1266   1.416   .     A
C1265  N1305   1.439   .     S
C1266  O1279   1.384   .     S
C1267  C1268   1.404   .     A
C1267  O1308   1.381   .     S
C1268  N1298   1.435   .     S
C1268  C576    1.421   1_556 S
C1269  C1270   1.421   .     A
C1269  C1271   1.425   .     A
C1270  C1273   1.421   .     A
C1271  C1272   1.406   .     A
C1271  N1281   1.435   .     S
C1272  O1296   1.385   .     S
C1273  O1294   1.383   .     S
C1275  C1353   1.354   .     S
C1275  N1361   1.446   .     S
C1277  C816    1.350   1_565 S
C1277  O827    1.387   1_565 S
C1278  N1291   1.439   .     S
O1279  H1280   0.989   .     S
N1281  O1283   1.301   .     A
N1281  O1282   1.301   .     A
N1284  O1286   1.302   .     A
N1284  O1285   1.301   .     A
O1287  H1288   0.993   .     S
O1287  C1353   1.386   .     S
H1290  O827    0.990   1_565 S
N1291  O1292   1.301   .     A
O1293  N829    1.302   1_565 S
O1294  H1295   0.991   .     S
O1296  H1297   0.989   .     S
N1298  O1300   1.301   .     A
N1298  O1299   1.301   .     A
O1301  H1302   0.990   .     S
O1303  H1304   0.991   .     S
N1305  O1306   1.301   .     A
N1305  O1307   1.302   .     A
O1308  H1309   0.991   .     S
Zn1310 O1314   1.946   .     S
Zn1310 O1322   1.911   .     S
Zn1310 O1316   1.933   .     S
Zn1310 O1323   1.940   .     S
Zn1311 O1325   1.935   .     S
Zn1311 O1319   1.909   .     S
Zn1311 O1317   1.940   .     S
Zn1311 O1314   1.946   .     S
Zn1312 O1321   1.917   .     S
Zn1312 O1318   1.941   .     S
Zn1312 O1314   1.930   .     S
Zn1312 O1326   1.941   .     S
Zn1313 O1315   1.939   .     S
Zn1313 O1320   1.915   .     S
Zn1313 O1314   1.939   .     S
Zn1313 O1324   1.937   .     S
O1315  C1327   1.272   .     A
O1316  C1328   1.272   .     A
O1317  C1329   1.277   .     A
O1318  C1330   1.275   .     A
O1319  C1331   1.279   .     A
O1320  C1332   1.286   .     A
O1321  C1331   1.280   .     A
O1322  C1332   1.292   .     A
O1323  C1329   1.263   .     A
O1324  C1330   1.268   .     A
O1325  C1327   1.264   .     A
O1326  C1328   1.276   .     A
C1327  C1353   1.438   .     S
C1328  C1352   1.463   .     S
C1329  C1355   1.435   .     S
C1330  C1354   1.469   .     S
C1331  C1334   1.466   .     S
C1332  C1333   1.486   .     S
C1333  C1336   1.417   .     A
C1333  C1337   1.407   .     A
C1334  C1349   1.413   .     A
C1334  C1350   1.396   .     A
C1335  C1336   1.392   .     A
C1335  C1339   1.403   .     A
C1335  H1351   1.084   .     S
C1336  O1378   1.376   .     S
C1337  O1380   1.382   .     S
C1337  C1338   1.427   .     A
C1338  C1339   1.417   .     A
C1338  C1340   1.425   .     A
C1339  C650    1.407   1_556 S
C1340  C1344   1.423   .     A
C1340  C648    1.410   1_556 S
C1341  C1347   1.423   .     A
C1341  C1342   1.425   .     A
C1342  C1343   1.416   .     A
C1342  N1382   1.439   .     S
C1343  O1356   1.384   .     S
C1344  C1345   1.404   .     A
C1344  O1385   1.381   .     S
C1345  N1375   1.435   .     S
C1345  C653    1.421   1_556 S
C1346  C1347   1.421   .     A
C1346  C1348   1.425   .     A
C1347  C1350   1.421   .     A
C1348  C1349   1.406   .     A
C1348  N1358   1.435   .     S
C1349  O1373   1.385   .     S
C1350  O1371   1.383   .     S
C1352  C1199   1.354   1_655 S
C1352  N1207   1.446   1_655 S
C1354  C893    1.350   1_565 S
C1354  O904    1.387   1_565 S
C1355  N1368   1.439   .     S
O1356  H1357   0.989   .     S
N1358  O1360   1.301   .     A
N1358  O1359   1.301   .     A
N1361  O1363   1.302   .     A
N1361  O1362   1.301   .     A
O1364  H1365   0.993   .     S
O1364  C1199   1.386   1_655 S
H1367  O904    0.990   1_565 S
N1368  O1369   1.301   .     A
O1370  N906    1.302   1_565 S
O1371  H1372   0.991   .     S
O1373  H1374   0.989   .     S
N1375  O1377   1.301   .     A
N1375  O1376   1.301   .     A
O1378  H1379   0.990   .     S
O1380  H1381   0.991   .     S
N1382  O1383   1.301   .     A
N1382  O1384   1.302   .     A
O1385  H1386   0.991   .     S
