data_str_m1_o5_o17_pcu_sym.16
_audit_creation_date              2020-01-03
_audit_creation_method            'Materials Studio'
_symmetry_space_group_name_H-M    'P1'
_symmetry_Int_Tables_number       1
_symmetry_cell_setting            triclinic
loop_
_symmetry_equiv_pos_as_xyz
  x,y,z
_cell_length_a                    31.7974
_cell_length_b                    31.7974
_cell_length_c                    34.3685
_cell_angle_alpha                 90.0000
_cell_angle_beta                  90.0000
_cell_angle_gamma                 89.8638
loop_
_atom_site_label
_atom_site_type_symbol
_atom_site_fract_x
_atom_site_fract_y
_atom_site_fract_z
_atom_site_U_iso_or_equiv
_atom_site_adp_type
_atom_site_occupancy
C1     C     0.25000  -0.00000   0.35597   0.00000  Uiso   1.00
C2     C     0.33002   0.41998   0.75000   0.00000  Uiso   1.00
C3     C     0.42326   0.24799   0.02057   0.00000  Uiso   1.00
C4     C     0.25201   0.07674   0.97943   0.00000  Uiso   1.00
C5     C     0.24799   0.42326   0.02057   0.00000  Uiso   1.00
C6     C     0.42326   0.24799   0.97943   0.00000  Uiso   1.00
C7     C     0.07674   0.25201   0.02057   0.00000  Uiso   1.00
C8     C     0.41996   0.16996   0.25000   0.00000  Uiso   1.00
C9     C     0.08004   0.33004   0.75000   0.00000  Uiso   1.00
C10    C     0.33002   0.41998   0.25000   0.00000  Uiso   1.00
C11    C     0.16998   0.08002   0.75000   0.00000  Uiso   1.00
C12    C     0.08004   0.33004   0.25000   0.00000  Uiso   1.00
C13    C     0.41996   0.16996   0.75000   0.00000  Uiso   1.00
C14    C     0.16996   0.41996   0.75000   0.00000  Uiso   1.00
C15    C     0.33004   0.08004   0.25000   0.00000  Uiso   1.00
C16    C     0.41998   0.33002   0.75000   0.00000  Uiso   1.00
C17    C     0.25000   0.00000   0.64404   0.00000  Uiso   1.00
C18    C     0.08002   0.16998   0.25000   0.00000  Uiso   1.00
C19    C     0.33004   0.08004   0.75000   0.00000  Uiso   1.00
C20    C     0.16996   0.41996   0.25000   0.00000  Uiso   1.00
C21    C     0.08002   0.16998   0.75000   0.00000  Uiso   1.00
C22    C     0.41998   0.33002   0.25000   0.00000  Uiso   1.00
C23    C     0.13832   0.38832   0.25000   0.00000  Uiso   1.00
C24    C     0.36168   0.11168   0.75000   0.00000  Uiso   1.00
C25    C     0.11167   0.13833   0.25000   0.00000  Uiso   1.00
C26    C     0.38833   0.36167   0.75000   0.00000  Uiso   1.00
C27    C     0.36168   0.11168   0.25000   0.00000  Uiso   1.00
C28    C     0.00000   0.25000   0.35597   0.00000  Uiso   1.00
C29    C     0.13832   0.38832   0.75000   0.00000  Uiso   1.00
C30    C     0.38833   0.36167   0.25000   0.00000  Uiso   1.00
C31    C     0.11167   0.13833   0.75000   0.00000  Uiso   1.00
C32    C     0.13833   0.11167   0.75000   0.00000  Uiso   1.00
C33    C     0.36167   0.38833   0.25000   0.00000  Uiso   1.00
C34    C     0.11168   0.36168   0.75000   0.00000  Uiso   1.00
C35    C     0.38832   0.13832   0.25000   0.00000  Uiso   1.00
C36    C     0.36167   0.38833   0.75000   0.00000  Uiso   1.00
C37    C     0.13833   0.11167   0.25000   0.00000  Uiso   1.00
C38    C     0.38832   0.13832   0.75000   0.00000  Uiso   1.00
C39    C     0.00000   0.25000   0.64404   0.00000  Uiso   1.00
C40    C     0.11168   0.36168   0.25000   0.00000  Uiso   1.00
C41    C     0.48855   0.28663   0.41868   0.00000  Uiso   1.00
C42    C     0.01145   0.21337   0.58132   0.00000  Uiso   1.00
C43    C     0.21337   0.01145   0.41868   0.00000  Uiso   1.00
C44    C     0.28663   0.48855   0.58132   0.00000  Uiso   1.00
C45    C     0.01145   0.21337   0.41868   0.00000  Uiso   1.00
C46    C     0.48855   0.28663   0.58132   0.00000  Uiso   1.00
C47    C     0.28663   0.48855   0.41868   0.00000  Uiso   1.00
C48    C     0.21337   0.01145   0.58132   0.00000  Uiso   1.00
C49    C     0.23855   0.03663   0.91868   0.00000  Uiso   1.00
C50    C     0.00000   0.25000   0.85597   0.00000  Uiso   1.00
C51    C     0.26145   0.46337   0.08132   0.00000  Uiso   1.00
C52    C     0.46337   0.26145   0.91868   0.00000  Uiso   1.00
C53    C     0.03663   0.23855   0.08132   0.00000  Uiso   1.00
C54    C     0.26145   0.46337   0.91868   0.00000  Uiso   1.00
C55    C     0.23855   0.03663   0.08132   0.00000  Uiso   1.00
C56    C     0.03663   0.23855   0.91868   0.00000  Uiso   1.00
C57    C     0.46337   0.26145   0.08132   0.00000  Uiso   1.00
C58    C     0.00000   0.25000   0.39839   0.00000  Uiso   1.00
C59    C     0.00000   0.25000   0.60161   0.00000  Uiso   1.00
C60    C     0.25000   0.00000   0.39839   0.00000  Uiso   1.00
C61    C     0.00000   0.25000   0.14404   0.00000  Uiso   1.00
C62    C     0.25000   0.00000   0.60161   0.00000  Uiso   1.00
C63    C     0.25000   0.00000   0.89839   0.00000  Uiso   1.00
C64    C     0.25000  -0.00000   0.10161   0.00000  Uiso   1.00
C65    C     0.00000   0.25000   0.89839   0.00000  Uiso   1.00
C66    C     0.00000   0.25000   0.10161   0.00000  Uiso   1.00
C67    C     0.00395   0.21154   0.45910   0.00000  Uiso   1.00
C68    C     0.49605   0.28846   0.54090   0.00000  Uiso   1.00
C69    C     0.28846   0.49605   0.45910   0.00000  Uiso   1.00
C70    C     0.21154   0.00395   0.54090   0.00000  Uiso   1.00
C71    C     0.49605   0.28846   0.45910   0.00000  Uiso   1.00
C72    C     0.25000  -0.00000   0.85597   0.00000  Uiso   1.00
C73    C     0.00395   0.21154   0.54090   0.00000  Uiso   1.00
C74    C     0.21154   0.00395   0.45910   0.00000  Uiso   1.00
C75    C     0.28846   0.49605   0.54090   0.00000  Uiso   1.00
C76    C     0.25395   0.46154   0.95910   0.00000  Uiso   1.00
C77    C     0.24605   0.03846   0.04090   0.00000  Uiso   1.00
C78    C     0.03846   0.24605   0.95910   0.00000  Uiso   1.00
C79    C     0.46154   0.25395   0.04090   0.00000  Uiso   1.00
C80    C     0.24605   0.03846   0.95910   0.00000  Uiso   1.00
C81    C     0.25395   0.46154   0.04090   0.00000  Uiso   1.00
C82    C     0.46154   0.25395   0.95910   0.00000  Uiso   1.00
C83    C     0.25000   0.00000   0.14404   0.00000  Uiso   1.00
C84    C     0.03846   0.24605   0.04090   0.00000  Uiso   1.00
C85    C     0.00000   0.25000   0.47957   0.00000  Uiso   1.00
C86    C     0.00000   0.25000   0.52043   0.00000  Uiso   1.00
C87    C     0.25000   0.00000   0.47957   0.00000  Uiso   1.00
C88    C     0.25000   0.00000   0.52043   0.00000  Uiso   1.00
C89    C     0.25000   0.00000   0.97957   0.00000  Uiso   1.00
C90    C     0.25000   0.00000   0.02043   0.00000  Uiso   1.00
C91    C     0.00000   0.25000   0.97957   0.00000  Uiso   1.00
C92    C     0.00000   0.25000   0.02043   0.00000  Uiso   1.00
C93    C     0.49799   0.17326   0.47943   0.00000  Uiso   1.00
C94    C     0.16998   0.08002   0.25000   0.00000  Uiso   1.00
C95    C     0.00201   0.32674   0.52057   0.00000  Uiso   1.00
C96    C     0.32674   0.00201   0.47943   0.00000  Uiso   1.00
C97    C     0.17326   0.49799   0.52057   0.00000  Uiso   1.00
C98    C     0.00201   0.32674   0.47943   0.00000  Uiso   1.00
C99    C     0.49799   0.17326   0.52057   0.00000  Uiso   1.00
C100   C     0.17326   0.49799   0.47943   0.00000  Uiso   1.00
C101   C     0.32674   0.00201   0.52057   0.00000  Uiso   1.00
C102   C     0.24799   0.42326   0.97943   0.00000  Uiso   1.00
C103   C     0.25201   0.07674   0.02057   0.00000  Uiso   1.00
C104   C     0.07674   0.25201   0.97943   0.00000  Uiso   1.00
I105   I     0.45056   0.33290   0.38947   0.00000  Uiso   1.00
I106   I     0.29944   0.41710   0.11053   0.00000  Uiso   1.00
I107   I     0.41710   0.29944   0.88947   0.00000  Uiso   1.00
I108   I     0.08290   0.20056   0.11053   0.00000  Uiso   1.00
I109   I     0.29944   0.41710   0.88947   0.00000  Uiso   1.00
I110   I     0.20056   0.08290   0.11053   0.00000  Uiso   1.00
I111   I     0.08290   0.20056   0.88947   0.00000  Uiso   1.00
I112   I     0.41710   0.29944   0.11053   0.00000  Uiso   1.00
I113   I     0.47459   0.11889   0.44915   0.00000  Uiso   1.00
I114   I     0.02541   0.38111   0.55085   0.00000  Uiso   1.00
I115   I     0.38111   0.02541   0.44915   0.00000  Uiso   1.00
I116   I     0.04944   0.16710   0.61053   0.00000  Uiso   1.00
I117   I     0.11889   0.47459   0.55085   0.00000  Uiso   1.00
I118   I     0.02541   0.38111   0.44915   0.00000  Uiso   1.00
I119   I     0.47459   0.11889   0.55085   0.00000  Uiso   1.00
I120   I     0.11889   0.47459   0.44915   0.00000  Uiso   1.00
I121   I     0.38111   0.02541   0.55085   0.00000  Uiso   1.00
I122   I     0.22459   0.36889   0.94915   0.00000  Uiso   1.00
I123   I     0.27541   0.13111   0.05085   0.00000  Uiso   1.00
I124   I     0.13111   0.27541   0.94915   0.00000  Uiso   1.00
I125   I     0.36889   0.22459   0.05085   0.00000  Uiso   1.00
I126   I     0.27541   0.13111   0.94915   0.00000  Uiso   1.00
I127   I     0.16710   0.04944   0.38947   0.00000  Uiso   1.00
I128   I     0.22459   0.36889   0.05085   0.00000  Uiso   1.00
I129   I     0.36889   0.22459   0.94915   0.00000  Uiso   1.00
I130   I     0.13111   0.27541   0.05085   0.00000  Uiso   1.00
I131   I     0.33290   0.45056   0.61053   0.00000  Uiso   1.00
I132   I     0.04944   0.16710   0.38947   0.00000  Uiso   1.00
I133   I     0.45056   0.33290   0.61053   0.00000  Uiso   1.00
I134   I     0.33290   0.45056   0.38947   0.00000  Uiso   1.00
I135   I     0.16710   0.04944   0.61053   0.00000  Uiso   1.00
I136   I     0.20056   0.08290   0.88947   0.00000  Uiso   1.00
O137   O     0.25000  -0.00000   0.25000   0.00000  Uiso   1.00
O138   O     0.25000   0.46539   0.66251   0.00000  Uiso   1.00
O139   O     0.46539   0.25000   0.33749   0.00000  Uiso   1.00
O140   O     0.03462   0.25000   0.66251   0.00000  Uiso   1.00
O141   O     0.00000   0.21539   0.83749   0.00000  Uiso   1.00
O142   O     0.00000   0.28462   0.16251   0.00000  Uiso   1.00
O143   O     0.28462  -0.00000   0.83749   0.00000  Uiso   1.00
O144   O     0.21539  -0.00000   0.16251   0.00000  Uiso   1.00
O145   O     0.00000   0.28462   0.83749   0.00000  Uiso   1.00
O146   O     0.00000   0.21539   0.16251   0.00000  Uiso   1.00
O147   O     0.21539  -0.00000   0.83749   0.00000  Uiso   1.00
O148   O     0.25000  -0.00000   0.75000   0.00000  Uiso   1.00
O149   O     0.28462  -0.00000   0.16251   0.00000  Uiso   1.00
O150   O     0.20127   0.08332   0.27298   0.00000  Uiso   1.00
O151   O     0.29874   0.41668   0.72702   0.00000  Uiso   1.00
O152   O     0.41668   0.20127   0.27298   0.00000  Uiso   1.00
O153   O     0.08332   0.29874   0.72702   0.00000  Uiso   1.00
O154   O     0.29874   0.41668   0.27298   0.00000  Uiso   1.00
O155   O     0.20127   0.08332   0.72702   0.00000  Uiso   1.00
O156   O     0.08332   0.29874   0.27298   0.00000  Uiso   1.00
O157   O     0.41668   0.20127   0.72702   0.00000  Uiso   1.00
O158   O     0.20127   0.41668   0.72702   0.00000  Uiso   1.00
O159   O     0.00000   0.25000   0.25000   0.00000  Uiso   1.00
O160   O     0.29874   0.08332   0.27298   0.00000  Uiso   1.00
O161   O     0.41668   0.29874   0.72702   0.00000  Uiso   1.00
O162   O     0.08332   0.20127   0.27298   0.00000  Uiso   1.00
O163   O     0.29874   0.08332   0.72702   0.00000  Uiso   1.00
O164   O     0.20127   0.41668   0.27298   0.00000  Uiso   1.00
O165   O     0.08332   0.20127   0.72702   0.00000  Uiso   1.00
O166   O     0.41668   0.29874   0.27298   0.00000  Uiso   1.00
O167   O     0.45127   0.33332   0.77298   0.00000  Uiso   1.00
O168   O     0.04874   0.16668   0.22702   0.00000  Uiso   1.00
O169   O     0.16668   0.45127   0.77298   0.00000  Uiso   1.00
O170   O     0.00000   0.25000   0.75000   0.00000  Uiso   1.00
O171   O     0.33332   0.04873   0.22702   0.00000  Uiso   1.00
O172   O     0.04874   0.16668   0.77298   0.00000  Uiso   1.00
O173   O     0.45127   0.33332   0.22702   0.00000  Uiso   1.00
O174   O     0.33332   0.04873   0.77298   0.00000  Uiso   1.00
O175   O     0.16668   0.45127   0.22702   0.00000  Uiso   1.00
O176   O     0.45127   0.16668   0.22702   0.00000  Uiso   1.00
O177   O     0.04874   0.33332   0.77298   0.00000  Uiso   1.00
O178   O     0.16668   0.04874   0.22702   0.00000  Uiso   1.00
O179   O     0.33332   0.45127   0.77298   0.00000  Uiso   1.00
O180   O     0.04874   0.33332   0.22702   0.00000  Uiso   1.00
O181   O     0.25000   0.46539   0.33749   0.00000  Uiso   1.00
O182   O     0.45127   0.16668   0.77298   0.00000  Uiso   1.00
O183   O     0.33332   0.45127   0.22702   0.00000  Uiso   1.00
O184   O     0.16668   0.04874   0.77298   0.00000  Uiso   1.00
O185   O     0.25000   0.03461   0.66251   0.00000  Uiso   1.00
O186   O     0.03462   0.25000   0.33749   0.00000  Uiso   1.00
O187   O     0.46539   0.25000   0.66251   0.00000  Uiso   1.00
O188   O     0.25000   0.03461   0.33749   0.00000  Uiso   1.00
Zn189  Zn    0.20053  -0.00000   0.21730   0.00000  Uiso   1.00
Zn190  Zn    0.04948   0.25000   0.28270   0.00000  Uiso   1.00
Zn191  Zn    0.25000   0.45053   0.71730   0.00000  Uiso   1.00
Zn192  Zn    0.25000   0.04947   0.28270   0.00000  Uiso   1.00
Zn193  Zn    0.04948   0.25000   0.71730   0.00000  Uiso   1.00
Zn194  Zn    0.45053   0.25000   0.28270   0.00000  Uiso   1.00
Zn195  Zn    0.25000   0.04947   0.71730   0.00000  Uiso   1.00
Zn196  Zn    0.25000   0.45053   0.28270   0.00000  Uiso   1.00
Zn197  Zn    0.29948   0.00000   0.78270   0.00000  Uiso   1.00
Zn198  Zn    0.00000   0.20053   0.21730   0.00000  Uiso   1.00
Zn199  Zn    0.00000   0.29948   0.78270   0.00000  Uiso   1.00
Zn200  Zn    0.29948  -0.00000   0.21730   0.00000  Uiso   1.00
Zn201  Zn    0.20053   0.00000   0.78270   0.00000  Uiso   1.00
Zn202  Zn    0.00000   0.29948   0.21730   0.00000  Uiso   1.00
Zn203  Zn    0.00000   0.20053   0.78270   0.00000  Uiso   1.00
Zn204  Zn    0.45053   0.25000   0.71730   0.00000  Uiso   1.00
C205   C     0.75000  -0.00000   0.35597   0.00000  Uiso   1.00
C206   C     0.83002   0.41998   0.75000   0.00000  Uiso   1.00
C207   C     0.92326   0.24799   0.02057   0.00000  Uiso   1.00
C208   C     0.75201   0.07674   0.97943   0.00000  Uiso   1.00
C209   C     0.74799   0.42326   0.02057   0.00000  Uiso   1.00
C210   C     0.92326   0.24799   0.97943   0.00000  Uiso   1.00
C211   C     0.57674   0.25201   0.02057   0.00000  Uiso   1.00
C212   C     0.91996   0.16996   0.25000   0.00000  Uiso   1.00
C213   C     0.58004   0.33004   0.75000   0.00000  Uiso   1.00
C214   C     0.83002   0.41998   0.25000   0.00000  Uiso   1.00
C215   C     0.66998   0.08002   0.75000   0.00000  Uiso   1.00
C216   C     0.58004   0.33004   0.25000   0.00000  Uiso   1.00
C217   C     0.91996   0.16996   0.75000   0.00000  Uiso   1.00
C218   C     0.66996   0.41996   0.75000   0.00000  Uiso   1.00
C219   C     0.83004   0.08004   0.25000   0.00000  Uiso   1.00
C220   C     0.91998   0.33002   0.75000   0.00000  Uiso   1.00
C221   C     0.75000   0.00000   0.64404   0.00000  Uiso   1.00
C222   C     0.58002   0.16998   0.25000   0.00000  Uiso   1.00
C223   C     0.83004   0.08004   0.75000   0.00000  Uiso   1.00
C224   C     0.66996   0.41996   0.25000   0.00000  Uiso   1.00
C225   C     0.58002   0.16998   0.75000   0.00000  Uiso   1.00
C226   C     0.91998   0.33002   0.25000   0.00000  Uiso   1.00
C227   C     0.63832   0.38832   0.25000   0.00000  Uiso   1.00
C228   C     0.86168   0.11168   0.75000   0.00000  Uiso   1.00
C229   C     0.61167   0.13833   0.25000   0.00000  Uiso   1.00
C230   C     0.88833   0.36167   0.75000   0.00000  Uiso   1.00
C231   C     0.86168   0.11168   0.25000   0.00000  Uiso   1.00
C232   C     0.50000   0.25000   0.35597   0.00000  Uiso   1.00
C233   C     0.63832   0.38832   0.75000   0.00000  Uiso   1.00
C234   C     0.88833   0.36167   0.25000   0.00000  Uiso   1.00
C235   C     0.61167   0.13833   0.75000   0.00000  Uiso   1.00
C236   C     0.63833   0.11167   0.75000   0.00000  Uiso   1.00
C237   C     0.86167   0.38833   0.25000   0.00000  Uiso   1.00
C238   C     0.61168   0.36168   0.75000   0.00000  Uiso   1.00
C239   C     0.88832   0.13832   0.25000   0.00000  Uiso   1.00
C240   C     0.86167   0.38833   0.75000   0.00000  Uiso   1.00
C241   C     0.63833   0.11167   0.25000   0.00000  Uiso   1.00
C242   C     0.88832   0.13832   0.75000   0.00000  Uiso   1.00
C243   C     0.50000   0.25000   0.64404   0.00000  Uiso   1.00
C244   C     0.61168   0.36168   0.25000   0.00000  Uiso   1.00
C245   C     0.98855   0.28663   0.41868   0.00000  Uiso   1.00
C246   C     0.51145   0.21337   0.58132   0.00000  Uiso   1.00
C247   C     0.71337   0.01145   0.41868   0.00000  Uiso   1.00
C248   C     0.78663   0.48855   0.58132   0.00000  Uiso   1.00
C249   C     0.51145   0.21337   0.41868   0.00000  Uiso   1.00
C250   C     0.98855   0.28663   0.58132   0.00000  Uiso   1.00
C251   C     0.78663   0.48855   0.41868   0.00000  Uiso   1.00
C252   C     0.71337   0.01145   0.58132   0.00000  Uiso   1.00
C253   C     0.73855   0.03663   0.91868   0.00000  Uiso   1.00
C254   C     0.50000   0.25000   0.85597   0.00000  Uiso   1.00
C255   C     0.76145   0.46337   0.08132   0.00000  Uiso   1.00
C256   C     0.96337   0.26145   0.91868   0.00000  Uiso   1.00
C257   C     0.53663   0.23855   0.08132   0.00000  Uiso   1.00
C258   C     0.76145   0.46337   0.91868   0.00000  Uiso   1.00
C259   C     0.73855   0.03663   0.08132   0.00000  Uiso   1.00
C260   C     0.53663   0.23855   0.91868   0.00000  Uiso   1.00
C261   C     0.96337   0.26145   0.08132   0.00000  Uiso   1.00
C262   C     0.50000   0.25000   0.39839   0.00000  Uiso   1.00
C263   C     0.50000   0.25000   0.60161   0.00000  Uiso   1.00
C264   C     0.75000   0.00000   0.39839   0.00000  Uiso   1.00
C265   C     0.50000   0.25000   0.14404   0.00000  Uiso   1.00
C266   C     0.75000   0.00000   0.60161   0.00000  Uiso   1.00
C267   C     0.75000   0.00000   0.89839   0.00000  Uiso   1.00
C268   C     0.75000  -0.00000   0.10161   0.00000  Uiso   1.00
C269   C     0.50000   0.25000   0.89839   0.00000  Uiso   1.00
C270   C     0.50000   0.25000   0.10161   0.00000  Uiso   1.00
C271   C     0.50395   0.21154   0.45910   0.00000  Uiso   1.00
C272   C     0.99605   0.28846   0.54090   0.00000  Uiso   1.00
C273   C     0.78846   0.49605   0.45910   0.00000  Uiso   1.00
C274   C     0.71154   0.00395   0.54090   0.00000  Uiso   1.00
C275   C     0.99605   0.28846   0.45910   0.00000  Uiso   1.00
C276   C     0.75000  -0.00000   0.85597   0.00000  Uiso   1.00
C277   C     0.50395   0.21154   0.54090   0.00000  Uiso   1.00
C278   C     0.71154   0.00395   0.45910   0.00000  Uiso   1.00
C279   C     0.78846   0.49605   0.54090   0.00000  Uiso   1.00
C280   C     0.75395   0.46154   0.95910   0.00000  Uiso   1.00
C281   C     0.74605   0.03846   0.04090   0.00000  Uiso   1.00
C282   C     0.53846   0.24605   0.95910   0.00000  Uiso   1.00
C283   C     0.96154   0.25395   0.04090   0.00000  Uiso   1.00
C284   C     0.74605   0.03846   0.95910   0.00000  Uiso   1.00
C285   C     0.75395   0.46154   0.04090   0.00000  Uiso   1.00
C286   C     0.96154   0.25395   0.95910   0.00000  Uiso   1.00
C287   C     0.75000   0.00000   0.14404   0.00000  Uiso   1.00
C288   C     0.53846   0.24605   0.04090   0.00000  Uiso   1.00
C289   C     0.50000   0.25000   0.47957   0.00000  Uiso   1.00
C290   C     0.50000   0.25000   0.52043   0.00000  Uiso   1.00
C291   C     0.75000   0.00000   0.47957   0.00000  Uiso   1.00
C292   C     0.75000   0.00000   0.52043   0.00000  Uiso   1.00
C293   C     0.75000   0.00000   0.97957   0.00000  Uiso   1.00
C294   C     0.75000   0.00000   0.02043   0.00000  Uiso   1.00
C295   C     0.50000   0.25000   0.97957   0.00000  Uiso   1.00
C296   C     0.50000   0.25000   0.02043   0.00000  Uiso   1.00
C297   C     0.99799   0.17326   0.47943   0.00000  Uiso   1.00
C298   C     0.66998   0.08002   0.25000   0.00000  Uiso   1.00
C299   C     0.50201   0.32674   0.52057   0.00000  Uiso   1.00
C300   C     0.82674   0.00201   0.47943   0.00000  Uiso   1.00
C301   C     0.67326   0.49799   0.52057   0.00000  Uiso   1.00
C302   C     0.50201   0.32674   0.47943   0.00000  Uiso   1.00
C303   C     0.99799   0.17326   0.52057   0.00000  Uiso   1.00
C304   C     0.67326   0.49799   0.47943   0.00000  Uiso   1.00
C305   C     0.82674   0.00201   0.52057   0.00000  Uiso   1.00
C306   C     0.74799   0.42326   0.97943   0.00000  Uiso   1.00
C307   C     0.75201   0.07674   0.02057   0.00000  Uiso   1.00
C308   C     0.57674   0.25201   0.97943   0.00000  Uiso   1.00
I309   I     0.95056   0.33290   0.38947   0.00000  Uiso   1.00
I310   I     0.79944   0.41710   0.11053   0.00000  Uiso   1.00
I311   I     0.91710   0.29944   0.88947   0.00000  Uiso   1.00
I312   I     0.58290   0.20056   0.11053   0.00000  Uiso   1.00
I313   I     0.79944   0.41710   0.88947   0.00000  Uiso   1.00
I314   I     0.70056   0.08290   0.11053   0.00000  Uiso   1.00
I315   I     0.58290   0.20056   0.88947   0.00000  Uiso   1.00
I316   I     0.91710   0.29944   0.11053   0.00000  Uiso   1.00
I317   I     0.97459   0.11889   0.44915   0.00000  Uiso   1.00
I318   I     0.52541   0.38111   0.55085   0.00000  Uiso   1.00
I319   I     0.88111   0.02541   0.44915   0.00000  Uiso   1.00
I320   I     0.54944   0.16710   0.61053   0.00000  Uiso   1.00
I321   I     0.61889   0.47459   0.55085   0.00000  Uiso   1.00
I322   I     0.52541   0.38111   0.44915   0.00000  Uiso   1.00
I323   I     0.97459   0.11889   0.55085   0.00000  Uiso   1.00
I324   I     0.61889   0.47459   0.44915   0.00000  Uiso   1.00
I325   I     0.88111   0.02541   0.55085   0.00000  Uiso   1.00
I326   I     0.72459   0.36889   0.94915   0.00000  Uiso   1.00
I327   I     0.77541   0.13111   0.05085   0.00000  Uiso   1.00
I328   I     0.63111   0.27541   0.94915   0.00000  Uiso   1.00
I329   I     0.86889   0.22459   0.05085   0.00000  Uiso   1.00
I330   I     0.77541   0.13111   0.94915   0.00000  Uiso   1.00
I331   I     0.66710   0.04944   0.38947   0.00000  Uiso   1.00
I332   I     0.72459   0.36889   0.05085   0.00000  Uiso   1.00
I333   I     0.86889   0.22459   0.94915   0.00000  Uiso   1.00
I334   I     0.63111   0.27541   0.05085   0.00000  Uiso   1.00
I335   I     0.83290   0.45056   0.61053   0.00000  Uiso   1.00
I336   I     0.54944   0.16710   0.38947   0.00000  Uiso   1.00
I337   I     0.95056   0.33290   0.61053   0.00000  Uiso   1.00
I338   I     0.83290   0.45056   0.38947   0.00000  Uiso   1.00
I339   I     0.66710   0.04944   0.61053   0.00000  Uiso   1.00
I340   I     0.70056   0.08290   0.88947   0.00000  Uiso   1.00
O341   O     0.75000  -0.00000   0.25000   0.00000  Uiso   1.00
O342   O     0.75000   0.46539   0.66251   0.00000  Uiso   1.00
O343   O     0.96539   0.25000   0.33749   0.00000  Uiso   1.00
O344   O     0.53462   0.25000   0.66251   0.00000  Uiso   1.00
O345   O     0.50000   0.21539   0.83749   0.00000  Uiso   1.00
O346   O     0.50000   0.28462   0.16251   0.00000  Uiso   1.00
O347   O     0.78462  -0.00000   0.83749   0.00000  Uiso   1.00
O348   O     0.71539  -0.00000   0.16251   0.00000  Uiso   1.00
O349   O     0.50000   0.28462   0.83749   0.00000  Uiso   1.00
O350   O     0.50000   0.21539   0.16251   0.00000  Uiso   1.00
O351   O     0.71539  -0.00000   0.83749   0.00000  Uiso   1.00
O352   O     0.75000  -0.00000   0.75000   0.00000  Uiso   1.00
O353   O     0.78462  -0.00000   0.16251   0.00000  Uiso   1.00
O354   O     0.70127   0.08332   0.27298   0.00000  Uiso   1.00
O355   O     0.79874   0.41668   0.72702   0.00000  Uiso   1.00
O356   O     0.91668   0.20127   0.27298   0.00000  Uiso   1.00
O357   O     0.58332   0.29874   0.72702   0.00000  Uiso   1.00
O358   O     0.79874   0.41668   0.27298   0.00000  Uiso   1.00
O359   O     0.70127   0.08332   0.72702   0.00000  Uiso   1.00
O360   O     0.58332   0.29874   0.27298   0.00000  Uiso   1.00
O361   O     0.91668   0.20127   0.72702   0.00000  Uiso   1.00
O362   O     0.70127   0.41668   0.72702   0.00000  Uiso   1.00
O363   O     0.50000   0.25000   0.25000   0.00000  Uiso   1.00
O364   O     0.79874   0.08332   0.27298   0.00000  Uiso   1.00
O365   O     0.91668   0.29874   0.72702   0.00000  Uiso   1.00
O366   O     0.58332   0.20127   0.27298   0.00000  Uiso   1.00
O367   O     0.79874   0.08332   0.72702   0.00000  Uiso   1.00
O368   O     0.70127   0.41668   0.27298   0.00000  Uiso   1.00
O369   O     0.58332   0.20127   0.72702   0.00000  Uiso   1.00
O370   O     0.91668   0.29874   0.27298   0.00000  Uiso   1.00
O371   O     0.95127   0.33332   0.77298   0.00000  Uiso   1.00
O372   O     0.54874   0.16668   0.22702   0.00000  Uiso   1.00
O373   O     0.66668   0.45127   0.77298   0.00000  Uiso   1.00
O374   O     0.50000   0.25000   0.75000   0.00000  Uiso   1.00
O375   O     0.83332   0.04873   0.22702   0.00000  Uiso   1.00
O376   O     0.54874   0.16668   0.77298   0.00000  Uiso   1.00
O377   O     0.95127   0.33332   0.22702   0.00000  Uiso   1.00
O378   O     0.83332   0.04873   0.77298   0.00000  Uiso   1.00
O379   O     0.66668   0.45127   0.22702   0.00000  Uiso   1.00
O380   O     0.95127   0.16668   0.22702   0.00000  Uiso   1.00
O381   O     0.54874   0.33332   0.77298   0.00000  Uiso   1.00
O382   O     0.66668   0.04874   0.22702   0.00000  Uiso   1.00
O383   O     0.83332   0.45127   0.77298   0.00000  Uiso   1.00
O384   O     0.54874   0.33332   0.22702   0.00000  Uiso   1.00
O385   O     0.75000   0.46539   0.33749   0.00000  Uiso   1.00
O386   O     0.95127   0.16668   0.77298   0.00000  Uiso   1.00
O387   O     0.83332   0.45127   0.22702   0.00000  Uiso   1.00
O388   O     0.66668   0.04874   0.77298   0.00000  Uiso   1.00
O389   O     0.75000   0.03461   0.66251   0.00000  Uiso   1.00
O390   O     0.53462   0.25000   0.33749   0.00000  Uiso   1.00
O391   O     0.96539   0.25000   0.66251   0.00000  Uiso   1.00
O392   O     0.75000   0.03461   0.33749   0.00000  Uiso   1.00
Zn393  Zn    0.70053  -0.00000   0.21730   0.00000  Uiso   1.00
Zn394  Zn    0.54948   0.25000   0.28270   0.00000  Uiso   1.00
Zn395  Zn    0.75000   0.45053   0.71730   0.00000  Uiso   1.00
Zn396  Zn    0.75000   0.04947   0.28270   0.00000  Uiso   1.00
Zn397  Zn    0.54948   0.25000   0.71730   0.00000  Uiso   1.00
Zn398  Zn    0.95053   0.25000   0.28270   0.00000  Uiso   1.00
Zn399  Zn    0.75000   0.04947   0.71730   0.00000  Uiso   1.00
Zn400  Zn    0.75000   0.45053   0.28270   0.00000  Uiso   1.00
Zn401  Zn    0.79948   0.00000   0.78270   0.00000  Uiso   1.00
Zn402  Zn    0.50000   0.20053   0.21730   0.00000  Uiso   1.00
Zn403  Zn    0.50000   0.29948   0.78270   0.00000  Uiso   1.00
Zn404  Zn    0.79948  -0.00000   0.21730   0.00000  Uiso   1.00
Zn405  Zn    0.70053   0.00000   0.78270   0.00000  Uiso   1.00
Zn406  Zn    0.50000   0.29948   0.21730   0.00000  Uiso   1.00
Zn407  Zn    0.50000   0.20053   0.78270   0.00000  Uiso   1.00
Zn408  Zn    0.95053   0.25000   0.71730   0.00000  Uiso   1.00
C409   C     0.25000   0.50000   0.35597   0.00000  Uiso   1.00
C410   C     0.33002   0.91998   0.75000   0.00000  Uiso   1.00
C411   C     0.42326   0.74799   0.02057   0.00000  Uiso   1.00
C412   C     0.25201   0.57674   0.97943   0.00000  Uiso   1.00
C413   C     0.24799   0.92326   0.02057   0.00000  Uiso   1.00
C414   C     0.42326   0.74799   0.97943   0.00000  Uiso   1.00
C415   C     0.07674   0.75201   0.02057   0.00000  Uiso   1.00
C416   C     0.41996   0.66996   0.25000   0.00000  Uiso   1.00
C417   C     0.08004   0.83004   0.75000   0.00000  Uiso   1.00
C418   C     0.33002   0.91998   0.25000   0.00000  Uiso   1.00
C419   C     0.16998   0.58002   0.75000   0.00000  Uiso   1.00
C420   C     0.08004   0.83004   0.25000   0.00000  Uiso   1.00
C421   C     0.41996   0.66996   0.75000   0.00000  Uiso   1.00
C422   C     0.16996   0.91996   0.75000   0.00000  Uiso   1.00
C423   C     0.33004   0.58004   0.25000   0.00000  Uiso   1.00
C424   C     0.41998   0.83002   0.75000   0.00000  Uiso   1.00
C425   C     0.25000   0.50000   0.64404   0.00000  Uiso   1.00
C426   C     0.08002   0.66998   0.25000   0.00000  Uiso   1.00
C427   C     0.33004   0.58004   0.75000   0.00000  Uiso   1.00
C428   C     0.16996   0.91996   0.25000   0.00000  Uiso   1.00
C429   C     0.08002   0.66998   0.75000   0.00000  Uiso   1.00
C430   C     0.41998   0.83002   0.25000   0.00000  Uiso   1.00
C431   C     0.13832   0.88832   0.25000   0.00000  Uiso   1.00
C432   C     0.36168   0.61168   0.75000   0.00000  Uiso   1.00
C433   C     0.11167   0.63833   0.25000   0.00000  Uiso   1.00
C434   C     0.38833   0.86167   0.75000   0.00000  Uiso   1.00
C435   C     0.36168   0.61168   0.25000   0.00000  Uiso   1.00
C436   C     0.00000   0.75000   0.35597   0.00000  Uiso   1.00
C437   C     0.13832   0.88832   0.75000   0.00000  Uiso   1.00
C438   C     0.38833   0.86167   0.25000   0.00000  Uiso   1.00
C439   C     0.11167   0.63833   0.75000   0.00000  Uiso   1.00
C440   C     0.13833   0.61167   0.75000   0.00000  Uiso   1.00
C441   C     0.36167   0.88833   0.25000   0.00000  Uiso   1.00
C442   C     0.11168   0.86168   0.75000   0.00000  Uiso   1.00
C443   C     0.38832   0.63832   0.25000   0.00000  Uiso   1.00
C444   C     0.36167   0.88833   0.75000   0.00000  Uiso   1.00
C445   C     0.13833   0.61167   0.25000   0.00000  Uiso   1.00
C446   C     0.38832   0.63832   0.75000   0.00000  Uiso   1.00
C447   C     0.00000   0.75000   0.64404   0.00000  Uiso   1.00
C448   C     0.11168   0.86168   0.25000   0.00000  Uiso   1.00
C449   C     0.48855   0.78663   0.41868   0.00000  Uiso   1.00
C450   C     0.01145   0.71337   0.58132   0.00000  Uiso   1.00
C451   C     0.21337   0.51145   0.41868   0.00000  Uiso   1.00
C452   C     0.28663   0.98855   0.58132   0.00000  Uiso   1.00
C453   C     0.01145   0.71337   0.41868   0.00000  Uiso   1.00
C454   C     0.48855   0.78663   0.58132   0.00000  Uiso   1.00
C455   C     0.28663   0.98855   0.41868   0.00000  Uiso   1.00
C456   C     0.21337   0.51145   0.58132   0.00000  Uiso   1.00
C457   C     0.23855   0.53663   0.91868   0.00000  Uiso   1.00
C458   C     0.00000   0.75000   0.85597   0.00000  Uiso   1.00
C459   C     0.26145   0.96337   0.08132   0.00000  Uiso   1.00
C460   C     0.46337   0.76145   0.91868   0.00000  Uiso   1.00
C461   C     0.03663   0.73855   0.08132   0.00000  Uiso   1.00
C462   C     0.26145   0.96337   0.91868   0.00000  Uiso   1.00
C463   C     0.23855   0.53663   0.08132   0.00000  Uiso   1.00
C464   C     0.03663   0.73855   0.91868   0.00000  Uiso   1.00
C465   C     0.46337   0.76145   0.08132   0.00000  Uiso   1.00
C466   C     0.00000   0.75000   0.39839   0.00000  Uiso   1.00
C467   C     0.00000   0.75000   0.60161   0.00000  Uiso   1.00
C468   C     0.25000   0.50000   0.39839   0.00000  Uiso   1.00
C469   C     0.00000   0.75000   0.14404   0.00000  Uiso   1.00
C470   C     0.25000   0.50000   0.60161   0.00000  Uiso   1.00
C471   C     0.25000   0.50000   0.89839   0.00000  Uiso   1.00
C472   C     0.25000   0.50000   0.10161   0.00000  Uiso   1.00
C473   C     0.00000   0.75000   0.89839   0.00000  Uiso   1.00
C474   C     0.00000   0.75000   0.10161   0.00000  Uiso   1.00
C475   C     0.00395   0.71154   0.45910   0.00000  Uiso   1.00
C476   C     0.49605   0.78846   0.54090   0.00000  Uiso   1.00
C477   C     0.28846   0.99605   0.45910   0.00000  Uiso   1.00
C478   C     0.21154   0.50395   0.54090   0.00000  Uiso   1.00
C479   C     0.49605   0.78846   0.45910   0.00000  Uiso   1.00
C480   C     0.25000   0.50000   0.85597   0.00000  Uiso   1.00
C481   C     0.00395   0.71154   0.54090   0.00000  Uiso   1.00
C482   C     0.21154   0.50395   0.45910   0.00000  Uiso   1.00
C483   C     0.28846   0.99605   0.54090   0.00000  Uiso   1.00
C484   C     0.25395   0.96154   0.95910   0.00000  Uiso   1.00
C485   C     0.24605   0.53846   0.04090   0.00000  Uiso   1.00
C486   C     0.03846   0.74605   0.95910   0.00000  Uiso   1.00
C487   C     0.46154   0.75395   0.04090   0.00000  Uiso   1.00
C488   C     0.24605   0.53846   0.95910   0.00000  Uiso   1.00
C489   C     0.25395   0.96154   0.04090   0.00000  Uiso   1.00
C490   C     0.46154   0.75395   0.95910   0.00000  Uiso   1.00
C491   C     0.25000   0.50000   0.14404   0.00000  Uiso   1.00
C492   C     0.03846   0.74605   0.04090   0.00000  Uiso   1.00
C493   C     0.00000   0.75000   0.47957   0.00000  Uiso   1.00
C494   C     0.00000   0.75000   0.52043   0.00000  Uiso   1.00
C495   C     0.25000   0.50000   0.47957   0.00000  Uiso   1.00
C496   C     0.25000   0.50000   0.52043   0.00000  Uiso   1.00
C497   C     0.25000   0.50000   0.97957   0.00000  Uiso   1.00
C498   C     0.25000   0.50000   0.02043   0.00000  Uiso   1.00
C499   C     0.00000   0.75000   0.97957   0.00000  Uiso   1.00
C500   C     0.00000   0.75000   0.02043   0.00000  Uiso   1.00
C501   C     0.49799   0.67326   0.47943   0.00000  Uiso   1.00
C502   C     0.16998   0.58002   0.25000   0.00000  Uiso   1.00
C503   C     0.00201   0.82674   0.52057   0.00000  Uiso   1.00
C504   C     0.32674   0.50201   0.47943   0.00000  Uiso   1.00
C505   C     0.17326   0.99799   0.52057   0.00000  Uiso   1.00
C506   C     0.00201   0.82674   0.47943   0.00000  Uiso   1.00
C507   C     0.49799   0.67326   0.52057   0.00000  Uiso   1.00
C508   C     0.17326   0.99799   0.47943   0.00000  Uiso   1.00
C509   C     0.32674   0.50201   0.52057   0.00000  Uiso   1.00
C510   C     0.24799   0.92326   0.97943   0.00000  Uiso   1.00
C511   C     0.25201   0.57674   0.02057   0.00000  Uiso   1.00
C512   C     0.07674   0.75201   0.97943   0.00000  Uiso   1.00
I513   I     0.45056   0.83290   0.38947   0.00000  Uiso   1.00
I514   I     0.29944   0.91710   0.11053   0.00000  Uiso   1.00
I515   I     0.41710   0.79944   0.88947   0.00000  Uiso   1.00
I516   I     0.08290   0.70056   0.11053   0.00000  Uiso   1.00
I517   I     0.29944   0.91710   0.88947   0.00000  Uiso   1.00
I518   I     0.20056   0.58290   0.11053   0.00000  Uiso   1.00
I519   I     0.08290   0.70056   0.88947   0.00000  Uiso   1.00
I520   I     0.41710   0.79944   0.11053   0.00000  Uiso   1.00
I521   I     0.47459   0.61889   0.44915   0.00000  Uiso   1.00
I522   I     0.02541   0.88111   0.55085   0.00000  Uiso   1.00
I523   I     0.38111   0.52541   0.44915   0.00000  Uiso   1.00
I524   I     0.04944   0.66710   0.61053   0.00000  Uiso   1.00
I525   I     0.11889   0.97459   0.55085   0.00000  Uiso   1.00
I526   I     0.02541   0.88111   0.44915   0.00000  Uiso   1.00
I527   I     0.47459   0.61889   0.55085   0.00000  Uiso   1.00
I528   I     0.11889   0.97459   0.44915   0.00000  Uiso   1.00
I529   I     0.38111   0.52541   0.55085   0.00000  Uiso   1.00
I530   I     0.22459   0.86889   0.94915   0.00000  Uiso   1.00
I531   I     0.27541   0.63111   0.05085   0.00000  Uiso   1.00
I532   I     0.13111   0.77541   0.94915   0.00000  Uiso   1.00
I533   I     0.36889   0.72459   0.05085   0.00000  Uiso   1.00
I534   I     0.27541   0.63111   0.94915   0.00000  Uiso   1.00
I535   I     0.16710   0.54944   0.38947   0.00000  Uiso   1.00
I536   I     0.22459   0.86889   0.05085   0.00000  Uiso   1.00
I537   I     0.36889   0.72459   0.94915   0.00000  Uiso   1.00
I538   I     0.13111   0.77541   0.05085   0.00000  Uiso   1.00
I539   I     0.33290   0.95056   0.61053   0.00000  Uiso   1.00
I540   I     0.04944   0.66710   0.38947   0.00000  Uiso   1.00
I541   I     0.45056   0.83290   0.61053   0.00000  Uiso   1.00
I542   I     0.33290   0.95056   0.38947   0.00000  Uiso   1.00
I543   I     0.16710   0.54944   0.61053   0.00000  Uiso   1.00
I544   I     0.20056   0.58290   0.88947   0.00000  Uiso   1.00
O545   O     0.25000   0.50000   0.25000   0.00000  Uiso   1.00
O546   O     0.25000   0.96539   0.66251   0.00000  Uiso   1.00
O547   O     0.46539   0.75000   0.33749   0.00000  Uiso   1.00
O548   O     0.03462   0.75000   0.66251   0.00000  Uiso   1.00
O549   O     0.00000   0.71539   0.83749   0.00000  Uiso   1.00
O550   O     0.00000   0.78462   0.16251   0.00000  Uiso   1.00
O551   O     0.28462   0.50000   0.83749   0.00000  Uiso   1.00
O552   O     0.21539   0.50000   0.16251   0.00000  Uiso   1.00
O553   O     0.00000   0.78462   0.83749   0.00000  Uiso   1.00
O554   O     0.00000   0.71539   0.16251   0.00000  Uiso   1.00
O555   O     0.21539   0.50000   0.83749   0.00000  Uiso   1.00
O556   O     0.25000   0.50000   0.75000   0.00000  Uiso   1.00
O557   O     0.28462   0.50000   0.16251   0.00000  Uiso   1.00
O558   O     0.20127   0.58332   0.27298   0.00000  Uiso   1.00
O559   O     0.29874   0.91668   0.72702   0.00000  Uiso   1.00
O560   O     0.41668   0.70127   0.27298   0.00000  Uiso   1.00
O561   O     0.08332   0.79874   0.72702   0.00000  Uiso   1.00
O562   O     0.29874   0.91668   0.27298   0.00000  Uiso   1.00
O563   O     0.20127   0.58332   0.72702   0.00000  Uiso   1.00
O564   O     0.08332   0.79874   0.27298   0.00000  Uiso   1.00
O565   O     0.41668   0.70127   0.72702   0.00000  Uiso   1.00
O566   O     0.20127   0.91668   0.72702   0.00000  Uiso   1.00
O567   O     0.00000   0.75000   0.25000   0.00000  Uiso   1.00
O568   O     0.29874   0.58332   0.27298   0.00000  Uiso   1.00
O569   O     0.41668   0.79874   0.72702   0.00000  Uiso   1.00
O570   O     0.08332   0.70127   0.27298   0.00000  Uiso   1.00
O571   O     0.29874   0.58332   0.72702   0.00000  Uiso   1.00
O572   O     0.20127   0.91668   0.27298   0.00000  Uiso   1.00
O573   O     0.08332   0.70127   0.72702   0.00000  Uiso   1.00
O574   O     0.41668   0.79874   0.27298   0.00000  Uiso   1.00
O575   O     0.45127   0.83332   0.77298   0.00000  Uiso   1.00
O576   O     0.04874   0.66668   0.22702   0.00000  Uiso   1.00
O577   O     0.16668   0.95127   0.77298   0.00000  Uiso   1.00
O578   O     0.00000   0.75000   0.75000   0.00000  Uiso   1.00
O579   O     0.33332   0.54873   0.22702   0.00000  Uiso   1.00
O580   O     0.04874   0.66668   0.77298   0.00000  Uiso   1.00
O581   O     0.45127   0.83332   0.22702   0.00000  Uiso   1.00
O582   O     0.33332   0.54873   0.77298   0.00000  Uiso   1.00
O583   O     0.16668   0.95127   0.22702   0.00000  Uiso   1.00
O584   O     0.45127   0.66668   0.22702   0.00000  Uiso   1.00
O585   O     0.04874   0.83332   0.77298   0.00000  Uiso   1.00
O586   O     0.16668   0.54874   0.22702   0.00000  Uiso   1.00
O587   O     0.33332   0.95127   0.77298   0.00000  Uiso   1.00
O588   O     0.04874   0.83332   0.22702   0.00000  Uiso   1.00
O589   O     0.25000   0.96539   0.33749   0.00000  Uiso   1.00
O590   O     0.45127   0.66668   0.77298   0.00000  Uiso   1.00
O591   O     0.33332   0.95127   0.22702   0.00000  Uiso   1.00
O592   O     0.16668   0.54874   0.77298   0.00000  Uiso   1.00
O593   O     0.25000   0.53461   0.66251   0.00000  Uiso   1.00
O594   O     0.03462   0.75000   0.33749   0.00000  Uiso   1.00
O595   O     0.46539   0.75000   0.66251   0.00000  Uiso   1.00
O596   O     0.25000   0.53461   0.33749   0.00000  Uiso   1.00
Zn597  Zn    0.20053   0.50000   0.21730   0.00000  Uiso   1.00
Zn598  Zn    0.04948   0.75000   0.28270   0.00000  Uiso   1.00
Zn599  Zn    0.25000   0.95053   0.71730   0.00000  Uiso   1.00
Zn600  Zn    0.25000   0.54947   0.28270   0.00000  Uiso   1.00
Zn601  Zn    0.04948   0.75000   0.71730   0.00000  Uiso   1.00
Zn602  Zn    0.45053   0.75000   0.28270   0.00000  Uiso   1.00
Zn603  Zn    0.25000   0.54947   0.71730   0.00000  Uiso   1.00
Zn604  Zn    0.25000   0.95053   0.28270   0.00000  Uiso   1.00
Zn605  Zn    0.29948   0.50000   0.78270   0.00000  Uiso   1.00
Zn606  Zn    0.00000   0.70053   0.21730   0.00000  Uiso   1.00
Zn607  Zn    0.00000   0.79948   0.78270   0.00000  Uiso   1.00
Zn608  Zn    0.29948   0.50000   0.21730   0.00000  Uiso   1.00
Zn609  Zn    0.20053   0.50000   0.78270   0.00000  Uiso   1.00
Zn610  Zn    0.00000   0.79948   0.21730   0.00000  Uiso   1.00
Zn611  Zn    0.00000   0.70053   0.78270   0.00000  Uiso   1.00
Zn612  Zn    0.45053   0.75000   0.71730   0.00000  Uiso   1.00
C613   C     0.75000   0.50000   0.35597   0.00000  Uiso   1.00
C614   C     0.83002   0.91998   0.75000   0.00000  Uiso   1.00
C615   C     0.92326   0.74799   0.02057   0.00000  Uiso   1.00
C616   C     0.75201   0.57674   0.97943   0.00000  Uiso   1.00
C617   C     0.74799   0.92326   0.02057   0.00000  Uiso   1.00
C618   C     0.92326   0.74799   0.97943   0.00000  Uiso   1.00
C619   C     0.57674   0.75201   0.02057   0.00000  Uiso   1.00
C620   C     0.91996   0.66996   0.25000   0.00000  Uiso   1.00
C621   C     0.58004   0.83004   0.75000   0.00000  Uiso   1.00
C622   C     0.83002   0.91998   0.25000   0.00000  Uiso   1.00
C623   C     0.66998   0.58002   0.75000   0.00000  Uiso   1.00
C624   C     0.58004   0.83004   0.25000   0.00000  Uiso   1.00
C625   C     0.91996   0.66996   0.75000   0.00000  Uiso   1.00
C626   C     0.66996   0.91996   0.75000   0.00000  Uiso   1.00
C627   C     0.83004   0.58004   0.25000   0.00000  Uiso   1.00
C628   C     0.91998   0.83002   0.75000   0.00000  Uiso   1.00
C629   C     0.75000   0.50000   0.64404   0.00000  Uiso   1.00
C630   C     0.58002   0.66998   0.25000   0.00000  Uiso   1.00
C631   C     0.83004   0.58004   0.75000   0.00000  Uiso   1.00
C632   C     0.66996   0.91996   0.25000   0.00000  Uiso   1.00
C633   C     0.58002   0.66998   0.75000   0.00000  Uiso   1.00
C634   C     0.91998   0.83002   0.25000   0.00000  Uiso   1.00
C635   C     0.63832   0.88832   0.25000   0.00000  Uiso   1.00
C636   C     0.86168   0.61168   0.75000   0.00000  Uiso   1.00
C637   C     0.61167   0.63833   0.25000   0.00000  Uiso   1.00
C638   C     0.88833   0.86167   0.75000   0.00000  Uiso   1.00
C639   C     0.86168   0.61168   0.25000   0.00000  Uiso   1.00
C640   C     0.50000   0.75000   0.35597   0.00000  Uiso   1.00
C641   C     0.63832   0.88832   0.75000   0.00000  Uiso   1.00
C642   C     0.88833   0.86167   0.25000   0.00000  Uiso   1.00
C643   C     0.61167   0.63833   0.75000   0.00000  Uiso   1.00
C644   C     0.63833   0.61167   0.75000   0.00000  Uiso   1.00
C645   C     0.86167   0.88833   0.25000   0.00000  Uiso   1.00
C646   C     0.61168   0.86168   0.75000   0.00000  Uiso   1.00
C647   C     0.88832   0.63832   0.25000   0.00000  Uiso   1.00
C648   C     0.86167   0.88833   0.75000   0.00000  Uiso   1.00
C649   C     0.63833   0.61167   0.25000   0.00000  Uiso   1.00
C650   C     0.88832   0.63832   0.75000   0.00000  Uiso   1.00
C651   C     0.50000   0.75000   0.64404   0.00000  Uiso   1.00
C652   C     0.61168   0.86168   0.25000   0.00000  Uiso   1.00
C653   C     0.98855   0.78663   0.41868   0.00000  Uiso   1.00
C654   C     0.51145   0.71337   0.58132   0.00000  Uiso   1.00
C655   C     0.71337   0.51145   0.41868   0.00000  Uiso   1.00
C656   C     0.78663   0.98855   0.58132   0.00000  Uiso   1.00
C657   C     0.51145   0.71337   0.41868   0.00000  Uiso   1.00
C658   C     0.98855   0.78663   0.58132   0.00000  Uiso   1.00
C659   C     0.78663   0.98855   0.41868   0.00000  Uiso   1.00
C660   C     0.71337   0.51145   0.58132   0.00000  Uiso   1.00
C661   C     0.73855   0.53663   0.91868   0.00000  Uiso   1.00
C662   C     0.50000   0.75000   0.85597   0.00000  Uiso   1.00
C663   C     0.76145   0.96337   0.08132   0.00000  Uiso   1.00
C664   C     0.96337   0.76145   0.91868   0.00000  Uiso   1.00
C665   C     0.53663   0.73855   0.08132   0.00000  Uiso   1.00
C666   C     0.76145   0.96337   0.91868   0.00000  Uiso   1.00
C667   C     0.73855   0.53663   0.08132   0.00000  Uiso   1.00
C668   C     0.53663   0.73855   0.91868   0.00000  Uiso   1.00
C669   C     0.96337   0.76145   0.08132   0.00000  Uiso   1.00
C670   C     0.50000   0.75000   0.39839   0.00000  Uiso   1.00
C671   C     0.50000   0.75000   0.60161   0.00000  Uiso   1.00
C672   C     0.75000   0.50000   0.39839   0.00000  Uiso   1.00
C673   C     0.50000   0.75000   0.14404   0.00000  Uiso   1.00
C674   C     0.75000   0.50000   0.60161   0.00000  Uiso   1.00
C675   C     0.75000   0.50000   0.89839   0.00000  Uiso   1.00
C676   C     0.75000   0.50000   0.10161   0.00000  Uiso   1.00
C677   C     0.50000   0.75000   0.89839   0.00000  Uiso   1.00
C678   C     0.50000   0.75000   0.10161   0.00000  Uiso   1.00
C679   C     0.50395   0.71154   0.45910   0.00000  Uiso   1.00
C680   C     0.99605   0.78846   0.54090   0.00000  Uiso   1.00
C681   C     0.78846   0.99605   0.45910   0.00000  Uiso   1.00
C682   C     0.71154   0.50395   0.54090   0.00000  Uiso   1.00
C683   C     0.99605   0.78846   0.45910   0.00000  Uiso   1.00
C684   C     0.75000   0.50000   0.85597   0.00000  Uiso   1.00
C685   C     0.50395   0.71154   0.54090   0.00000  Uiso   1.00
C686   C     0.71154   0.50395   0.45910   0.00000  Uiso   1.00
C687   C     0.78846   0.99605   0.54090   0.00000  Uiso   1.00
C688   C     0.75395   0.96154   0.95910   0.00000  Uiso   1.00
C689   C     0.74605   0.53846   0.04090   0.00000  Uiso   1.00
C690   C     0.53846   0.74605   0.95910   0.00000  Uiso   1.00
C691   C     0.96154   0.75395   0.04090   0.00000  Uiso   1.00
C692   C     0.74605   0.53846   0.95910   0.00000  Uiso   1.00
C693   C     0.75395   0.96154   0.04090   0.00000  Uiso   1.00
C694   C     0.96154   0.75395   0.95910   0.00000  Uiso   1.00
C695   C     0.75000   0.50000   0.14404   0.00000  Uiso   1.00
C696   C     0.53846   0.74605   0.04090   0.00000  Uiso   1.00
C697   C     0.50000   0.75000   0.47957   0.00000  Uiso   1.00
C698   C     0.50000   0.75000   0.52043   0.00000  Uiso   1.00
C699   C     0.75000   0.50000   0.47957   0.00000  Uiso   1.00
C700   C     0.75000   0.50000   0.52043   0.00000  Uiso   1.00
C701   C     0.75000   0.50000   0.97957   0.00000  Uiso   1.00
C702   C     0.75000   0.50000   0.02043   0.00000  Uiso   1.00
C703   C     0.50000   0.75000   0.97957   0.00000  Uiso   1.00
C704   C     0.50000   0.75000   0.02043   0.00000  Uiso   1.00
C705   C     0.99799   0.67326   0.47943   0.00000  Uiso   1.00
C706   C     0.66998   0.58002   0.25000   0.00000  Uiso   1.00
C707   C     0.50201   0.82674   0.52057   0.00000  Uiso   1.00
C708   C     0.82674   0.50201   0.47943   0.00000  Uiso   1.00
C709   C     0.67326   0.99799   0.52057   0.00000  Uiso   1.00
C710   C     0.50201   0.82674   0.47943   0.00000  Uiso   1.00
C711   C     0.99799   0.67326   0.52057   0.00000  Uiso   1.00
C712   C     0.67326   0.99799   0.47943   0.00000  Uiso   1.00
C713   C     0.82674   0.50201   0.52057   0.00000  Uiso   1.00
C714   C     0.74799   0.92326   0.97943   0.00000  Uiso   1.00
C715   C     0.75201   0.57674   0.02057   0.00000  Uiso   1.00
C716   C     0.57674   0.75201   0.97943   0.00000  Uiso   1.00
I717   I     0.95056   0.83290   0.38947   0.00000  Uiso   1.00
I718   I     0.79944   0.91710   0.11053   0.00000  Uiso   1.00
I719   I     0.91710   0.79944   0.88947   0.00000  Uiso   1.00
I720   I     0.58290   0.70056   0.11053   0.00000  Uiso   1.00
I721   I     0.79944   0.91710   0.88947   0.00000  Uiso   1.00
I722   I     0.70056   0.58290   0.11053   0.00000  Uiso   1.00
I723   I     0.58290   0.70056   0.88947   0.00000  Uiso   1.00
I724   I     0.91710   0.79944   0.11053   0.00000  Uiso   1.00
I725   I     0.97459   0.61889   0.44915   0.00000  Uiso   1.00
I726   I     0.52541   0.88111   0.55085   0.00000  Uiso   1.00
I727   I     0.88111   0.52541   0.44915   0.00000  Uiso   1.00
I728   I     0.54944   0.66710   0.61053   0.00000  Uiso   1.00
I729   I     0.61889   0.97459   0.55085   0.00000  Uiso   1.00
I730   I     0.52541   0.88111   0.44915   0.00000  Uiso   1.00
I731   I     0.97459   0.61889   0.55085   0.00000  Uiso   1.00
I732   I     0.61889   0.97459   0.44915   0.00000  Uiso   1.00
I733   I     0.88111   0.52541   0.55085   0.00000  Uiso   1.00
I734   I     0.72459   0.86889   0.94915   0.00000  Uiso   1.00
I735   I     0.77541   0.63111   0.05085   0.00000  Uiso   1.00
I736   I     0.63111   0.77541   0.94915   0.00000  Uiso   1.00
I737   I     0.86889   0.72459   0.05085   0.00000  Uiso   1.00
I738   I     0.77541   0.63111   0.94915   0.00000  Uiso   1.00
I739   I     0.66710   0.54944   0.38947   0.00000  Uiso   1.00
I740   I     0.72459   0.86889   0.05085   0.00000  Uiso   1.00
I741   I     0.86889   0.72459   0.94915   0.00000  Uiso   1.00
I742   I     0.63111   0.77541   0.05085   0.00000  Uiso   1.00
I743   I     0.83290   0.95056   0.61053   0.00000  Uiso   1.00
I744   I     0.54944   0.66710   0.38947   0.00000  Uiso   1.00
I745   I     0.95056   0.83290   0.61053   0.00000  Uiso   1.00
I746   I     0.83290   0.95056   0.38947   0.00000  Uiso   1.00
I747   I     0.66710   0.54944   0.61053   0.00000  Uiso   1.00
I748   I     0.70056   0.58290   0.88947   0.00000  Uiso   1.00
O749   O     0.75000   0.50000   0.25000   0.00000  Uiso   1.00
O750   O     0.75000   0.96539   0.66251   0.00000  Uiso   1.00
O751   O     0.96539   0.75000   0.33749   0.00000  Uiso   1.00
O752   O     0.53462   0.75000   0.66251   0.00000  Uiso   1.00
O753   O     0.50000   0.71539   0.83749   0.00000  Uiso   1.00
O754   O     0.50000   0.78462   0.16251   0.00000  Uiso   1.00
O755   O     0.78462   0.50000   0.83749   0.00000  Uiso   1.00
O756   O     0.71539   0.50000   0.16251   0.00000  Uiso   1.00
O757   O     0.50000   0.78462   0.83749   0.00000  Uiso   1.00
O758   O     0.50000   0.71539   0.16251   0.00000  Uiso   1.00
O759   O     0.71539   0.50000   0.83749   0.00000  Uiso   1.00
O760   O     0.75000   0.50000   0.75000   0.00000  Uiso   1.00
O761   O     0.78462   0.50000   0.16251   0.00000  Uiso   1.00
O762   O     0.70127   0.58332   0.27298   0.00000  Uiso   1.00
O763   O     0.79874   0.91668   0.72702   0.00000  Uiso   1.00
O764   O     0.91668   0.70127   0.27298   0.00000  Uiso   1.00
O765   O     0.58332   0.79874   0.72702   0.00000  Uiso   1.00
O766   O     0.79874   0.91668   0.27298   0.00000  Uiso   1.00
O767   O     0.70127   0.58332   0.72702   0.00000  Uiso   1.00
O768   O     0.58332   0.79874   0.27298   0.00000  Uiso   1.00
O769   O     0.91668   0.70127   0.72702   0.00000  Uiso   1.00
O770   O     0.70127   0.91668   0.72702   0.00000  Uiso   1.00
O771   O     0.50000   0.75000   0.25000   0.00000  Uiso   1.00
O772   O     0.79874   0.58332   0.27298   0.00000  Uiso   1.00
O773   O     0.91668   0.79874   0.72702   0.00000  Uiso   1.00
O774   O     0.58332   0.70127   0.27298   0.00000  Uiso   1.00
O775   O     0.79874   0.58332   0.72702   0.00000  Uiso   1.00
O776   O     0.70127   0.91668   0.27298   0.00000  Uiso   1.00
O777   O     0.58332   0.70127   0.72702   0.00000  Uiso   1.00
O778   O     0.91668   0.79874   0.27298   0.00000  Uiso   1.00
O779   O     0.95127   0.83332   0.77298   0.00000  Uiso   1.00
O780   O     0.54874   0.66668   0.22702   0.00000  Uiso   1.00
O781   O     0.66668   0.95127   0.77298   0.00000  Uiso   1.00
O782   O     0.50000   0.75000   0.75000   0.00000  Uiso   1.00
O783   O     0.83332   0.54873   0.22702   0.00000  Uiso   1.00
O784   O     0.54874   0.66668   0.77298   0.00000  Uiso   1.00
O785   O     0.95127   0.83332   0.22702   0.00000  Uiso   1.00
O786   O     0.83332   0.54873   0.77298   0.00000  Uiso   1.00
O787   O     0.66668   0.95127   0.22702   0.00000  Uiso   1.00
O788   O     0.95127   0.66668   0.22702   0.00000  Uiso   1.00
O789   O     0.54874   0.83332   0.77298   0.00000  Uiso   1.00
O790   O     0.66668   0.54874   0.22702   0.00000  Uiso   1.00
O791   O     0.83332   0.95127   0.77298   0.00000  Uiso   1.00
O792   O     0.54874   0.83332   0.22702   0.00000  Uiso   1.00
O793   O     0.75000   0.96539   0.33749   0.00000  Uiso   1.00
O794   O     0.95127   0.66668   0.77298   0.00000  Uiso   1.00
O795   O     0.83332   0.95127   0.22702   0.00000  Uiso   1.00
O796   O     0.66668   0.54874   0.77298   0.00000  Uiso   1.00
O797   O     0.75000   0.53461   0.66251   0.00000  Uiso   1.00
O798   O     0.53462   0.75000   0.33749   0.00000  Uiso   1.00
O799   O     0.96539   0.75000   0.66251   0.00000  Uiso   1.00
O800   O     0.75000   0.53461   0.33749   0.00000  Uiso   1.00
Zn801  Zn    0.70053   0.50000   0.21730   0.00000  Uiso   1.00
Zn802  Zn    0.54948   0.75000   0.28270   0.00000  Uiso   1.00
Zn803  Zn    0.75000   0.95053   0.71730   0.00000  Uiso   1.00
Zn804  Zn    0.75000   0.54947   0.28270   0.00000  Uiso   1.00
Zn805  Zn    0.54948   0.75000   0.71730   0.00000  Uiso   1.00
Zn806  Zn    0.95053   0.75000   0.28270   0.00000  Uiso   1.00
Zn807  Zn    0.75000   0.54947   0.71730   0.00000  Uiso   1.00
Zn808  Zn    0.75000   0.95053   0.28270   0.00000  Uiso   1.00
Zn809  Zn    0.79948   0.50000   0.78270   0.00000  Uiso   1.00
Zn810  Zn    0.50000   0.70053   0.21730   0.00000  Uiso   1.00
Zn811  Zn    0.50000   0.79948   0.78270   0.00000  Uiso   1.00
Zn812  Zn    0.79948   0.50000   0.21730   0.00000  Uiso   1.00
Zn813  Zn    0.70053   0.50000   0.78270   0.00000  Uiso   1.00
Zn814  Zn    0.50000   0.79948   0.21730   0.00000  Uiso   1.00
Zn815  Zn    0.50000   0.70053   0.78270   0.00000  Uiso   1.00
Zn816  Zn    0.95053   0.75000   0.71730   0.00000  Uiso   1.00
loop_
_geom_bond_atom_site_label_1
_geom_bond_atom_site_label_2
_geom_bond_distance
_geom_bond_site_symmetry_2
_ccdc_geom_bond_type
C1     O188    1.271   .     A
C1     C60     1.458   .     S
C1     O589    1.271   1_545 S
C2     O179    1.275   .     A
C2     C36     1.421   .     S
C2     O151    1.275   .     A
C3     I125    2.152   .     S
C3     C79     1.417   .     A
C3     C6      1.414   1_554 S
C4     C80     1.417   .     A
C4     I126    2.152   .     S
C4     C103    1.414   1_556 S
C5     C81     1.417   .     A
C5     I128    2.152   .     S
C5     C102    1.414   1_554 S
C6     C82     1.417   .     A
C6     I129    2.152   .     S
C6     C3      1.414   1_556 S
C7     I130    2.152   .     S
C7     C84     1.417   .     A
C7     C104    1.414   1_554 S
C8     O152    1.275   .     A
C8     O176    1.275   .     A
C8     C35     1.424   .     S
C9     O153    1.275   .     A
C9     C34     1.424   .     S
C9     O177    1.275   .     A
C10    O154    1.275   .     A
C10    O183    1.275   .     A
C10    C33     1.421   .     S
C11    O155    1.275   .     A
C11    C32     1.421   .     S
C11    O184    1.275   .     A
C12    O156    1.275   .     A
C12    C40     1.424   .     S
C12    O180    1.275   .     A
C13    C38     1.424   .     S
C13    O157    1.275   .     A
C13    O182    1.275   .     A
C14    O158    1.275   .     A
C14    O169    1.275   .     A
C14    C29     1.424   .     S
C15    C27     1.424   .     S
C15    O171    1.275   .     A
C15    O160    1.275   .     A
C16    O167    1.275   .     A
C16    C26     1.421   .     S
C16    O161    1.275   .     A
C17    O546    1.271   1_545 A
C17    C62     1.458   .     S
C17    O185    1.271   .     S
C18    C25     1.421   .     S
C18    O168    1.275   .     A
C18    O162    1.275   .     A
C19    O163    1.275   .     A
C19    C24     1.424   .     S
C19    O174    1.275   .     A
C20    O164    1.275   .     A
C20    C23     1.424   .     S
C20    O175    1.275   .     A
C21    O165    1.275   .     A
C21    C31     1.421   .     S
C21    O172    1.275   .     A
C22    O166    1.275   .     A
C22    O173    1.275   .     A
C22    C30     1.421   .     S
C23    C40     1.200   .     T
C24    C38     1.200   .     T
C25    C37     1.198   .     T
C26    C36     1.198   .     T
C27    C35     1.200   .     T
C28    O186    1.271   .     A
C28    C58     1.458   .     S
C28    O343    1.271   1_455 S
C29    C34     1.200   .     T
C30    C33     1.198   .     T
C31    C32     1.198   .     T
C37    C94     1.421   .     S
C39    O140    1.271   .     A
C39    C59     1.458   .     S
C39    O391    1.271   1_455 S
C41    C262    1.405   .     A
C41    C71     1.411   .     A
C41    I105    2.150   .     S
C42    C73     1.411   .     A
C42    I116    2.150   .     S
C42    C59     1.405   .     S
C43    C74     1.411   .     A
C43    I127    2.150   .     S
C43    C60     1.405   .     S
C44    I131    2.150   .     S
C44    C470    1.405   .     A
C44    C75     1.411   .     A
C45    C67     1.411   .     A
C45    I132    2.150   .     S
C45    C58     1.405   .     S
C46    C263    1.405   .     A
C46    C68     1.411   .     A
C46    I133    2.150   .     S
C47    C69     1.411   .     A
C47    C468    1.405   .     A
C47    I134    2.150   .     S
C48    C70     1.411   .     A
C48    I135    2.150   .     S
C48    C62     1.405   .     S
C49    I136    2.150   .     S
C49    C80     1.411   .     A
C49    C63     1.405   .     S
C50    O141    1.271   .     A
C50    C65     1.458   .     S
C50    O145    1.271   .     S
C51    C81     1.411   .     A
C51    I106    2.150   .     S
C51    C472    1.405   .     S
C52    I107    2.150   .     S
C52    C82     1.411   .     A
C52    C269    1.405   .     S
C53    C84     1.411   .     A
C53    C66     1.405   .     A
C53    I108    2.150   .     S
C54    I109    2.150   .     S
C54    C76     1.411   .     A
C54    C471    1.405   .     A
C55    C77     1.411   .     A
C55    C64     1.405   .     A
C55    I110    2.150   .     S
C56    C78     1.411   .     A
C56    I111    2.150   .     S
C56    C65     1.405   .     A
C57    C79     1.411   .     A
C57    I112    2.150   .     S
C57    C270    1.405   .     S
C58    C245    1.405   1_455 A
C59    C250    1.405   1_455 A
C60    C455    1.405   1_545 A
C61    C66     1.458   .     S
C61    O142    1.271   .     S
C61    O146    1.271   .     S
C62    C452    1.405   1_545 A
C63    C462    1.405   1_545 A
C63    C72     1.458   .     S
C64    C459    1.405   1_545 S
C64    C83     1.458   .     S
C65    C256    1.405   1_455 S
C66    C261    1.405   1_455 S
C67    C85     1.416   .     S
C67    C297    1.417   1_455 S
C68    C290    1.416   .     S
C68    C299    1.417   .     S
C69    C495    1.416   .     A
C69    C504    1.417   .     S
C70    C88     1.416   .     S
C70    C505    1.417   1_545 S
C71    C289    1.416   .     A
C71    C302    1.417   .     S
C72    O143    1.271   .     A
C72    O147    1.271   .     A
C73    C86     1.416   .     A
C73    C303    1.417   1_455 S
C74    C87     1.416   .     S
C74    C508    1.417   1_545 S
C75    C496    1.416   .     A
C75    C509    1.417   .     S
C76    C497    1.416   .     A
C76    C102    1.417   .     A
C77    C103    1.417   .     A
C77    C90     1.416   .     S
C78    C104    1.417   .     A
C78    C91     1.416   .     A
C79    C296    1.416   .     S
C80    C89     1.416   .     S
C81    C498    1.416   .     A
C82    C295    1.416   .     S
C83    O144    1.271   .     S
C83    O149    1.271   .     S
C84    C92     1.416   .     A
C85    C275    1.416   1_455 A
C85    C86     1.404   .     S
C86    C272    1.416   1_455 S
C87    C88     1.404   .     A
C87    C477    1.416   1_545 A
C88    C483    1.416   1_545 A
C89    C484    1.416   1_545 A
C89    C90     1.404   1_556 S
C90    C489    1.416   1_545 A
C90    C89     1.404   1_554 S
C91    C286    1.416   1_455 S
C91    C92     1.404   1_556 S
C92    C283    1.416   1_455 S
C92    C91     1.404   1_554 S
C93    C99     1.414   .     A
C93    I113    2.152   .     S
C93    C271    1.417   .     S
C94    O178    1.275   .     A
C94    O150    1.275   .     A
C95    C98     1.414   .     A
C95    I114    2.152   .     S
C95    C272    1.417   1_455 S
C96    I115    2.152   .     S
C96    C101    1.414   .     A
C96    C477    1.417   1_545 S
C97    C100    1.414   .     A
C97    I117    2.152   .     S
C97    C478    1.417   .     S
C98    I118    2.152   .     S
C98    C275    1.417   1_455 S
C99    I119    2.152   .     S
C99    C277    1.417   .     S
C100   I120    2.152   .     S
C100   C482    1.417   .     S
C101   I121    2.152   .     S
C101   C483    1.417   1_545 S
C102   I122    2.152   .     S
C102   C5      1.414   1_556 S
C103   I123    2.152   .     S
C103   C4      1.414   1_554 S
C104   I124    2.152   .     S
C104   C7      1.414   1_556 S
O137   Zn200   1.933   .     S
O137   Zn192   1.933   .     S
O137   Zn189   1.933   .     S
O137   Zn604   1.933   1_545 S
O138   Zn191   1.941   .     S
O138   C425    1.271   .     A
O139   Zn194   1.941   .     S
O139   C232    1.271   .     S
O140   Zn193   1.941   .     S
O141   Zn203   1.941   .     S
O142   Zn202   1.941   .     S
O143   Zn197   1.941   .     S
O144   Zn189   1.941   .     S
O145   Zn199   1.941   .     S
O146   Zn198   1.941   .     S
O147   Zn201   1.941   .     S
O148   Zn195   1.933   .     S
O148   Zn599   1.933   1_545 S
O148   Zn197   1.933   .     S
O148   Zn201   1.933   .     S
O149   Zn200   1.941   .     S
O150   Zn192   1.914   .     S
O151   Zn191   1.914   .     S
O152   Zn194   1.918   .     S
O153   Zn193   1.918   .     S
O154   Zn196   1.914   .     S
O155   Zn195   1.914   .     S
O156   Zn190   1.918   .     S
O157   Zn204   1.918   .     S
O158   Zn191   1.918   .     S
O159   Zn398   1.933   1_455 S
O159   Zn190   1.933   .     S
O159   Zn198   1.933   .     S
O159   Zn202   1.933   .     S
O160   Zn192   1.918   .     S
O161   Zn204   1.914   .     S
O162   Zn190   1.914   .     S
O163   Zn195   1.918   .     S
O164   Zn196   1.918   .     S
O165   Zn193   1.914   .     S
O166   Zn194   1.914   .     S
O167   Zn403   1.914   .     S
O168   Zn198   1.914   .     S
O169   Zn609   1.918   .     S
O170   Zn199   1.933   .     S
O170   Zn203   1.933   .     S
O170   Zn193   1.933   .     S
O170   Zn408   1.933   1_455 S
O171   Zn200   1.918   .     S
O172   Zn203   1.914   .     S
O173   Zn406   1.914   .     S
O174   Zn197   1.918   .     S
O175   Zn597   1.918   .     S
O176   Zn402   1.918   .     S
O177   Zn199   1.918   .     S
O178   Zn189   1.914   .     S
O179   Zn605   1.914   .     S
O180   Zn202   1.918   .     S
O181   Zn196   1.941   .     S
O181   C409    1.271   .     S
O182   Zn407   1.918   .     S
O183   Zn608   1.914   .     S
O184   Zn201   1.914   .     S
O185   Zn195   1.941   .     S
O186   Zn190   1.941   .     S
O187   Zn204   1.941   .     S
O187   C243    1.271   .     S
O188   Zn192   1.941   .     S
Zn189  O583    1.918   1_545 S
Zn191  O556    1.933   .     S
Zn194  O363    1.933   .     S
Zn196  O545    1.933   .     S
Zn197  O587    1.914   1_545 S
Zn198  O380    1.918   1_455 S
Zn199  O371    1.914   1_455 S
Zn200  O591    1.914   1_545 S
Zn201  O577    1.918   1_545 S
Zn202  O377    1.914   1_455 S
Zn203  O386    1.918   1_455 S
Zn204  O374    1.933   .     S
C205   O392    1.271   .     A
C205   C264    1.458   .     S
C205   O793    1.271   1_545 S
C206   O383    1.275   .     A
C206   C240    1.421   .     S
C206   O355    1.275   .     A
C207   I329    2.152   .     S
C207   C283    1.417   .     A
C207   C210    1.414   1_554 S
C208   C284    1.417   .     A
C208   I330    2.152   .     S
C208   C307    1.414   1_556 S
C209   C285    1.417   .     A
C209   I332    2.152   .     S
C209   C306    1.414   1_554 S
C210   C286    1.417   .     A
C210   I333    2.152   .     S
C210   C207    1.414   1_556 S
C211   I334    2.152   .     S
C211   C288    1.417   .     A
C211   C308    1.414   1_554 S
C212   O356    1.275   .     A
C212   O380    1.275   .     A
C212   C239    1.424   .     S
C213   O357    1.275   .     A
C213   C238    1.424   .     S
C213   O381    1.275   .     A
C214   O358    1.275   .     A
C214   O387    1.275   .     A
C214   C237    1.421   .     S
C215   O359    1.275   .     A
C215   C236    1.421   .     S
C215   O388    1.275   .     A
C216   O360    1.275   .     A
C216   C244    1.424   .     S
C216   O384    1.275   .     A
C217   C242    1.424   .     S
C217   O361    1.275   .     A
C217   O386    1.275   .     A
C218   O362    1.275   .     A
C218   O373    1.275   .     A
C218   C233    1.424   .     S
C219   C231    1.424   .     S
C219   O375    1.275   .     A
C219   O364    1.275   .     A
C220   O371    1.275   .     A
C220   C230    1.421   .     S
C220   O365    1.275   .     A
C221   O750    1.271   1_545 A
C221   C266    1.458   .     S
C221   O389    1.271   .     S
C222   C229    1.421   .     S
C222   O372    1.275   .     A
C222   O366    1.275   .     A
C223   O367    1.275   .     A
C223   C228    1.424   .     S
C223   O378    1.275   .     A
C224   O368    1.275   .     A
C224   C227    1.424   .     S
C224   O379    1.275   .     A
C225   O369    1.275   .     A
C225   C235    1.421   .     S
C225   O376    1.275   .     A
C226   O370    1.275   .     A
C226   O377    1.275   .     A
C226   C234    1.421   .     S
C227   C244    1.200   .     T
C228   C242    1.200   .     T
C229   C241    1.198   .     T
C230   C240    1.198   .     T
C231   C239    1.200   .     T
C232   O390    1.271   .     A
C232   C262    1.458   .     S
C233   C238    1.200   .     T
C234   C237    1.198   .     T
C235   C236    1.198   .     T
C241   C298    1.421   .     S
C243   O344    1.271   .     A
C243   C263    1.458   .     S
C245   C58     1.405   1_655 A
C245   C275    1.411   .     A
C245   I309    2.150   .     S
C246   C277    1.411   .     A
C246   I320    2.150   .     S
C246   C263    1.405   .     S
C247   C278    1.411   .     A
C247   I331    2.150   .     S
C247   C264    1.405   .     S
C248   I335    2.150   .     S
C248   C674    1.405   .     A
C248   C279    1.411   .     A
C249   C271    1.411   .     A
C249   I336    2.150   .     S
C249   C262    1.405   .     S
C250   C59     1.405   1_655 A
C250   C272    1.411   .     A
C250   I337    2.150   .     S
C251   C273    1.411   .     A
C251   C672    1.405   .     A
C251   I338    2.150   .     S
C252   C274    1.411   .     A
C252   I339    2.150   .     S
C252   C266    1.405   .     S
C253   I340    2.150   .     S
C253   C284    1.411   .     A
C253   C267    1.405   .     S
C254   O345    1.271   .     A
C254   C269    1.458   .     S
C254   O349    1.271   .     S
C255   C285    1.411   .     A
C255   I310    2.150   .     S
C255   C676    1.405   .     S
C256   I311    2.150   .     S
C256   C286    1.411   .     A
C256   C65     1.405   1_655 S
C257   C288    1.411   .     A
C257   C270    1.405   .     A
C257   I312    2.150   .     S
C258   I313    2.150   .     S
C258   C280    1.411   .     A
C258   C675    1.405   .     A
C259   C281    1.411   .     A
C259   C268    1.405   .     A
C259   I314    2.150   .     S
C260   C282    1.411   .     A
C260   I315    2.150   .     S
C260   C269    1.405   .     A
C261   C283    1.411   .     A
C261   I316    2.150   .     S
C261   C66     1.405   1_655 S
C264   C659    1.405   1_545 A
C265   C270    1.458   .     S
C265   O346    1.271   .     S
C265   O350    1.271   .     S
C266   C656    1.405   1_545 A
C267   C666    1.405   1_545 A
C267   C276    1.458   .     S
C268   C663    1.405   1_545 S
C268   C287    1.458   .     S
C271   C289    1.416   .     S
C272   C86     1.416   1_655 S
C272   C95     1.417   1_655 S
C273   C699    1.416   .     A
C273   C708    1.417   .     S
C274   C292    1.416   .     S
C274   C709    1.417   1_545 S
C275   C85     1.416   1_655 A
C275   C98     1.417   1_655 S
C276   O347    1.271   .     A
C276   O351    1.271   .     A
C277   C290    1.416   .     A
C278   C291    1.416   .     S
C278   C712    1.417   1_545 S
C279   C700    1.416   .     A
C279   C713    1.417   .     S
C280   C701    1.416   .     A
C280   C306    1.417   .     A
C281   C307    1.417   .     A
C281   C294    1.416   .     S
C282   C308    1.417   .     A
C282   C295    1.416   .     A
C283   C92     1.416   1_655 S
C284   C293    1.416   .     S
C285   C702    1.416   .     A
C286   C91     1.416   1_655 S
C287   O348    1.271   .     S
C287   O353    1.271   .     S
C288   C296    1.416   .     A
C289   C290    1.404   .     S
C291   C292    1.404   .     A
C291   C681    1.416   1_545 A
C292   C687    1.416   1_545 A
C293   C688    1.416   1_545 A
C293   C294    1.404   1_556 S
C294   C693    1.416   1_545 A
C294   C293    1.404   1_554 S
C295   C296    1.404   1_556 S
C296   C295    1.404   1_554 S
C297   C303    1.414   .     A
C297   I317    2.152   .     S
C297   C67     1.417   1_655 S
C298   O382    1.275   .     A
C298   O354    1.275   .     A
C299   C302    1.414   .     A
C299   I318    2.152   .     S
C300   I319    2.152   .     S
C300   C305    1.414   .     A
C300   C681    1.417   1_545 S
C301   C304    1.414   .     A
C301   I321    2.152   .     S
C301   C682    1.417   .     S
C302   I322    2.152   .     S
C303   I323    2.152   .     S
C303   C73     1.417   1_655 S
C304   I324    2.152   .     S
C304   C686    1.417   .     S
C305   I325    2.152   .     S
C305   C687    1.417   1_545 S
C306   I326    2.152   .     S
C306   C209    1.414   1_556 S
C307   I327    2.152   .     S
C307   C208    1.414   1_554 S
C308   I328    2.152   .     S
C308   C211    1.414   1_556 S
O341   Zn404   1.933   .     S
O341   Zn396   1.933   .     S
O341   Zn393   1.933   .     S
O341   Zn808   1.933   1_545 S
O342   Zn395   1.941   .     S
O342   C629    1.271   .     A
O343   Zn398   1.941   .     S
O343   C28     1.271   1_655 S
O344   Zn397   1.941   .     S
O345   Zn407   1.941   .     S
O346   Zn406   1.941   .     S
O347   Zn401   1.941   .     S
O348   Zn393   1.941   .     S
O349   Zn403   1.941   .     S
O350   Zn402   1.941   .     S
O351   Zn405   1.941   .     S
O352   Zn399   1.933   .     S
O352   Zn803   1.933   1_545 S
O352   Zn401   1.933   .     S
O352   Zn405   1.933   .     S
O353   Zn404   1.941   .     S
O354   Zn396   1.914   .     S
O355   Zn395   1.914   .     S
O356   Zn398   1.918   .     S
O357   Zn397   1.918   .     S
O358   Zn400   1.914   .     S
O359   Zn399   1.914   .     S
O360   Zn394   1.918   .     S
O361   Zn408   1.918   .     S
O362   Zn395   1.918   .     S
O363   Zn394   1.933   .     S
O363   Zn402   1.933   .     S
O363   Zn406   1.933   .     S
O364   Zn396   1.918   .     S
O365   Zn408   1.914   .     S
O366   Zn394   1.914   .     S
O367   Zn399   1.918   .     S
O368   Zn400   1.918   .     S
O369   Zn397   1.914   .     S
O370   Zn398   1.914   .     S
O371   Zn199   1.914   1_655 S
O372   Zn402   1.914   .     S
O373   Zn813   1.918   .     S
O374   Zn403   1.933   .     S
O374   Zn407   1.933   .     S
O374   Zn397   1.933   .     S
O375   Zn404   1.918   .     S
O376   Zn407   1.914   .     S
O377   Zn202   1.914   1_655 S
O378   Zn401   1.918   .     S
O379   Zn801   1.918   .     S
O380   Zn198   1.918   1_655 S
O381   Zn403   1.918   .     S
O382   Zn393   1.914   .     S
O383   Zn809   1.914   .     S
O384   Zn406   1.918   .     S
O385   Zn400   1.941   .     S
O385   C613    1.271   .     S
O386   Zn203   1.918   1_655 S
O387   Zn812   1.914   .     S
O388   Zn405   1.914   .     S
O389   Zn399   1.941   .     S
O390   Zn394   1.941   .     S
O391   Zn408   1.941   .     S
O391   C39     1.271   1_655 S
O392   Zn396   1.941   .     S
Zn393  O787    1.918   1_545 S
Zn395  O760    1.933   .     S
Zn398  O159    1.933   1_655 S
Zn400  O749    1.933   .     S
Zn401  O791    1.914   1_545 S
Zn404  O795    1.914   1_545 S
Zn405  O781    1.918   1_545 S
Zn408  O170    1.933   1_655 S
C409   O596    1.271   .     A
C409   C468    1.458   .     S
C410   O587    1.275   .     A
C410   C444    1.421   .     S
C410   O559    1.275   .     A
C411   I533    2.152   .     S
C411   C487    1.417   .     A
C411   C414    1.414   1_554 S
C412   C488    1.417   .     A
C412   I534    2.152   .     S
C412   C511    1.414   1_556 S
C413   C489    1.417   .     A
C413   I536    2.152   .     S
C413   C510    1.414   1_554 S
C414   C490    1.417   .     A
C414   I537    2.152   .     S
C414   C411    1.414   1_556 S
C415   I538    2.152   .     S
C415   C492    1.417   .     A
C415   C512    1.414   1_554 S
C416   O560    1.275   .     A
C416   O584    1.275   .     A
C416   C443    1.424   .     S
C417   O561    1.275   .     A
C417   C442    1.424   .     S
C417   O585    1.275   .     A
C418   O562    1.275   .     A
C418   O591    1.275   .     A
C418   C441    1.421   .     S
C419   O563    1.275   .     A
C419   C440    1.421   .     S
C419   O592    1.275   .     A
C420   O564    1.275   .     A
C420   C448    1.424   .     S
C420   O588    1.275   .     A
C421   C446    1.424   .     S
C421   O565    1.275   .     A
C421   O590    1.275   .     A
C422   O566    1.275   .     A
C422   O577    1.275   .     A
C422   C437    1.424   .     S
C423   C435    1.424   .     S
C423   O579    1.275   .     A
C423   O568    1.275   .     A
C424   O575    1.275   .     A
C424   C434    1.421   .     S
C424   O569    1.275   .     A
C425   C470    1.458   .     S
C425   O593    1.271   .     S
C426   C433    1.421   .     S
C426   O576    1.275   .     A
C426   O570    1.275   .     A
C427   O571    1.275   .     A
C427   C432    1.424   .     S
C427   O582    1.275   .     A
C428   O572    1.275   .     A
C428   C431    1.424   .     S
C428   O583    1.275   .     A
C429   O573    1.275   .     A
C429   C439    1.421   .     S
C429   O580    1.275   .     A
C430   O574    1.275   .     A
C430   O581    1.275   .     A
C430   C438    1.421   .     S
C431   C448    1.200   .     T
C432   C446    1.200   .     T
C433   C445    1.198   .     T
C434   C444    1.198   .     T
C435   C443    1.200   .     T
C436   O594    1.271   .     A
C436   C466    1.458   .     S
C436   O751    1.271   1_455 S
C437   C442    1.200   .     T
C438   C441    1.198   .     T
C439   C440    1.198   .     T
C445   C502    1.421   .     S
C447   O548    1.271   .     A
C447   C467    1.458   .     S
C447   O799    1.271   1_455 S
C449   C670    1.405   .     A
C449   C479    1.411   .     A
C449   I513    2.150   .     S
C450   C481    1.411   .     A
C450   I524    2.150   .     S
C450   C467    1.405   .     S
C451   C482    1.411   .     A
C451   I535    2.150   .     S
C451   C468    1.405   .     S
C452   I539    2.150   .     S
C452   C62     1.405   1_565 A
C452   C483    1.411   .     A
C453   C475    1.411   .     A
C453   I540    2.150   .     S
C453   C466    1.405   .     S
C454   C671    1.405   .     A
C454   C476    1.411   .     A
C454   I541    2.150   .     S
C455   C477    1.411   .     A
C455   C60     1.405   1_565 A
C455   I542    2.150   .     S
C456   C478    1.411   .     A
C456   I543    2.150   .     S
C456   C470    1.405   .     S
C457   I544    2.150   .     S
C457   C488    1.411   .     A
C457   C471    1.405   .     S
C458   O549    1.271   .     A
C458   C473    1.458   .     S
C458   O553    1.271   .     S
C459   C489    1.411   .     A
C459   I514    2.150   .     S
C459   C64     1.405   1_565 S
C460   I515    2.150   .     S
C460   C490    1.411   .     A
C460   C677    1.405   .     S
C461   C492    1.411   .     A
C461   C474    1.405   .     A
C461   I516    2.150   .     S
C462   I517    2.150   .     S
C462   C484    1.411   .     A
C462   C63     1.405   1_565 A
C463   C485    1.411   .     A
C463   C472    1.405   .     A
C463   I518    2.150   .     S
C464   C486    1.411   .     A
C464   I519    2.150   .     S
C464   C473    1.405   .     A
C465   C487    1.411   .     A
C465   I520    2.150   .     S
C465   C678    1.405   .     S
C466   C653    1.405   1_455 A
C467   C658    1.405   1_455 A
C469   C474    1.458   .     S
C469   O550    1.271   .     S
C469   O554    1.271   .     S
C471   C480    1.458   .     S
C472   C491    1.458   .     S
C473   C664    1.405   1_455 S
C474   C669    1.405   1_455 S
C475   C493    1.416   .     S
C475   C705    1.417   1_455 S
C476   C698    1.416   .     S
C476   C707    1.417   .     S
C477   C87     1.416   1_565 A
C477   C96     1.417   1_565 S
C478   C496    1.416   .     S
C479   C697    1.416   .     A
C479   C710    1.417   .     S
C480   O551    1.271   .     A
C480   O555    1.271   .     A
C481   C494    1.416   .     A
C481   C711    1.417   1_455 S
C482   C495    1.416   .     S
C483   C88     1.416   1_565 A
C483   C101    1.417   1_565 S
C484   C89     1.416   1_565 A
C484   C510    1.417   .     A
C485   C511    1.417   .     A
C485   C498    1.416   .     S
C486   C512    1.417   .     A
C486   C499    1.416   .     A
C487   C704    1.416   .     S
C488   C497    1.416   .     S
C489   C90     1.416   1_565 A
C490   C703    1.416   .     S
C491   O552    1.271   .     S
C491   O557    1.271   .     S
C492   C500    1.416   .     A
C493   C683    1.416   1_455 A
C493   C494    1.404   .     S
C494   C680    1.416   1_455 S
C495   C496    1.404   .     A
C497   C498    1.404   1_556 S
C498   C497    1.404   1_554 S
C499   C694    1.416   1_455 S
C499   C500    1.404   1_556 S
C500   C691    1.416   1_455 S
C500   C499    1.404   1_554 S
C501   C507    1.414   .     A
C501   I521    2.152   .     S
C501   C679    1.417   .     S
C502   O586    1.275   .     A
C502   O558    1.275   .     A
C503   C506    1.414   .     A
C503   I522    2.152   .     S
C503   C680    1.417   1_455 S
C504   I523    2.152   .     S
C504   C509    1.414   .     A
C505   C508    1.414   .     A
C505   I525    2.152   .     S
C505   C70     1.417   1_565 S
C506   I526    2.152   .     S
C506   C683    1.417   1_455 S
C507   I527    2.152   .     S
C507   C685    1.417   .     S
C508   I528    2.152   .     S
C508   C74     1.417   1_565 S
C509   I529    2.152   .     S
C510   I530    2.152   .     S
C510   C413    1.414   1_556 S
C511   I531    2.152   .     S
C511   C412    1.414   1_554 S
C512   I532    2.152   .     S
C512   C415    1.414   1_556 S
O545   Zn608   1.933   .     S
O545   Zn600   1.933   .     S
O545   Zn597   1.933   .     S
O546   Zn599   1.941   .     S
O546   C17     1.271   1_565 A
O547   Zn602   1.941   .     S
O547   C640    1.271   .     S
O548   Zn601   1.941   .     S
O549   Zn611   1.941   .     S
O550   Zn610   1.941   .     S
O551   Zn605   1.941   .     S
O552   Zn597   1.941   .     S
O553   Zn607   1.941   .     S
O554   Zn606   1.941   .     S
O555   Zn609   1.941   .     S
O556   Zn603   1.933   .     S
O556   Zn605   1.933   .     S
O556   Zn609   1.933   .     S
O557   Zn608   1.941   .     S
O558   Zn600   1.914   .     S
O559   Zn599   1.914   .     S
O560   Zn602   1.918   .     S
O561   Zn601   1.918   .     S
O562   Zn604   1.914   .     S
O563   Zn603   1.914   .     S
O564   Zn598   1.918   .     S
O565   Zn612   1.918   .     S
O566   Zn599   1.918   .     S
O567   Zn806   1.933   1_455 S
O567   Zn598   1.933   .     S
O567   Zn606   1.933   .     S
O567   Zn610   1.933   .     S
O568   Zn600   1.918   .     S
O569   Zn612   1.914   .     S
O570   Zn598   1.914   .     S
O571   Zn603   1.918   .     S
O572   Zn604   1.918   .     S
O573   Zn601   1.914   .     S
O574   Zn602   1.914   .     S
O575   Zn811   1.914   .     S
O576   Zn606   1.914   .     S
O577   Zn201   1.918   1_565 S
O578   Zn607   1.933   .     S
O578   Zn611   1.933   .     S
O578   Zn601   1.933   .     S
O578   Zn816   1.933   1_455 S
O579   Zn608   1.918   .     S
O580   Zn611   1.914   .     S
O581   Zn814   1.914   .     S
O582   Zn605   1.918   .     S
O583   Zn189   1.918   1_565 S
O584   Zn810   1.918   .     S
O585   Zn607   1.918   .     S
O586   Zn597   1.914   .     S
O587   Zn197   1.914   1_565 S
O588   Zn610   1.918   .     S
O589   Zn604   1.941   .     S
O589   C1      1.271   1_565 S
O590   Zn815   1.918   .     S
O591   Zn200   1.914   1_565 S
O592   Zn609   1.914   .     S
O593   Zn603   1.941   .     S
O594   Zn598   1.941   .     S
O595   Zn612   1.941   .     S
O595   C651    1.271   .     S
O596   Zn600   1.941   .     S
Zn599  O148    1.933   1_565 S
Zn602  O771    1.933   .     S
Zn604  O137    1.933   1_565 S
Zn606  O788    1.918   1_455 S
Zn607  O779    1.914   1_455 S
Zn610  O785    1.914   1_455 S
Zn611  O794    1.918   1_455 S
Zn612  O782    1.933   .     S
C613   O800    1.271   .     A
C613   C672    1.458   .     S
C614   O791    1.275   .     A
C614   C648    1.421   .     S
C614   O763    1.275   .     A
C615   I737    2.152   .     S
C615   C691    1.417   .     A
C615   C618    1.414   1_554 S
C616   C692    1.417   .     A
C616   I738    2.152   .     S
C616   C715    1.414   1_556 S
C617   C693    1.417   .     A
C617   I740    2.152   .     S
C617   C714    1.414   1_554 S
C618   C694    1.417   .     A
C618   I741    2.152   .     S
C618   C615    1.414   1_556 S
C619   I742    2.152   .     S
C619   C696    1.417   .     A
C619   C716    1.414   1_554 S
C620   O764    1.275   .     A
C620   O788    1.275   .     A
C620   C647    1.424   .     S
C621   O765    1.275   .     A
C621   C646    1.424   .     S
C621   O789    1.275   .     A
C622   O766    1.275   .     A
C622   O795    1.275   .     A
C622   C645    1.421   .     S
C623   O767    1.275   .     A
C623   C644    1.421   .     S
C623   O796    1.275   .     A
C624   O768    1.275   .     A
C624   C652    1.424   .     S
C624   O792    1.275   .     A
C625   C650    1.424   .     S
C625   O769    1.275   .     A
C625   O794    1.275   .     A
C626   O770    1.275   .     A
C626   O781    1.275   .     A
C626   C641    1.424   .     S
C627   C639    1.424   .     S
C627   O783    1.275   .     A
C627   O772    1.275   .     A
C628   O779    1.275   .     A
C628   C638    1.421   .     S
C628   O773    1.275   .     A
C629   C674    1.458   .     S
C629   O797    1.271   .     S
C630   C637    1.421   .     S
C630   O780    1.275   .     A
C630   O774    1.275   .     A
C631   O775    1.275   .     A
C631   C636    1.424   .     S
C631   O786    1.275   .     A
C632   O776    1.275   .     A
C632   C635    1.424   .     S
C632   O787    1.275   .     A
C633   O777    1.275   .     A
C633   C643    1.421   .     S
C633   O784    1.275   .     A
C634   O778    1.275   .     A
C634   O785    1.275   .     A
C634   C642    1.421   .     S
C635   C652    1.200   .     T
C636   C650    1.200   .     T
C637   C649    1.198   .     T
C638   C648    1.198   .     T
C639   C647    1.200   .     T
C640   O798    1.271   .     A
C640   C670    1.458   .     S
C641   C646    1.200   .     T
C642   C645    1.198   .     T
C643   C644    1.198   .     T
C649   C706    1.421   .     S
C651   O752    1.271   .     A
C651   C671    1.458   .     S
C653   C466    1.405   1_655 A
C653   C683    1.411   .     A
C653   I717    2.150   .     S
C654   C685    1.411   .     A
C654   I728    2.150   .     S
C654   C671    1.405   .     S
C655   C686    1.411   .     A
C655   I739    2.150   .     S
C655   C672    1.405   .     S
C656   I743    2.150   .     S
C656   C266    1.405   1_565 A
C656   C687    1.411   .     A
C657   C679    1.411   .     A
C657   I744    2.150   .     S
C657   C670    1.405   .     S
C658   C467    1.405   1_655 A
C658   C680    1.411   .     A
C658   I745    2.150   .     S
C659   C681    1.411   .     A
C659   C264    1.405   1_565 A
C659   I746    2.150   .     S
C660   C682    1.411   .     A
C660   I747    2.150   .     S
C660   C674    1.405   .     S
C661   I748    2.150   .     S
C661   C692    1.411   .     A
C661   C675    1.405   .     S
C662   O753    1.271   .     A
C662   C677    1.458   .     S
C662   O757    1.271   .     S
C663   C693    1.411   .     A
C663   I718    2.150   .     S
C663   C268    1.405   1_565 S
C664   I719    2.150   .     S
C664   C694    1.411   .     A
C664   C473    1.405   1_655 S
C665   C696    1.411   .     A
C665   C678    1.405   .     A
C665   I720    2.150   .     S
C666   I721    2.150   .     S
C666   C688    1.411   .     A
C666   C267    1.405   1_565 A
C667   C689    1.411   .     A
C667   C676    1.405   .     A
C667   I722    2.150   .     S
C668   C690    1.411   .     A
C668   I723    2.150   .     S
C668   C677    1.405   .     A
C669   C691    1.411   .     A
C669   I724    2.150   .     S
C669   C474    1.405   1_655 S
C673   C678    1.458   .     S
C673   O754    1.271   .     S
C673   O758    1.271   .     S
C675   C684    1.458   .     S
C676   C695    1.458   .     S
C679   C697    1.416   .     S
C680   C494    1.416   1_655 S
C680   C503    1.417   1_655 S
C681   C291    1.416   1_565 A
C681   C300    1.417   1_565 S
C682   C700    1.416   .     S
C683   C493    1.416   1_655 A
C683   C506    1.417   1_655 S
C684   O755    1.271   .     A
C684   O759    1.271   .     A
C685   C698    1.416   .     A
C686   C699    1.416   .     S
C687   C292    1.416   1_565 A
C687   C305    1.417   1_565 S
C688   C293    1.416   1_565 A
C688   C714    1.417   .     A
C689   C715    1.417   .     A
C689   C702    1.416   .     S
C690   C716    1.417   .     A
C690   C703    1.416   .     A
C691   C500    1.416   1_655 S
C692   C701    1.416   .     S
C693   C294    1.416   1_565 A
C694   C499    1.416   1_655 S
C695   O756    1.271   .     S
C695   O761    1.271   .     S
C696   C704    1.416   .     A
C697   C698    1.404   .     S
C699   C700    1.404   .     A
C701   C702    1.404   1_556 S
C702   C701    1.404   1_554 S
C703   C704    1.404   1_556 S
C704   C703    1.404   1_554 S
C705   C711    1.414   .     A
C705   I725    2.152   .     S
C705   C475    1.417   1_655 S
C706   O790    1.275   .     A
C706   O762    1.275   .     A
C707   C710    1.414   .     A
C707   I726    2.152   .     S
C708   I727    2.152   .     S
C708   C713    1.414   .     A
C709   C712    1.414   .     A
C709   I729    2.152   .     S
C709   C274    1.417   1_565 S
C710   I730    2.152   .     S
C711   I731    2.152   .     S
C711   C481    1.417   1_655 S
C712   I732    2.152   .     S
C712   C278    1.417   1_565 S
C713   I733    2.152   .     S
C714   I734    2.152   .     S
C714   C617    1.414   1_556 S
C715   I735    2.152   .     S
C715   C616    1.414   1_554 S
C716   I736    2.152   .     S
C716   C619    1.414   1_556 S
O749   Zn812   1.933   .     S
O749   Zn804   1.933   .     S
O749   Zn801   1.933   .     S
O750   Zn803   1.941   .     S
O750   C221    1.271   1_565 A
O751   Zn806   1.941   .     S
O751   C436    1.271   1_655 S
O752   Zn805   1.941   .     S
O753   Zn815   1.941   .     S
O754   Zn814   1.941   .     S
O755   Zn809   1.941   .     S
O756   Zn801   1.941   .     S
O757   Zn811   1.941   .     S
O758   Zn810   1.941   .     S
O759   Zn813   1.941   .     S
O760   Zn807   1.933   .     S
O760   Zn809   1.933   .     S
O760   Zn813   1.933   .     S
O761   Zn812   1.941   .     S
O762   Zn804   1.914   .     S
O763   Zn803   1.914   .     S
O764   Zn806   1.918   .     S
O765   Zn805   1.918   .     S
O766   Zn808   1.914   .     S
O767   Zn807   1.914   .     S
O768   Zn802   1.918   .     S
O769   Zn816   1.918   .     S
O770   Zn803   1.918   .     S
O771   Zn802   1.933   .     S
O771   Zn810   1.933   .     S
O771   Zn814   1.933   .     S
O772   Zn804   1.918   .     S
O773   Zn816   1.914   .     S
O774   Zn802   1.914   .     S
O775   Zn807   1.918   .     S
O776   Zn808   1.918   .     S
O777   Zn805   1.914   .     S
O778   Zn806   1.914   .     S
O779   Zn607   1.914   1_655 S
O780   Zn810   1.914   .     S
O781   Zn405   1.918   1_565 S
O782   Zn811   1.933   .     S
O782   Zn815   1.933   .     S
O782   Zn805   1.933   .     S
O783   Zn812   1.918   .     S
O784   Zn815   1.914   .     S
O785   Zn610   1.914   1_655 S
O786   Zn809   1.918   .     S
O787   Zn393   1.918   1_565 S
O788   Zn606   1.918   1_655 S
O789   Zn811   1.918   .     S
O790   Zn801   1.914   .     S
O791   Zn401   1.914   1_565 S
O792   Zn814   1.918   .     S
O793   Zn808   1.941   .     S
O793   C205    1.271   1_565 S
O794   Zn611   1.918   1_655 S
O795   Zn404   1.914   1_565 S
O796   Zn813   1.914   .     S
O797   Zn807   1.941   .     S
O798   Zn802   1.941   .     S
O799   Zn816   1.941   .     S
O799   C447    1.271   1_655 S
O800   Zn804   1.941   .     S
Zn803  O352    1.933   1_565 S
Zn806  O567    1.933   1_655 S
Zn808  O341    1.933   1_565 S
Zn816  O578    1.933   1_655 S
