data_str_m1_o1_o2_pcu_sym.28
_audit_creation_date              2020-01-03
_audit_creation_method            'Materials Studio'
_symmetry_space_group_name_H-M    'P1'
_symmetry_Int_Tables_number       1
_symmetry_cell_setting            triclinic
loop_
_symmetry_equiv_pos_as_xyz
  x,y,z
_cell_length_a                    36.6671
_cell_length_b                    36.6667
_cell_length_c                    34.5986
_cell_angle_alpha                 90.0003
_cell_angle_beta                  90.0005
_cell_angle_gamma                 90.0278
loop_
_atom_site_label
_atom_site_type_symbol
_atom_site_fract_x
_atom_site_fract_y
_atom_site_fract_z
_atom_site_U_iso_or_equiv
_atom_site_adp_type
_atom_site_occupancy
C1     C     0.21862   0.48992   0.04093   0.00000  Uiso   1.00
C2     C     0.03139   0.26006   0.45907   0.00000  Uiso   1.00
C3     C     0.34814   0.40186   0.75000   0.00000  Uiso   1.00
C4     C     0.40187   0.15187   0.25000   0.00000  Uiso   1.00
C5     C     0.09813   0.34813   0.75000   0.00000  Uiso   1.00
C6     C     0.34814   0.40186   0.25000   0.00000  Uiso   1.00
C7     C     0.15186   0.09814   0.75000   0.00000  Uiso   1.00
C8     C     0.09814   0.15186   0.75000   0.00000  Uiso   1.00
C9     C     0.40186   0.34814   0.25000   0.00000  Uiso   1.00
C10    C     0.15187   0.40187   0.75000   0.00000  Uiso   1.00
C11    C     0.34813   0.09813   0.25000   0.00000  Uiso   1.00
C12    C     0.40186   0.34814   0.75000   0.00000  Uiso   1.00
C13    C     0.22305   0.48085   0.54243   0.00000  Uiso   1.00
C14    C     0.09814   0.15186   0.25000   0.00000  Uiso   1.00
C15    C     0.34813   0.09813   0.75000   0.00000  Uiso   1.00
C16    C     0.15187   0.40187   0.25000   0.00000  Uiso   1.00
C17    C     0.25000  -0.00000   0.10197   0.00000  Uiso   1.00
C18    C     0.25000  -0.00000   0.89702   0.00000  Uiso   1.00
C19    C    -0.00000   0.25000   0.10197   0.00000  Uiso   1.00
C20    C    -0.00000   0.25000   0.89702   0.00000  Uiso   1.00
C21    C    -0.00000   0.25000   0.60298   0.00000  Uiso   1.00
C22    C     0.00000   0.25000   0.39803   0.00000  Uiso   1.00
C23    C     0.25000   0.00000   0.60298   0.00000  Uiso   1.00
C24    C     0.25978   0.03148   0.45908   0.00000  Uiso   1.00
C25    C     0.25000  -0.00000   0.39804   0.00000  Uiso   1.00
C26    C     0.18789   0.43781   0.11086   0.00000  Uiso   1.00
C27    C     0.26591   0.08491   0.88371   0.00000  Uiso   1.00
C28    C     0.43790   0.18778   0.11083   0.00000  Uiso   1.00
C29    C     0.08490   0.26597   0.88371   0.00000  Uiso   1.00
C30    C     0.31212   0.06218   0.11085   0.00000  Uiso   1.00
C31    C     0.23409   0.41508   0.88370   0.00000  Uiso   1.00
C32    C     0.06208   0.31224   0.11082   0.00000  Uiso   1.00
C33    C     0.41509   0.23403   0.88370   0.00000  Uiso   1.00
C34    C     0.48407   0.16509   0.61629   0.00000  Uiso   1.00
C35    C     0.01893   0.27711   0.54243   0.00000  Uiso   1.00
C36    C     0.06216   0.31215   0.38916   0.00000  Uiso   1.00
C37    C     0.16522   0.48338   0.61628   0.00000  Uiso   1.00
C38    C     0.31162   0.06277   0.38930   0.00000  Uiso   1.00
C39    C     0.01592   0.33491   0.61629   0.00000  Uiso   1.00
C40    C     0.43784   0.18785   0.38916   0.00000  Uiso   1.00
C41    C     0.33479   0.01662   0.61629   0.00000  Uiso   1.00
C42    C     0.18840   0.43719   0.38932   0.00000  Uiso   1.00
C43    C     0.46861   0.23994   0.45907   0.00000  Uiso   1.00
C44    C     0.27696   0.01915   0.54243   0.00000  Uiso   1.00
C45    C     0.24024   0.46852   0.45908   0.00000  Uiso   1.00
C46    C     0.21853   0.48881   0.08124   0.00000  Uiso   1.00
C47    C     0.26918   0.02730   0.91724   0.00000  Uiso   1.00
C48    C     0.48886   0.21852   0.08124   0.00000  Uiso   1.00
C49    C     0.26892   0.02711   0.95757   0.00000  Uiso   1.00
C50    C     0.02729   0.26920   0.91724   0.00000  Uiso   1.00
C51    C     0.28147   0.01118   0.08124   0.00000  Uiso   1.00
C52    C     0.23082   0.47270   0.91724   0.00000  Uiso   1.00
C53    C     0.01113   0.28149   0.08124   0.00000  Uiso   1.00
C54    C     0.47271   0.23080   0.91724   0.00000  Uiso   1.00
C55    C     0.48081   0.22270   0.58276   0.00000  Uiso   1.00
C56    C     0.03147   0.26117   0.41876   0.00000  Uiso   1.00
C57    C     0.22286   0.48059   0.58276   0.00000  Uiso   1.00
C58    C     0.26089   0.03157   0.41877   0.00000  Uiso   1.00
C59    C     0.01918   0.27730   0.58276   0.00000  Uiso   1.00
C60    C     0.48997   0.21860   0.04093   0.00000  Uiso   1.00
C61    C     0.46853   0.23883   0.41876   0.00000  Uiso   1.00
C62    C     0.27714   0.01941   0.58276   0.00000  Uiso   1.00
C63    C     0.23912   0.46842   0.41877   0.00000  Uiso   1.00
C64    C     0.25000  -0.00000   0.02056   0.00000  Uiso   1.00
C65    C     0.25000  -0.00000   0.97796   0.00000  Uiso   1.00
C66    C    -0.00000   0.25000   0.02056   0.00000  Uiso   1.00
C67    C    -0.00000   0.25000   0.97796   0.00000  Uiso   1.00
C68    C    -0.00000   0.25000   0.52204   0.00000  Uiso   1.00
C69    C    -0.00000   0.25000   0.47944   0.00000  Uiso   1.00
C70    C     0.25000   0.00000   0.52204   0.00000  Uiso   1.00
C71    C     0.02710   0.26894   0.95757   0.00000  Uiso   1.00
C72    C     0.25000   0.00000   0.47945   0.00000  Uiso   1.00
C73    C     0.25000   0.00000   0.35533   0.00000  Uiso   1.00
C74    C     0.25000   0.00000   0.64504   0.00000  Uiso   1.00
C75    C     0.00000   0.25000   0.35533   0.00000  Uiso   1.00
C76    C    -0.00000   0.25000   0.64504   0.00000  Uiso   1.00
C77    C     0.00000   0.25000   0.85496   0.00000  Uiso   1.00
C78    C    -0.00000   0.25000   0.14467   0.00000  Uiso   1.00
C79    C     0.25000   0.00000   0.85496   0.00000  Uiso   1.00
C80    C     0.25000  -0.00000   0.14467   0.00000  Uiso   1.00
C81    C     0.17993   0.07007   0.25000   0.00000  Uiso   1.00
C82    C     0.28138   0.01007   0.04093   0.00000  Uiso   1.00
C83    C     0.32007   0.42993   0.75000   0.00000  Uiso   1.00
C84    C     0.42993   0.17993   0.25000   0.00000  Uiso   1.00
C85    C     0.07007   0.32007   0.75000   0.00000  Uiso   1.00
C86    C     0.32007   0.42993   0.25000   0.00000  Uiso   1.00
C87    C     0.17993   0.07007   0.75000   0.00000  Uiso   1.00
C88    C     0.07007   0.32007   0.25000   0.00000  Uiso   1.00
C89    C     0.42993   0.17993   0.75000   0.00000  Uiso   1.00
C90    C     0.17993   0.42993   0.75000   0.00000  Uiso   1.00
C91    C     0.32007   0.07007   0.25000   0.00000  Uiso   1.00
C92    C     0.42993   0.32007   0.75000   0.00000  Uiso   1.00
C93    C     0.23108   0.47288   0.95757   0.00000  Uiso   1.00
C94    C     0.07007   0.17993   0.25000   0.00000  Uiso   1.00
C95    C     0.32007   0.07007   0.75000   0.00000  Uiso   1.00
C96    C     0.17993   0.42993   0.25000   0.00000  Uiso   1.00
C97    C     0.07007   0.17993   0.75000   0.00000  Uiso   1.00
C98    C     0.42993   0.32007   0.25000   0.00000  Uiso   1.00
C99    C     0.12366   0.40308   0.22269   0.00000  Uiso   1.00
C100   C     0.37740   0.09586   0.77595   0.00000  Uiso   1.00
C101   C     0.09515   0.12188   0.22507   0.00000  Uiso   1.00
C102   C     0.40479   0.37807   0.77501   0.00000  Uiso   1.00
C103   C     0.37634   0.09692   0.22269   0.00000  Uiso   1.00
C104   C     0.01002   0.28140   0.04093   0.00000  Uiso   1.00
C105   C     0.12260   0.40414   0.77595   0.00000  Uiso   1.00
C106   C     0.40485   0.37812   0.22507   0.00000  Uiso   1.00
C107   C     0.09521   0.12193   0.77501   0.00000  Uiso   1.00
C108   C     0.12193   0.09521   0.77501   0.00000  Uiso   1.00
C109   C     0.37812   0.40485   0.22507   0.00000  Uiso   1.00
C110   C     0.09586   0.37740   0.77595   0.00000  Uiso   1.00
C111   C     0.40308   0.12366   0.22269   0.00000  Uiso   1.00
C112   C     0.37807   0.40479   0.77501   0.00000  Uiso   1.00
C113   C     0.12188   0.09515   0.22507   0.00000  Uiso   1.00
C114   C     0.40414   0.12260   0.77595   0.00000  Uiso   1.00
C115   C     0.47290   0.23106   0.95757   0.00000  Uiso   1.00
C116   C     0.09692   0.37634   0.22269   0.00000  Uiso   1.00
C117   C     0.37260   0.15413   0.72405   0.00000  Uiso   1.00
C118   C     0.12635   0.34692   0.27731   0.00000  Uiso   1.00
C119   C     0.34520   0.37193   0.72499   0.00000  Uiso   1.00
C120   C     0.15485   0.12812   0.27493   0.00000  Uiso   1.00
C121   C     0.12740   0.34587   0.72405   0.00000  Uiso   1.00
C122   C     0.37365   0.15308   0.27731   0.00000  Uiso   1.00
C123   C     0.15479   0.12807   0.72499   0.00000  Uiso   1.00
C124   C     0.34515   0.37188   0.27493   0.00000  Uiso   1.00
C125   C     0.37188   0.34515   0.27493   0.00000  Uiso   1.00
C126   C     0.48107   0.22289   0.54243   0.00000  Uiso   1.00
C127   C     0.12807   0.15480   0.72499   0.00000  Uiso   1.00
C128   C     0.34692   0.12635   0.27731   0.00000  Uiso   1.00
C129   C     0.15413   0.37260   0.72405   0.00000  Uiso   1.00
C130   C     0.12812   0.15485   0.27493   0.00000  Uiso   1.00
C131   C     0.37193   0.34521   0.72499   0.00000  Uiso   1.00
C132   C     0.15308   0.37365   0.27731   0.00000  Uiso   1.00
C133   C     0.34587   0.12740   0.72405   0.00000  Uiso   1.00
C134   C     0.09813   0.34813   0.25000   0.00000  Uiso   1.00
C135   C     0.40187   0.15187   0.75000   0.00000  Uiso   1.00
C136   C     0.15186   0.09814   0.25000   0.00000  Uiso   1.00
H137   H     0.19399   0.48248   0.02554   0.00000  Uiso   1.00
H138   H     0.05602   0.26750   0.47446   0.00000  Uiso   1.00
H139   H     0.49386   0.32470   0.63544   0.00000  Uiso   1.00
H140   H     0.41265   0.23287   0.41324   0.00000  Uiso   1.00
H141   H     0.43855   0.17072   0.41565   0.00000  Uiso   1.00
H142   H     0.46222   0.18187   0.37117   0.00000  Uiso   1.00
H143   H     0.41316   0.18073   0.37216   0.00000  Uiso   1.00
H144   H     0.31394   0.06184   0.58830   0.00000  Uiso   1.00
H145   H     0.34952   0.00449   0.59133   0.00000  Uiso   1.00
H146   H     0.32475   0.49448   0.63544   0.00000  Uiso   1.00
H147   H     0.35412   0.03370   0.63311   0.00000  Uiso   1.00
H148   H     0.23378   0.41249   0.41323   0.00000  Uiso   1.00
H149   H     0.20151   0.46672   0.52710   0.00000  Uiso   1.00
H150   H     0.17134   0.43766   0.41587   0.00000  Uiso   1.00
H151   H     0.18151   0.41245   0.37231   0.00000  Uiso   1.00
H152   H     0.18209   0.46152   0.37139   0.00000  Uiso   1.00
H153   H     0.26699   0.05617   0.47447   0.00000  Uiso   1.00
H154   H     0.03288   0.29877   0.52711   0.00000  Uiso   1.00
H155   H     0.44398   0.23251   0.47446   0.00000  Uiso   1.00
H156   H     0.29850   0.03329   0.52711   0.00000  Uiso   1.00
H157   H     0.23303   0.44383   0.47448   0.00000  Uiso   1.00
H158   H     0.12228   0.42457   0.20126   0.00000  Uiso   1.00
H159   H     0.37965   0.07351   0.79627   0.00000  Uiso   1.00
H160   H     0.07222   0.11903   0.20556   0.00000  Uiso   1.00
H161   H     0.28287   0.04877   0.97289   0.00000  Uiso   1.00
H162   H     0.42768   0.38087   0.79458   0.00000  Uiso   1.00
H163   H     0.37771   0.07543   0.20126   0.00000  Uiso   1.00
H164   H     0.12035   0.42649   0.79627   0.00000  Uiso   1.00
H165   H     0.42778   0.38097   0.20557   0.00000  Uiso   1.00
H166   H     0.07232   0.11913   0.79458   0.00000  Uiso   1.00
H167   H     0.11913   0.07232   0.79458   0.00000  Uiso   1.00
H168   H     0.38097   0.42778   0.20557   0.00000  Uiso   1.00
H169   H     0.07351   0.37965   0.79627   0.00000  Uiso   1.00
H170   H     0.42457   0.12228   0.20126   0.00000  Uiso   1.00
H171   H     0.38087   0.42769   0.79458   0.00000  Uiso   1.00
H172   H     0.48255   0.19397   0.02554   0.00000  Uiso   1.00
H173   H     0.11903   0.07222   0.20556   0.00000  Uiso   1.00
H174   H     0.42649   0.12035   0.79627   0.00000  Uiso   1.00
H175   H     0.07543   0.37772   0.20126   0.00000  Uiso   1.00
H176   H     0.37035   0.17649   0.70372   0.00000  Uiso   1.00
H177   H     0.12772   0.32542   0.29874   0.00000  Uiso   1.00
H178   H     0.32231   0.36913   0.70542   0.00000  Uiso   1.00
H179   H     0.17778   0.13097   0.29443   0.00000  Uiso   1.00
H180   H     0.12965   0.32351   0.70372   0.00000  Uiso   1.00
H181   H     0.37228   0.17457   0.29874   0.00000  Uiso   1.00
H182   H     0.17768   0.13087   0.70542   0.00000  Uiso   1.00
H183   H     0.04874   0.28291   0.97289   0.00000  Uiso   1.00
H184   H     0.32222   0.36903   0.29443   0.00000  Uiso   1.00
H185   H     0.36903   0.32222   0.29443   0.00000  Uiso   1.00
H186   H     0.13087   0.17769   0.70542   0.00000  Uiso   1.00
H187   H     0.32543   0.12772   0.29874   0.00000  Uiso   1.00
H188   H     0.17648   0.37035   0.70372   0.00000  Uiso   1.00
H189   H     0.13097   0.17778   0.29443   0.00000  Uiso   1.00
H190   H     0.36913   0.32231   0.70542   0.00000  Uiso   1.00
H191   H     0.17458   0.37228   0.29874   0.00000  Uiso   1.00
H192   H     0.32351   0.12965   0.70372   0.00000  Uiso   1.00
H193   H     0.16266   0.48280   0.08676   0.00000  Uiso   1.00
H194   H     0.30601   0.01752   0.02554   0.00000  Uiso   1.00
H195   H     0.18862   0.42067   0.08437   0.00000  Uiso   1.00
H196   H     0.16321   0.43067   0.12785   0.00000  Uiso   1.00
H197   H     0.21227   0.43186   0.12885   0.00000  Uiso   1.00
H198   H     0.31130   0.06445   0.91170   0.00000  Uiso   1.00
H199   H     0.25367   0.09955   0.90867   0.00000  Uiso   1.00
H200   H     0.24385   0.07470   0.86456   0.00000  Uiso   1.00
H201   H     0.28284   0.10439   0.86690   0.00000  Uiso   1.00
H202   H     0.48295   0.16263   0.08676   0.00000  Uiso   1.00
H203   H     0.42077   0.18847   0.08433   0.00000  Uiso   1.00
H204   H     0.43189   0.21215   0.12882   0.00000  Uiso   1.00
H205   H     0.21712   0.45122   0.97289   0.00000  Uiso   1.00
H206   H     0.43080   0.16309   0.12783   0.00000  Uiso   1.00
H207   H     0.06440   0.31135   0.91170   0.00000  Uiso   1.00
H208   H     0.09954   0.25374   0.90867   0.00000  Uiso   1.00
H209   H     0.10437   0.28291   0.86690   0.00000  Uiso   1.00
H210   H     0.07471   0.24391   0.86456   0.00000  Uiso   1.00
H211   H     0.33734   0.01717   0.08676   0.00000  Uiso   1.00
H212   H     0.31140   0.07931   0.08436   0.00000  Uiso   1.00
H213   H     0.33680   0.06931   0.12785   0.00000  Uiso   1.00
H214   H     0.28775   0.06814   0.12884   0.00000  Uiso   1.00
H215   H     0.18869   0.43555   0.91169   0.00000  Uiso   1.00
H216   H     0.01744   0.30603   0.02554   0.00000  Uiso   1.00
H217   H     0.24633   0.40045   0.90866   0.00000  Uiso   1.00
H218   H     0.25615   0.42530   0.86456   0.00000  Uiso   1.00
H219   H     0.21716   0.39561   0.86689   0.00000  Uiso   1.00
H220   H     0.01701   0.33737   0.08676   0.00000  Uiso   1.00
H221   H     0.07920   0.31157   0.08431   0.00000  Uiso   1.00
H222   H     0.06811   0.28787   0.12879   0.00000  Uiso   1.00
H223   H     0.06917   0.33694   0.12782   0.00000  Uiso   1.00
H224   H     0.43559   0.18865   0.91169   0.00000  Uiso   1.00
H225   H     0.40045   0.24626   0.90867   0.00000  Uiso   1.00
H226   H     0.39563   0.21709   0.86689   0.00000  Uiso   1.00
H227   H     0.45125   0.21708   0.97289   0.00000  Uiso   1.00
H228   H     0.42529   0.25609   0.86456   0.00000  Uiso   1.00
H229   H     0.43868   0.18556   0.58830   0.00000  Uiso   1.00
H230   H     0.49632   0.15045   0.59133   0.00000  Uiso   1.00
H231   H     0.46715   0.14561   0.63310   0.00000  Uiso   1.00
H232   H     0.00613   0.17529   0.63544   0.00000  Uiso   1.00
H233   H     0.08735   0.26713   0.41324   0.00000  Uiso   1.00
H234   H     0.06145   0.32928   0.41566   0.00000  Uiso   1.00
H235   H     0.03778   0.31813   0.37117   0.00000  Uiso   1.00
H236   H     0.08685   0.31927   0.37216   0.00000  Uiso   1.00
H237   H     0.18606   0.43816   0.58829   0.00000  Uiso   1.00
H238   H     0.46712   0.20123   0.52711   0.00000  Uiso   1.00
H239   H     0.15048   0.49551   0.59132   0.00000  Uiso   1.00
H240   H     0.17525   0.00553   0.63543   0.00000  Uiso   1.00
H241   H     0.14588   0.46630   0.63309   0.00000  Uiso   1.00
H242   H     0.26628   0.08750   0.41324   0.00000  Uiso   1.00
H243   H     0.32869   0.06227   0.41584   0.00000  Uiso   1.00
H244   H     0.31852   0.08751   0.37229   0.00000  Uiso   1.00
H245   H     0.31790   0.03844   0.37135   0.00000  Uiso   1.00
H246   H     0.06131   0.31444   0.58831   0.00000  Uiso   1.00
H247   H     0.00368   0.34955   0.59133   0.00000  Uiso   1.00
H248   H     0.03285   0.35439   0.63311   0.00000  Uiso   1.00
N249   N     0.18668   0.47604   0.10054   0.00000  Uiso   1.00
N250   N     0.06334   0.27392   0.39946   0.00000  Uiso   1.00
N251   N     0.19512   0.46102   0.60281   0.00000  Uiso   1.00
N252   N     0.27335   0.06356   0.39948   0.00000  Uiso   1.00
N253   N     0.03853   0.30519   0.60282   0.00000  Uiso   1.00
N254   N     0.43666   0.22608   0.39946   0.00000  Uiso   1.00
N255   N     0.30488   0.03898   0.60281   0.00000  Uiso   1.00
N256   N     0.22668   0.43644   0.39949   0.00000  Uiso   1.00
N257   N     0.28852   0.05519   0.89718   0.00000  Uiso   1.00
N258   N     0.47614   0.18664   0.10054   0.00000  Uiso   1.00
N259   N     0.05516   0.28856   0.89719   0.00000  Uiso   1.00
N260   N     0.31332   0.02395   0.10054   0.00000  Uiso   1.00
N261   N     0.21148   0.44481   0.89718   0.00000  Uiso   1.00
N262   N     0.02384   0.31337   0.10054   0.00000  Uiso   1.00
N263   N     0.44483   0.21144   0.89718   0.00000  Uiso   1.00
N264   N     0.46147   0.19481   0.60282   0.00000  Uiso   1.00
O265   O     0.25000  -0.00000   0.25000   0.00000  Uiso   1.00
O266   O     0.25000   0.46964   0.66317   0.00000  Uiso   1.00
O267   O     0.46964   0.25000   0.33683   0.00000  Uiso   1.00
O268   O     0.03036   0.25000   0.66317   0.00000  Uiso   1.00
O269   O     0.00000   0.21964   0.83683   0.00000  Uiso   1.00
O270   O     0.00000   0.28036   0.16317   0.00000  Uiso   1.00
O271   O     0.28036  -0.00000   0.83683   0.00000  Uiso   1.00
O272   O     0.21964  -0.00000   0.16317   0.00000  Uiso   1.00
O273   O    -0.00000   0.28036   0.83683   0.00000  Uiso   1.00
O274   O     0.00000   0.21964   0.16317   0.00000  Uiso   1.00
O275   O     0.21964  -0.00000   0.83683   0.00000  Uiso   1.00
O276   O     0.25000  -0.00000   0.75000   0.00000  Uiso   1.00
O277   O     0.28036  -0.00000   0.16317   0.00000  Uiso   1.00
O278   O     0.20725   0.07307   0.27282   0.00000  Uiso   1.00
O279   O     0.29274   0.42693   0.72718   0.00000  Uiso   1.00
O280   O     0.42693   0.20725   0.27282   0.00000  Uiso   1.00
O281   O     0.07307   0.29275   0.72718   0.00000  Uiso   1.00
O282   O     0.29274   0.42693   0.27282   0.00000  Uiso   1.00
O283   O     0.20725   0.07307   0.72718   0.00000  Uiso   1.00
O284   O     0.07307   0.29275   0.27282   0.00000  Uiso   1.00
O285   O     0.42693   0.20725   0.72718   0.00000  Uiso   1.00
O286   O     0.20725   0.42693   0.72718   0.00000  Uiso   1.00
O287   O     0.00000   0.25000   0.25000   0.00000  Uiso   1.00
O288   O     0.29274   0.07307   0.27282   0.00000  Uiso   1.00
O289   O     0.42693   0.29275   0.72718   0.00000  Uiso   1.00
O290   O     0.07307   0.20726   0.27282   0.00000  Uiso   1.00
O291   O     0.29274   0.07307   0.72718   0.00000  Uiso   1.00
O292   O     0.20725   0.42693   0.27282   0.00000  Uiso   1.00
O293   O     0.07307   0.20726   0.72718   0.00000  Uiso   1.00
O294   O     0.42693   0.29275   0.27282   0.00000  Uiso   1.00
O295   O     0.45725   0.32307   0.77282   0.00000  Uiso   1.00
O296   O     0.04274   0.17693   0.22718   0.00000  Uiso   1.00
O297   O     0.17693   0.45726   0.77282   0.00000  Uiso   1.00
O298   O     0.00000   0.25000   0.75000   0.00000  Uiso   1.00
O299   O     0.32307   0.04274   0.22718   0.00000  Uiso   1.00
O300   O     0.04274   0.17693   0.77282   0.00000  Uiso   1.00
O301   O     0.45725   0.32307   0.22718   0.00000  Uiso   1.00
O302   O     0.32307   0.04274   0.77282   0.00000  Uiso   1.00
O303   O     0.17693   0.45726   0.22718   0.00000  Uiso   1.00
O304   O     0.45725   0.17693   0.22718   0.00000  Uiso   1.00
O305   O     0.04274   0.32307   0.77282   0.00000  Uiso   1.00
O306   O     0.17693   0.04274   0.22718   0.00000  Uiso   1.00
O307   O     0.32307   0.45726   0.77282   0.00000  Uiso   1.00
O308   O     0.04274   0.32307   0.22718   0.00000  Uiso   1.00
O309   O     0.25000   0.46964   0.33683   0.00000  Uiso   1.00
O310   O     0.45725   0.17693   0.77282   0.00000  Uiso   1.00
O311   O     0.32307   0.45726   0.22718   0.00000  Uiso   1.00
O312   O     0.17693   0.04274   0.77282   0.00000  Uiso   1.00
O313   O     0.25000   0.03036   0.66317   0.00000  Uiso   1.00
O314   O     0.03036   0.25000   0.33683   0.00000  Uiso   1.00
O315   O     0.46964   0.25000   0.66317   0.00000  Uiso   1.00
O316   O     0.25000   0.03036   0.33683   0.00000  Uiso   1.00
Zn317  Zn    0.20660  -0.00000   0.21760   0.00000  Uiso   1.00
Zn318  Zn    0.04340   0.25000   0.28240   0.00000  Uiso   1.00
Zn319  Zn    0.25000   0.45660   0.71760   0.00000  Uiso   1.00
Zn320  Zn    0.25000   0.04340   0.28240   0.00000  Uiso   1.00
Zn321  Zn    0.04340   0.25000   0.71760   0.00000  Uiso   1.00
Zn322  Zn    0.45660   0.25000   0.28240   0.00000  Uiso   1.00
Zn323  Zn    0.25000   0.04340   0.71760   0.00000  Uiso   1.00
Zn324  Zn    0.25000   0.45660   0.28240   0.00000  Uiso   1.00
Zn325  Zn    0.29340  -0.00000   0.78240   0.00000  Uiso   1.00
Zn326  Zn   -0.00000   0.20660   0.21760   0.00000  Uiso   1.00
Zn327  Zn   -0.00000   0.29340   0.78240   0.00000  Uiso   1.00
Zn328  Zn    0.29340  -0.00000   0.21760   0.00000  Uiso   1.00
Zn329  Zn    0.20660  -0.00000   0.78240   0.00000  Uiso   1.00
Zn330  Zn   -0.00000   0.29340   0.21760   0.00000  Uiso   1.00
Zn331  Zn   -0.00000   0.20660   0.78240   0.00000  Uiso   1.00
Zn332  Zn    0.45660   0.25000   0.71760   0.00000  Uiso   1.00
C333   C     0.71862   0.48992   0.04093   0.00000  Uiso   1.00
C334   C     0.53139   0.26006   0.45907   0.00000  Uiso   1.00
C335   C     0.84814   0.40186   0.75000   0.00000  Uiso   1.00
C336   C     0.90187   0.15187   0.25000   0.00000  Uiso   1.00
C337   C     0.59813   0.34813   0.75000   0.00000  Uiso   1.00
C338   C     0.84814   0.40186   0.25000   0.00000  Uiso   1.00
C339   C     0.65186   0.09814   0.75000   0.00000  Uiso   1.00
C340   C     0.59814   0.15186   0.75000   0.00000  Uiso   1.00
C341   C     0.90186   0.34814   0.25000   0.00000  Uiso   1.00
C342   C     0.65187   0.40187   0.75000   0.00000  Uiso   1.00
C343   C     0.84813   0.09813   0.25000   0.00000  Uiso   1.00
C344   C     0.90186   0.34814   0.75000   0.00000  Uiso   1.00
C345   C     0.72305   0.48085   0.54243   0.00000  Uiso   1.00
C346   C     0.59814   0.15186   0.25000   0.00000  Uiso   1.00
C347   C     0.84813   0.09813   0.75000   0.00000  Uiso   1.00
C348   C     0.65187   0.40187   0.25000   0.00000  Uiso   1.00
C349   C     0.75000  -0.00000   0.10197   0.00000  Uiso   1.00
C350   C     0.75000  -0.00000   0.89702   0.00000  Uiso   1.00
C351   C     0.50000   0.25000   0.10197   0.00000  Uiso   1.00
C352   C     0.50000   0.25000   0.89702   0.00000  Uiso   1.00
C353   C     0.50000   0.25000   0.60298   0.00000  Uiso   1.00
C354   C     0.50000   0.25000   0.39803   0.00000  Uiso   1.00
C355   C     0.75000   0.00000   0.60298   0.00000  Uiso   1.00
C356   C     0.75978   0.03148   0.45908   0.00000  Uiso   1.00
C357   C     0.75000  -0.00000   0.39804   0.00000  Uiso   1.00
C358   C     0.68789   0.43781   0.11086   0.00000  Uiso   1.00
C359   C     0.76591   0.08491   0.88371   0.00000  Uiso   1.00
C360   C     0.93790   0.18778   0.11083   0.00000  Uiso   1.00
C361   C     0.58490   0.26597   0.88371   0.00000  Uiso   1.00
C362   C     0.81212   0.06218   0.11085   0.00000  Uiso   1.00
C363   C     0.73409   0.41508   0.88370   0.00000  Uiso   1.00
C364   C     0.56208   0.31224   0.11082   0.00000  Uiso   1.00
C365   C     0.91509   0.23403   0.88370   0.00000  Uiso   1.00
C366   C     0.98407   0.16509   0.61629   0.00000  Uiso   1.00
C367   C     0.51893   0.27711   0.54243   0.00000  Uiso   1.00
C368   C     0.56216   0.31215   0.38916   0.00000  Uiso   1.00
C369   C     0.66522   0.48338   0.61628   0.00000  Uiso   1.00
C370   C     0.81162   0.06277   0.38930   0.00000  Uiso   1.00
C371   C     0.51592   0.33491   0.61629   0.00000  Uiso   1.00
C372   C     0.93784   0.18785   0.38916   0.00000  Uiso   1.00
C373   C     0.83479   0.01662   0.61629   0.00000  Uiso   1.00
C374   C     0.68840   0.43719   0.38932   0.00000  Uiso   1.00
C375   C     0.96861   0.23994   0.45907   0.00000  Uiso   1.00
C376   C     0.77696   0.01915   0.54243   0.00000  Uiso   1.00
C377   C     0.74024   0.46852   0.45908   0.00000  Uiso   1.00
C378   C     0.71853   0.48881   0.08124   0.00000  Uiso   1.00
C379   C     0.76918   0.02730   0.91724   0.00000  Uiso   1.00
C380   C     0.98886   0.21852   0.08124   0.00000  Uiso   1.00
C381   C     0.76892   0.02711   0.95757   0.00000  Uiso   1.00
C382   C     0.52729   0.26920   0.91724   0.00000  Uiso   1.00
C383   C     0.78147   0.01118   0.08124   0.00000  Uiso   1.00
C384   C     0.73082   0.47270   0.91724   0.00000  Uiso   1.00
C385   C     0.51113   0.28149   0.08124   0.00000  Uiso   1.00
C386   C     0.97271   0.23080   0.91724   0.00000  Uiso   1.00
C387   C     0.98081   0.22270   0.58276   0.00000  Uiso   1.00
C388   C     0.53147   0.26117   0.41876   0.00000  Uiso   1.00
C389   C     0.72286   0.48059   0.58276   0.00000  Uiso   1.00
C390   C     0.76089   0.03157   0.41877   0.00000  Uiso   1.00
C391   C     0.51918   0.27730   0.58276   0.00000  Uiso   1.00
C392   C     0.98997   0.21860   0.04093   0.00000  Uiso   1.00
C393   C     0.96853   0.23883   0.41876   0.00000  Uiso   1.00
C394   C     0.77714   0.01941   0.58276   0.00000  Uiso   1.00
C395   C     0.73912   0.46842   0.41877   0.00000  Uiso   1.00
C396   C     0.75000  -0.00000   0.02056   0.00000  Uiso   1.00
C397   C     0.75000  -0.00000   0.97796   0.00000  Uiso   1.00
C398   C     0.50000   0.25000   0.02056   0.00000  Uiso   1.00
C399   C     0.50000   0.25000   0.97796   0.00000  Uiso   1.00
C400   C     0.50000   0.25000   0.52204   0.00000  Uiso   1.00
C401   C     0.50000   0.25000   0.47944   0.00000  Uiso   1.00
C402   C     0.75000   0.00000   0.52204   0.00000  Uiso   1.00
C403   C     0.52710   0.26894   0.95757   0.00000  Uiso   1.00
C404   C     0.75000   0.00000   0.47945   0.00000  Uiso   1.00
C405   C     0.75000   0.00000   0.35533   0.00000  Uiso   1.00
C406   C     0.75000   0.00000   0.64504   0.00000  Uiso   1.00
C407   C     0.50000   0.25000   0.35533   0.00000  Uiso   1.00
C408   C     0.50000   0.25000   0.64504   0.00000  Uiso   1.00
C409   C     0.50000   0.25000   0.85496   0.00000  Uiso   1.00
C410   C     0.50000   0.25000   0.14467   0.00000  Uiso   1.00
C411   C     0.75000   0.00000   0.85496   0.00000  Uiso   1.00
C412   C     0.75000  -0.00000   0.14467   0.00000  Uiso   1.00
C413   C     0.67993   0.07007   0.25000   0.00000  Uiso   1.00
C414   C     0.78138   0.01007   0.04093   0.00000  Uiso   1.00
C415   C     0.82007   0.42993   0.75000   0.00000  Uiso   1.00
C416   C     0.92993   0.17993   0.25000   0.00000  Uiso   1.00
C417   C     0.57007   0.32007   0.75000   0.00000  Uiso   1.00
C418   C     0.82007   0.42993   0.25000   0.00000  Uiso   1.00
C419   C     0.67993   0.07007   0.75000   0.00000  Uiso   1.00
C420   C     0.57007   0.32007   0.25000   0.00000  Uiso   1.00
C421   C     0.92993   0.17993   0.75000   0.00000  Uiso   1.00
C422   C     0.67993   0.42993   0.75000   0.00000  Uiso   1.00
C423   C     0.82007   0.07007   0.25000   0.00000  Uiso   1.00
C424   C     0.92993   0.32007   0.75000   0.00000  Uiso   1.00
C425   C     0.73108   0.47288   0.95757   0.00000  Uiso   1.00
C426   C     0.57007   0.17993   0.25000   0.00000  Uiso   1.00
C427   C     0.82007   0.07007   0.75000   0.00000  Uiso   1.00
C428   C     0.67993   0.42993   0.25000   0.00000  Uiso   1.00
C429   C     0.57007   0.17993   0.75000   0.00000  Uiso   1.00
C430   C     0.92993   0.32007   0.25000   0.00000  Uiso   1.00
C431   C     0.62366   0.40308   0.22269   0.00000  Uiso   1.00
C432   C     0.87740   0.09586   0.77595   0.00000  Uiso   1.00
C433   C     0.59515   0.12188   0.22507   0.00000  Uiso   1.00
C434   C     0.90479   0.37807   0.77501   0.00000  Uiso   1.00
C435   C     0.87634   0.09692   0.22269   0.00000  Uiso   1.00
C436   C     0.51002   0.28140   0.04093   0.00000  Uiso   1.00
C437   C     0.62260   0.40414   0.77595   0.00000  Uiso   1.00
C438   C     0.90485   0.37812   0.22507   0.00000  Uiso   1.00
C439   C     0.59521   0.12193   0.77501   0.00000  Uiso   1.00
C440   C     0.62193   0.09521   0.77501   0.00000  Uiso   1.00
C441   C     0.87812   0.40485   0.22507   0.00000  Uiso   1.00
C442   C     0.59586   0.37740   0.77595   0.00000  Uiso   1.00
C443   C     0.90308   0.12366   0.22269   0.00000  Uiso   1.00
C444   C     0.87807   0.40479   0.77501   0.00000  Uiso   1.00
C445   C     0.62188   0.09515   0.22507   0.00000  Uiso   1.00
C446   C     0.90414   0.12260   0.77595   0.00000  Uiso   1.00
C447   C     0.97290   0.23106   0.95757   0.00000  Uiso   1.00
C448   C     0.59692   0.37634   0.22269   0.00000  Uiso   1.00
C449   C     0.87260   0.15413   0.72405   0.00000  Uiso   1.00
C450   C     0.62635   0.34692   0.27731   0.00000  Uiso   1.00
C451   C     0.84520   0.37193   0.72499   0.00000  Uiso   1.00
C452   C     0.65485   0.12812   0.27493   0.00000  Uiso   1.00
C453   C     0.62740   0.34587   0.72405   0.00000  Uiso   1.00
C454   C     0.87365   0.15308   0.27731   0.00000  Uiso   1.00
C455   C     0.65479   0.12807   0.72499   0.00000  Uiso   1.00
C456   C     0.84515   0.37188   0.27493   0.00000  Uiso   1.00
C457   C     0.87188   0.34515   0.27493   0.00000  Uiso   1.00
C458   C     0.98107   0.22289   0.54243   0.00000  Uiso   1.00
C459   C     0.62807   0.15480   0.72499   0.00000  Uiso   1.00
C460   C     0.84692   0.12635   0.27731   0.00000  Uiso   1.00
C461   C     0.65413   0.37260   0.72405   0.00000  Uiso   1.00
C462   C     0.62812   0.15485   0.27493   0.00000  Uiso   1.00
C463   C     0.87193   0.34521   0.72499   0.00000  Uiso   1.00
C464   C     0.65308   0.37365   0.27731   0.00000  Uiso   1.00
C465   C     0.84587   0.12740   0.72405   0.00000  Uiso   1.00
C466   C     0.59813   0.34813   0.25000   0.00000  Uiso   1.00
C467   C     0.90187   0.15187   0.75000   0.00000  Uiso   1.00
C468   C     0.65186   0.09814   0.25000   0.00000  Uiso   1.00
H469   H     0.69399   0.48248   0.02554   0.00000  Uiso   1.00
H470   H     0.55602   0.26750   0.47446   0.00000  Uiso   1.00
H471   H     0.99386   0.32470   0.63544   0.00000  Uiso   1.00
H472   H     0.91265   0.23287   0.41324   0.00000  Uiso   1.00
H473   H     0.93855   0.17072   0.41565   0.00000  Uiso   1.00
H474   H     0.96222   0.18187   0.37117   0.00000  Uiso   1.00
H475   H     0.91316   0.18073   0.37216   0.00000  Uiso   1.00
H476   H     0.81394   0.06184   0.58830   0.00000  Uiso   1.00
H477   H     0.84952   0.00449   0.59133   0.00000  Uiso   1.00
H478   H     0.82475   0.49448   0.63544   0.00000  Uiso   1.00
H479   H     0.85412   0.03370   0.63311   0.00000  Uiso   1.00
H480   H     0.73378   0.41249   0.41323   0.00000  Uiso   1.00
H481   H     0.70151   0.46672   0.52710   0.00000  Uiso   1.00
H482   H     0.67134   0.43766   0.41587   0.00000  Uiso   1.00
H483   H     0.68151   0.41245   0.37231   0.00000  Uiso   1.00
H484   H     0.68209   0.46152   0.37139   0.00000  Uiso   1.00
H485   H     0.76699   0.05617   0.47447   0.00000  Uiso   1.00
H486   H     0.53288   0.29877   0.52711   0.00000  Uiso   1.00
H487   H     0.94398   0.23251   0.47446   0.00000  Uiso   1.00
H488   H     0.79850   0.03329   0.52711   0.00000  Uiso   1.00
H489   H     0.73303   0.44383   0.47448   0.00000  Uiso   1.00
H490   H     0.62228   0.42457   0.20126   0.00000  Uiso   1.00
H491   H     0.87965   0.07351   0.79627   0.00000  Uiso   1.00
H492   H     0.57222   0.11903   0.20556   0.00000  Uiso   1.00
H493   H     0.78287   0.04877   0.97289   0.00000  Uiso   1.00
H494   H     0.92768   0.38087   0.79458   0.00000  Uiso   1.00
H495   H     0.87771   0.07543   0.20126   0.00000  Uiso   1.00
H496   H     0.62035   0.42649   0.79627   0.00000  Uiso   1.00
H497   H     0.92778   0.38097   0.20557   0.00000  Uiso   1.00
H498   H     0.57232   0.11913   0.79458   0.00000  Uiso   1.00
H499   H     0.61913   0.07232   0.79458   0.00000  Uiso   1.00
H500   H     0.88097   0.42778   0.20557   0.00000  Uiso   1.00
H501   H     0.57351   0.37965   0.79627   0.00000  Uiso   1.00
H502   H     0.92457   0.12228   0.20126   0.00000  Uiso   1.00
H503   H     0.88087   0.42769   0.79458   0.00000  Uiso   1.00
H504   H     0.98255   0.19397   0.02554   0.00000  Uiso   1.00
H505   H     0.61903   0.07222   0.20556   0.00000  Uiso   1.00
H506   H     0.92649   0.12035   0.79627   0.00000  Uiso   1.00
H507   H     0.57543   0.37772   0.20126   0.00000  Uiso   1.00
H508   H     0.87035   0.17649   0.70372   0.00000  Uiso   1.00
H509   H     0.62772   0.32542   0.29874   0.00000  Uiso   1.00
H510   H     0.82231   0.36913   0.70542   0.00000  Uiso   1.00
H511   H     0.67778   0.13097   0.29443   0.00000  Uiso   1.00
H512   H     0.62965   0.32351   0.70372   0.00000  Uiso   1.00
H513   H     0.87228   0.17457   0.29874   0.00000  Uiso   1.00
H514   H     0.67768   0.13087   0.70542   0.00000  Uiso   1.00
H515   H     0.54874   0.28291   0.97289   0.00000  Uiso   1.00
H516   H     0.82222   0.36903   0.29443   0.00000  Uiso   1.00
H517   H     0.86903   0.32222   0.29443   0.00000  Uiso   1.00
H518   H     0.63087   0.17769   0.70542   0.00000  Uiso   1.00
H519   H     0.82543   0.12772   0.29874   0.00000  Uiso   1.00
H520   H     0.67648   0.37035   0.70372   0.00000  Uiso   1.00
H521   H     0.63097   0.17778   0.29443   0.00000  Uiso   1.00
H522   H     0.86913   0.32231   0.70542   0.00000  Uiso   1.00
H523   H     0.67458   0.37228   0.29874   0.00000  Uiso   1.00
H524   H     0.82351   0.12965   0.70372   0.00000  Uiso   1.00
H525   H     0.66266   0.48280   0.08676   0.00000  Uiso   1.00
H526   H     0.80601   0.01752   0.02554   0.00000  Uiso   1.00
H527   H     0.68862   0.42067   0.08437   0.00000  Uiso   1.00
H528   H     0.66321   0.43067   0.12785   0.00000  Uiso   1.00
H529   H     0.71227   0.43186   0.12885   0.00000  Uiso   1.00
H530   H     0.81130   0.06445   0.91170   0.00000  Uiso   1.00
H531   H     0.75367   0.09955   0.90867   0.00000  Uiso   1.00
H532   H     0.74385   0.07470   0.86456   0.00000  Uiso   1.00
H533   H     0.78284   0.10439   0.86690   0.00000  Uiso   1.00
H534   H     0.98295   0.16263   0.08676   0.00000  Uiso   1.00
H535   H     0.92077   0.18847   0.08433   0.00000  Uiso   1.00
H536   H     0.93189   0.21215   0.12882   0.00000  Uiso   1.00
H537   H     0.71712   0.45122   0.97289   0.00000  Uiso   1.00
H538   H     0.93080   0.16309   0.12783   0.00000  Uiso   1.00
H539   H     0.56440   0.31135   0.91170   0.00000  Uiso   1.00
H540   H     0.59954   0.25374   0.90867   0.00000  Uiso   1.00
H541   H     0.60437   0.28291   0.86690   0.00000  Uiso   1.00
H542   H     0.57471   0.24391   0.86456   0.00000  Uiso   1.00
H543   H     0.83734   0.01717   0.08676   0.00000  Uiso   1.00
H544   H     0.81140   0.07931   0.08436   0.00000  Uiso   1.00
H545   H     0.83680   0.06931   0.12785   0.00000  Uiso   1.00
H546   H     0.78775   0.06814   0.12884   0.00000  Uiso   1.00
H547   H     0.68869   0.43555   0.91169   0.00000  Uiso   1.00
H548   H     0.51744   0.30603   0.02554   0.00000  Uiso   1.00
H549   H     0.74633   0.40045   0.90866   0.00000  Uiso   1.00
H550   H     0.75615   0.42530   0.86456   0.00000  Uiso   1.00
H551   H     0.71716   0.39561   0.86689   0.00000  Uiso   1.00
H552   H     0.51701   0.33737   0.08676   0.00000  Uiso   1.00
H553   H     0.57920   0.31157   0.08431   0.00000  Uiso   1.00
H554   H     0.56811   0.28787   0.12879   0.00000  Uiso   1.00
H555   H     0.56917   0.33694   0.12782   0.00000  Uiso   1.00
H556   H     0.93559   0.18865   0.91169   0.00000  Uiso   1.00
H557   H     0.90045   0.24626   0.90867   0.00000  Uiso   1.00
H558   H     0.89563   0.21709   0.86689   0.00000  Uiso   1.00
H559   H     0.95125   0.21708   0.97289   0.00000  Uiso   1.00
H560   H     0.92529   0.25609   0.86456   0.00000  Uiso   1.00
H561   H     0.93868   0.18556   0.58830   0.00000  Uiso   1.00
H562   H     0.99632   0.15045   0.59133   0.00000  Uiso   1.00
H563   H     0.96715   0.14561   0.63310   0.00000  Uiso   1.00
H564   H     0.50613   0.17529   0.63544   0.00000  Uiso   1.00
H565   H     0.58735   0.26713   0.41324   0.00000  Uiso   1.00
H566   H     0.56145   0.32928   0.41566   0.00000  Uiso   1.00
H567   H     0.53778   0.31813   0.37117   0.00000  Uiso   1.00
H568   H     0.58685   0.31927   0.37216   0.00000  Uiso   1.00
H569   H     0.68606   0.43816   0.58829   0.00000  Uiso   1.00
H570   H     0.96712   0.20123   0.52711   0.00000  Uiso   1.00
H571   H     0.65048   0.49551   0.59132   0.00000  Uiso   1.00
H572   H     0.67525   0.00553   0.63543   0.00000  Uiso   1.00
H573   H     0.64588   0.46630   0.63309   0.00000  Uiso   1.00
H574   H     0.76628   0.08750   0.41324   0.00000  Uiso   1.00
H575   H     0.82869   0.06227   0.41584   0.00000  Uiso   1.00
H576   H     0.81852   0.08751   0.37229   0.00000  Uiso   1.00
H577   H     0.81790   0.03844   0.37135   0.00000  Uiso   1.00
H578   H     0.56131   0.31444   0.58831   0.00000  Uiso   1.00
H579   H     0.50368   0.34955   0.59133   0.00000  Uiso   1.00
H580   H     0.53285   0.35439   0.63311   0.00000  Uiso   1.00
N581   N     0.68668   0.47604   0.10054   0.00000  Uiso   1.00
N582   N     0.56334   0.27392   0.39946   0.00000  Uiso   1.00
N583   N     0.69512   0.46102   0.60281   0.00000  Uiso   1.00
N584   N     0.77335   0.06356   0.39948   0.00000  Uiso   1.00
N585   N     0.53853   0.30519   0.60282   0.00000  Uiso   1.00
N586   N     0.93666   0.22608   0.39946   0.00000  Uiso   1.00
N587   N     0.80488   0.03898   0.60281   0.00000  Uiso   1.00
N588   N     0.72668   0.43644   0.39949   0.00000  Uiso   1.00
N589   N     0.78852   0.05519   0.89718   0.00000  Uiso   1.00
N590   N     0.97614   0.18664   0.10054   0.00000  Uiso   1.00
N591   N     0.55516   0.28856   0.89719   0.00000  Uiso   1.00
N592   N     0.81332   0.02395   0.10054   0.00000  Uiso   1.00
N593   N     0.71148   0.44481   0.89718   0.00000  Uiso   1.00
N594   N     0.52384   0.31337   0.10054   0.00000  Uiso   1.00
N595   N     0.94483   0.21144   0.89718   0.00000  Uiso   1.00
N596   N     0.96147   0.19481   0.60282   0.00000  Uiso   1.00
O597   O     0.75000  -0.00000   0.25000   0.00000  Uiso   1.00
O598   O     0.75000   0.46964   0.66317   0.00000  Uiso   1.00
O599   O     0.96964   0.25000   0.33683   0.00000  Uiso   1.00
O600   O     0.53036   0.25000   0.66317   0.00000  Uiso   1.00
O601   O     0.50000   0.21964   0.83683   0.00000  Uiso   1.00
O602   O     0.50000   0.28036   0.16317   0.00000  Uiso   1.00
O603   O     0.78036  -0.00000   0.83683   0.00000  Uiso   1.00
O604   O     0.71964  -0.00000   0.16317   0.00000  Uiso   1.00
O605   O     0.50000   0.28036   0.83683   0.00000  Uiso   1.00
O606   O     0.50000   0.21964   0.16317   0.00000  Uiso   1.00
O607   O     0.71964  -0.00000   0.83683   0.00000  Uiso   1.00
O608   O     0.75000  -0.00000   0.75000   0.00000  Uiso   1.00
O609   O     0.78036  -0.00000   0.16317   0.00000  Uiso   1.00
O610   O     0.70725   0.07307   0.27282   0.00000  Uiso   1.00
O611   O     0.79274   0.42693   0.72718   0.00000  Uiso   1.00
O612   O     0.92693   0.20725   0.27282   0.00000  Uiso   1.00
O613   O     0.57307   0.29275   0.72718   0.00000  Uiso   1.00
O614   O     0.79274   0.42693   0.27282   0.00000  Uiso   1.00
O615   O     0.70725   0.07307   0.72718   0.00000  Uiso   1.00
O616   O     0.57307   0.29275   0.27282   0.00000  Uiso   1.00
O617   O     0.92693   0.20725   0.72718   0.00000  Uiso   1.00
O618   O     0.70725   0.42693   0.72718   0.00000  Uiso   1.00
O619   O     0.50000   0.25000   0.25000   0.00000  Uiso   1.00
O620   O     0.79274   0.07307   0.27282   0.00000  Uiso   1.00
O621   O     0.92693   0.29275   0.72718   0.00000  Uiso   1.00
O622   O     0.57307   0.20726   0.27282   0.00000  Uiso   1.00
O623   O     0.79274   0.07307   0.72718   0.00000  Uiso   1.00
O624   O     0.70725   0.42693   0.27282   0.00000  Uiso   1.00
O625   O     0.57307   0.20726   0.72718   0.00000  Uiso   1.00
O626   O     0.92693   0.29275   0.27282   0.00000  Uiso   1.00
O627   O     0.95725   0.32307   0.77282   0.00000  Uiso   1.00
O628   O     0.54274   0.17693   0.22718   0.00000  Uiso   1.00
O629   O     0.67693   0.45726   0.77282   0.00000  Uiso   1.00
O630   O     0.50000   0.25000   0.75000   0.00000  Uiso   1.00
O631   O     0.82307   0.04274   0.22718   0.00000  Uiso   1.00
O632   O     0.54274   0.17693   0.77282   0.00000  Uiso   1.00
O633   O     0.95725   0.32307   0.22718   0.00000  Uiso   1.00
O634   O     0.82307   0.04274   0.77282   0.00000  Uiso   1.00
O635   O     0.67693   0.45726   0.22718   0.00000  Uiso   1.00
O636   O     0.95725   0.17693   0.22718   0.00000  Uiso   1.00
O637   O     0.54274   0.32307   0.77282   0.00000  Uiso   1.00
O638   O     0.67693   0.04274   0.22718   0.00000  Uiso   1.00
O639   O     0.82307   0.45726   0.77282   0.00000  Uiso   1.00
O640   O     0.54274   0.32307   0.22718   0.00000  Uiso   1.00
O641   O     0.75000   0.46964   0.33683   0.00000  Uiso   1.00
O642   O     0.95725   0.17693   0.77282   0.00000  Uiso   1.00
O643   O     0.82307   0.45726   0.22718   0.00000  Uiso   1.00
O644   O     0.67693   0.04274   0.77282   0.00000  Uiso   1.00
O645   O     0.75000   0.03036   0.66317   0.00000  Uiso   1.00
O646   O     0.53036   0.25000   0.33683   0.00000  Uiso   1.00
O647   O     0.96964   0.25000   0.66317   0.00000  Uiso   1.00
O648   O     0.75000   0.03036   0.33683   0.00000  Uiso   1.00
Zn649  Zn    0.70660  -0.00000   0.21760   0.00000  Uiso   1.00
Zn650  Zn    0.54340   0.25000   0.28240   0.00000  Uiso   1.00
Zn651  Zn    0.75000   0.45660   0.71760   0.00000  Uiso   1.00
Zn652  Zn    0.75000   0.04340   0.28240   0.00000  Uiso   1.00
Zn653  Zn    0.54340   0.25000   0.71760   0.00000  Uiso   1.00
Zn654  Zn    0.95660   0.25000   0.28240   0.00000  Uiso   1.00
Zn655  Zn    0.75000   0.04340   0.71760   0.00000  Uiso   1.00
Zn656  Zn    0.75000   0.45660   0.28240   0.00000  Uiso   1.00
Zn657  Zn    0.79340  -0.00000   0.78240   0.00000  Uiso   1.00
Zn658  Zn    0.50000   0.20660   0.21760   0.00000  Uiso   1.00
Zn659  Zn    0.50000   0.29340   0.78240   0.00000  Uiso   1.00
Zn660  Zn    0.79340  -0.00000   0.21760   0.00000  Uiso   1.00
Zn661  Zn    0.70660  -0.00000   0.78240   0.00000  Uiso   1.00
Zn662  Zn    0.50000   0.29340   0.21760   0.00000  Uiso   1.00
Zn663  Zn    0.50000   0.20660   0.78240   0.00000  Uiso   1.00
Zn664  Zn    0.95660   0.25000   0.71760   0.00000  Uiso   1.00
C665   C     0.21862   0.98992   0.04093   0.00000  Uiso   1.00
C666   C     0.03139   0.76006   0.45907   0.00000  Uiso   1.00
C667   C     0.34814   0.90186   0.75000   0.00000  Uiso   1.00
C668   C     0.40187   0.65187   0.25000   0.00000  Uiso   1.00
C669   C     0.09813   0.84813   0.75000   0.00000  Uiso   1.00
C670   C     0.34814   0.90186   0.25000   0.00000  Uiso   1.00
C671   C     0.15186   0.59814   0.75000   0.00000  Uiso   1.00
C672   C     0.09814   0.65186   0.75000   0.00000  Uiso   1.00
C673   C     0.40186   0.84814   0.25000   0.00000  Uiso   1.00
C674   C     0.15187   0.90187   0.75000   0.00000  Uiso   1.00
C675   C     0.34813   0.59813   0.25000   0.00000  Uiso   1.00
C676   C     0.40186   0.84814   0.75000   0.00000  Uiso   1.00
C677   C     0.22305   0.98085   0.54243   0.00000  Uiso   1.00
C678   C     0.09814   0.65186   0.25000   0.00000  Uiso   1.00
C679   C     0.34813   0.59813   0.75000   0.00000  Uiso   1.00
C680   C     0.15187   0.90187   0.25000   0.00000  Uiso   1.00
C681   C     0.25000   0.50000   0.10197   0.00000  Uiso   1.00
C682   C     0.25000   0.50000   0.89702   0.00000  Uiso   1.00
C683   C    -0.00000   0.75000   0.10197   0.00000  Uiso   1.00
C684   C    -0.00000   0.75000   0.89702   0.00000  Uiso   1.00
C685   C    -0.00000   0.75000   0.60298   0.00000  Uiso   1.00
C686   C     0.00000   0.75000   0.39803   0.00000  Uiso   1.00
C687   C     0.25000   0.50000   0.60298   0.00000  Uiso   1.00
C688   C     0.25978   0.53148   0.45908   0.00000  Uiso   1.00
C689   C     0.25000   0.50000   0.39804   0.00000  Uiso   1.00
C690   C     0.18789   0.93781   0.11086   0.00000  Uiso   1.00
C691   C     0.26591   0.58491   0.88371   0.00000  Uiso   1.00
C692   C     0.43790   0.68778   0.11083   0.00000  Uiso   1.00
C693   C     0.08490   0.76597   0.88371   0.00000  Uiso   1.00
C694   C     0.31212   0.56218   0.11085   0.00000  Uiso   1.00
C695   C     0.23409   0.91508   0.88370   0.00000  Uiso   1.00
C696   C     0.06208   0.81224   0.11082   0.00000  Uiso   1.00
C697   C     0.41509   0.73403   0.88370   0.00000  Uiso   1.00
C698   C     0.48407   0.66509   0.61629   0.00000  Uiso   1.00
C699   C     0.01893   0.77711   0.54243   0.00000  Uiso   1.00
C700   C     0.06216   0.81215   0.38916   0.00000  Uiso   1.00
C701   C     0.16522   0.98338   0.61628   0.00000  Uiso   1.00
C702   C     0.31162   0.56277   0.38930   0.00000  Uiso   1.00
C703   C     0.01592   0.83491   0.61629   0.00000  Uiso   1.00
C704   C     0.43784   0.68785   0.38916   0.00000  Uiso   1.00
C705   C     0.33479   0.51662   0.61629   0.00000  Uiso   1.00
C706   C     0.18840   0.93719   0.38932   0.00000  Uiso   1.00
C707   C     0.46861   0.73994   0.45907   0.00000  Uiso   1.00
C708   C     0.27696   0.51915   0.54243   0.00000  Uiso   1.00
C709   C     0.24024   0.96852   0.45908   0.00000  Uiso   1.00
C710   C     0.21853   0.98881   0.08124   0.00000  Uiso   1.00
C711   C     0.26918   0.52730   0.91724   0.00000  Uiso   1.00
C712   C     0.48886   0.71852   0.08124   0.00000  Uiso   1.00
C713   C     0.26892   0.52711   0.95757   0.00000  Uiso   1.00
C714   C     0.02729   0.76920   0.91724   0.00000  Uiso   1.00
C715   C     0.28147   0.51118   0.08124   0.00000  Uiso   1.00
C716   C     0.23082   0.97270   0.91724   0.00000  Uiso   1.00
C717   C     0.01113   0.78149   0.08124   0.00000  Uiso   1.00
C718   C     0.47271   0.73080   0.91724   0.00000  Uiso   1.00
C719   C     0.48081   0.72270   0.58276   0.00000  Uiso   1.00
C720   C     0.03147   0.76117   0.41876   0.00000  Uiso   1.00
C721   C     0.22286   0.98059   0.58276   0.00000  Uiso   1.00
C722   C     0.26089   0.53157   0.41877   0.00000  Uiso   1.00
C723   C     0.01918   0.77730   0.58276   0.00000  Uiso   1.00
C724   C     0.48997   0.71860   0.04093   0.00000  Uiso   1.00
C725   C     0.46853   0.73883   0.41876   0.00000  Uiso   1.00
C726   C     0.27714   0.51941   0.58276   0.00000  Uiso   1.00
C727   C     0.23912   0.96842   0.41877   0.00000  Uiso   1.00
C728   C     0.25000   0.50000   0.02056   0.00000  Uiso   1.00
C729   C     0.25000   0.50000   0.97796   0.00000  Uiso   1.00
C730   C    -0.00000   0.75000   0.02056   0.00000  Uiso   1.00
C731   C    -0.00000   0.75000   0.97796   0.00000  Uiso   1.00
C732   C    -0.00000   0.75000   0.52204   0.00000  Uiso   1.00
C733   C    -0.00000   0.75000   0.47944   0.00000  Uiso   1.00
C734   C     0.25000   0.50000   0.52204   0.00000  Uiso   1.00
C735   C     0.02710   0.76894   0.95757   0.00000  Uiso   1.00
C736   C     0.25000   0.50000   0.47945   0.00000  Uiso   1.00
C737   C     0.25000   0.50000   0.35533   0.00000  Uiso   1.00
C738   C     0.25000   0.50000   0.64504   0.00000  Uiso   1.00
C739   C     0.00000   0.75000   0.35533   0.00000  Uiso   1.00
C740   C    -0.00000   0.75000   0.64504   0.00000  Uiso   1.00
C741   C     0.00000   0.75000   0.85496   0.00000  Uiso   1.00
C742   C    -0.00000   0.75000   0.14467   0.00000  Uiso   1.00
C743   C     0.25000   0.50000   0.85496   0.00000  Uiso   1.00
C744   C     0.25000   0.50000   0.14467   0.00000  Uiso   1.00
C745   C     0.17993   0.57007   0.25000   0.00000  Uiso   1.00
C746   C     0.28138   0.51007   0.04093   0.00000  Uiso   1.00
C747   C     0.32007   0.92993   0.75000   0.00000  Uiso   1.00
C748   C     0.42993   0.67993   0.25000   0.00000  Uiso   1.00
C749   C     0.07007   0.82007   0.75000   0.00000  Uiso   1.00
C750   C     0.32007   0.92993   0.25000   0.00000  Uiso   1.00
C751   C     0.17993   0.57007   0.75000   0.00000  Uiso   1.00
C752   C     0.07007   0.82007   0.25000   0.00000  Uiso   1.00
C753   C     0.42993   0.67993   0.75000   0.00000  Uiso   1.00
C754   C     0.17993   0.92993   0.75000   0.00000  Uiso   1.00
C755   C     0.32007   0.57007   0.25000   0.00000  Uiso   1.00
C756   C     0.42993   0.82007   0.75000   0.00000  Uiso   1.00
C757   C     0.23108   0.97288   0.95757   0.00000  Uiso   1.00
C758   C     0.07007   0.67993   0.25000   0.00000  Uiso   1.00
C759   C     0.32007   0.57007   0.75000   0.00000  Uiso   1.00
C760   C     0.17993   0.92993   0.25000   0.00000  Uiso   1.00
C761   C     0.07007   0.67993   0.75000   0.00000  Uiso   1.00
C762   C     0.42993   0.82007   0.25000   0.00000  Uiso   1.00
C763   C     0.12366   0.90308   0.22269   0.00000  Uiso   1.00
C764   C     0.37740   0.59586   0.77595   0.00000  Uiso   1.00
C765   C     0.09515   0.62188   0.22507   0.00000  Uiso   1.00
C766   C     0.40479   0.87807   0.77501   0.00000  Uiso   1.00
C767   C     0.37634   0.59692   0.22269   0.00000  Uiso   1.00
C768   C     0.01002   0.78140   0.04093   0.00000  Uiso   1.00
C769   C     0.12260   0.90414   0.77595   0.00000  Uiso   1.00
C770   C     0.40485   0.87812   0.22507   0.00000  Uiso   1.00
C771   C     0.09521   0.62193   0.77501   0.00000  Uiso   1.00
C772   C     0.12193   0.59521   0.77501   0.00000  Uiso   1.00
C773   C     0.37812   0.90485   0.22507   0.00000  Uiso   1.00
C774   C     0.09586   0.87740   0.77595   0.00000  Uiso   1.00
C775   C     0.40308   0.62366   0.22269   0.00000  Uiso   1.00
C776   C     0.37807   0.90479   0.77501   0.00000  Uiso   1.00
C777   C     0.12188   0.59515   0.22507   0.00000  Uiso   1.00
C778   C     0.40414   0.62260   0.77595   0.00000  Uiso   1.00
C779   C     0.47290   0.73106   0.95757   0.00000  Uiso   1.00
C780   C     0.09692   0.87634   0.22269   0.00000  Uiso   1.00
C781   C     0.37260   0.65413   0.72405   0.00000  Uiso   1.00
C782   C     0.12635   0.84692   0.27731   0.00000  Uiso   1.00
C783   C     0.34520   0.87193   0.72499   0.00000  Uiso   1.00
C784   C     0.15485   0.62812   0.27493   0.00000  Uiso   1.00
C785   C     0.12740   0.84587   0.72405   0.00000  Uiso   1.00
C786   C     0.37365   0.65308   0.27731   0.00000  Uiso   1.00
C787   C     0.15479   0.62807   0.72499   0.00000  Uiso   1.00
C788   C     0.34515   0.87188   0.27493   0.00000  Uiso   1.00
C789   C     0.37188   0.84515   0.27493   0.00000  Uiso   1.00
C790   C     0.48107   0.72289   0.54243   0.00000  Uiso   1.00
C791   C     0.12807   0.65480   0.72499   0.00000  Uiso   1.00
C792   C     0.34692   0.62635   0.27731   0.00000  Uiso   1.00
C793   C     0.15413   0.87260   0.72405   0.00000  Uiso   1.00
C794   C     0.12812   0.65485   0.27493   0.00000  Uiso   1.00
C795   C     0.37193   0.84521   0.72499   0.00000  Uiso   1.00
C796   C     0.15308   0.87365   0.27731   0.00000  Uiso   1.00
C797   C     0.34587   0.62740   0.72405   0.00000  Uiso   1.00
C798   C     0.09813   0.84813   0.25000   0.00000  Uiso   1.00
C799   C     0.40187   0.65187   0.75000   0.00000  Uiso   1.00
C800   C     0.15186   0.59814   0.25000   0.00000  Uiso   1.00
H801   H     0.19399   0.98248   0.02554   0.00000  Uiso   1.00
H802   H     0.05602   0.76750   0.47446   0.00000  Uiso   1.00
H803   H     0.49386   0.82470   0.63544   0.00000  Uiso   1.00
H804   H     0.41265   0.73287   0.41324   0.00000  Uiso   1.00
H805   H     0.43855   0.67072   0.41565   0.00000  Uiso   1.00
H806   H     0.46222   0.68187   0.37117   0.00000  Uiso   1.00
H807   H     0.41316   0.68073   0.37216   0.00000  Uiso   1.00
H808   H     0.31394   0.56184   0.58830   0.00000  Uiso   1.00
H809   H     0.34952   0.50449   0.59133   0.00000  Uiso   1.00
H810   H     0.32475   0.99448   0.63544   0.00000  Uiso   1.00
H811   H     0.35412   0.53370   0.63311   0.00000  Uiso   1.00
H812   H     0.23378   0.91249   0.41323   0.00000  Uiso   1.00
H813   H     0.20151   0.96672   0.52710   0.00000  Uiso   1.00
H814   H     0.17134   0.93766   0.41587   0.00000  Uiso   1.00
H815   H     0.18151   0.91245   0.37231   0.00000  Uiso   1.00
H816   H     0.18209   0.96152   0.37139   0.00000  Uiso   1.00
H817   H     0.26699   0.55617   0.47447   0.00000  Uiso   1.00
H818   H     0.03288   0.79877   0.52711   0.00000  Uiso   1.00
H819   H     0.44398   0.73251   0.47446   0.00000  Uiso   1.00
H820   H     0.29850   0.53329   0.52711   0.00000  Uiso   1.00
H821   H     0.23303   0.94383   0.47448   0.00000  Uiso   1.00
H822   H     0.12228   0.92457   0.20126   0.00000  Uiso   1.00
H823   H     0.37965   0.57351   0.79627   0.00000  Uiso   1.00
H824   H     0.07222   0.61903   0.20556   0.00000  Uiso   1.00
H825   H     0.28287   0.54877   0.97289   0.00000  Uiso   1.00
H826   H     0.42768   0.88087   0.79458   0.00000  Uiso   1.00
H827   H     0.37771   0.57543   0.20126   0.00000  Uiso   1.00
H828   H     0.12035   0.92649   0.79627   0.00000  Uiso   1.00
H829   H     0.42778   0.88097   0.20557   0.00000  Uiso   1.00
H830   H     0.07232   0.61913   0.79458   0.00000  Uiso   1.00
H831   H     0.11913   0.57232   0.79458   0.00000  Uiso   1.00
H832   H     0.38097   0.92778   0.20557   0.00000  Uiso   1.00
H833   H     0.07351   0.87965   0.79627   0.00000  Uiso   1.00
H834   H     0.42457   0.62228   0.20126   0.00000  Uiso   1.00
H835   H     0.38087   0.92769   0.79458   0.00000  Uiso   1.00
H836   H     0.48255   0.69397   0.02554   0.00000  Uiso   1.00
H837   H     0.11903   0.57222   0.20556   0.00000  Uiso   1.00
H838   H     0.42649   0.62035   0.79627   0.00000  Uiso   1.00
H839   H     0.07543   0.87772   0.20126   0.00000  Uiso   1.00
H840   H     0.37035   0.67649   0.70372   0.00000  Uiso   1.00
H841   H     0.12772   0.82542   0.29874   0.00000  Uiso   1.00
H842   H     0.32231   0.86913   0.70542   0.00000  Uiso   1.00
H843   H     0.17778   0.63097   0.29443   0.00000  Uiso   1.00
H844   H     0.12965   0.82351   0.70372   0.00000  Uiso   1.00
H845   H     0.37228   0.67457   0.29874   0.00000  Uiso   1.00
H846   H     0.17768   0.63087   0.70542   0.00000  Uiso   1.00
H847   H     0.04874   0.78291   0.97289   0.00000  Uiso   1.00
H848   H     0.32222   0.86903   0.29443   0.00000  Uiso   1.00
H849   H     0.36903   0.82222   0.29443   0.00000  Uiso   1.00
H850   H     0.13087   0.67769   0.70542   0.00000  Uiso   1.00
H851   H     0.32543   0.62772   0.29874   0.00000  Uiso   1.00
H852   H     0.17648   0.87035   0.70372   0.00000  Uiso   1.00
H853   H     0.13097   0.67778   0.29443   0.00000  Uiso   1.00
H854   H     0.36913   0.82231   0.70542   0.00000  Uiso   1.00
H855   H     0.17458   0.87228   0.29874   0.00000  Uiso   1.00
H856   H     0.32351   0.62965   0.70372   0.00000  Uiso   1.00
H857   H     0.16266   0.98280   0.08676   0.00000  Uiso   1.00
H858   H     0.30601   0.51752   0.02554   0.00000  Uiso   1.00
H859   H     0.18862   0.92067   0.08437   0.00000  Uiso   1.00
H860   H     0.16321   0.93067   0.12785   0.00000  Uiso   1.00
H861   H     0.21227   0.93186   0.12885   0.00000  Uiso   1.00
H862   H     0.31130   0.56445   0.91170   0.00000  Uiso   1.00
H863   H     0.25367   0.59955   0.90867   0.00000  Uiso   1.00
H864   H     0.24385   0.57470   0.86456   0.00000  Uiso   1.00
H865   H     0.28284   0.60439   0.86690   0.00000  Uiso   1.00
H866   H     0.48295   0.66263   0.08676   0.00000  Uiso   1.00
H867   H     0.42077   0.68847   0.08433   0.00000  Uiso   1.00
H868   H     0.43189   0.71215   0.12882   0.00000  Uiso   1.00
H869   H     0.21712   0.95122   0.97289   0.00000  Uiso   1.00
H870   H     0.43080   0.66309   0.12783   0.00000  Uiso   1.00
H871   H     0.06440   0.81135   0.91170   0.00000  Uiso   1.00
H872   H     0.09954   0.75374   0.90867   0.00000  Uiso   1.00
H873   H     0.10437   0.78291   0.86690   0.00000  Uiso   1.00
H874   H     0.07471   0.74391   0.86456   0.00000  Uiso   1.00
H875   H     0.33734   0.51717   0.08676   0.00000  Uiso   1.00
H876   H     0.31140   0.57931   0.08436   0.00000  Uiso   1.00
H877   H     0.33680   0.56931   0.12785   0.00000  Uiso   1.00
H878   H     0.28775   0.56814   0.12884   0.00000  Uiso   1.00
H879   H     0.18869   0.93555   0.91169   0.00000  Uiso   1.00
H880   H     0.01744   0.80603   0.02554   0.00000  Uiso   1.00
H881   H     0.24633   0.90045   0.90866   0.00000  Uiso   1.00
H882   H     0.25615   0.92530   0.86456   0.00000  Uiso   1.00
H883   H     0.21716   0.89561   0.86689   0.00000  Uiso   1.00
H884   H     0.01701   0.83737   0.08676   0.00000  Uiso   1.00
H885   H     0.07920   0.81157   0.08431   0.00000  Uiso   1.00
H886   H     0.06811   0.78787   0.12879   0.00000  Uiso   1.00
H887   H     0.06917   0.83694   0.12782   0.00000  Uiso   1.00
H888   H     0.43559   0.68865   0.91169   0.00000  Uiso   1.00
H889   H     0.40045   0.74626   0.90867   0.00000  Uiso   1.00
H890   H     0.39563   0.71709   0.86689   0.00000  Uiso   1.00
H891   H     0.45125   0.71708   0.97289   0.00000  Uiso   1.00
H892   H     0.42529   0.75609   0.86456   0.00000  Uiso   1.00
H893   H     0.43868   0.68556   0.58830   0.00000  Uiso   1.00
H894   H     0.49632   0.65045   0.59133   0.00000  Uiso   1.00
H895   H     0.46715   0.64561   0.63310   0.00000  Uiso   1.00
H896   H     0.00613   0.67529   0.63544   0.00000  Uiso   1.00
H897   H     0.08735   0.76713   0.41324   0.00000  Uiso   1.00
H898   H     0.06145   0.82928   0.41566   0.00000  Uiso   1.00
H899   H     0.03778   0.81813   0.37117   0.00000  Uiso   1.00
H900   H     0.08685   0.81927   0.37216   0.00000  Uiso   1.00
H901   H     0.18606   0.93816   0.58829   0.00000  Uiso   1.00
H902   H     0.46712   0.70123   0.52711   0.00000  Uiso   1.00
H903   H     0.15048   0.99551   0.59132   0.00000  Uiso   1.00
H904   H     0.17525   0.50553   0.63543   0.00000  Uiso   1.00
H905   H     0.14588   0.96630   0.63309   0.00000  Uiso   1.00
H906   H     0.26628   0.58750   0.41324   0.00000  Uiso   1.00
H907   H     0.32869   0.56227   0.41584   0.00000  Uiso   1.00
H908   H     0.31852   0.58751   0.37229   0.00000  Uiso   1.00
H909   H     0.31790   0.53844   0.37135   0.00000  Uiso   1.00
H910   H     0.06131   0.81444   0.58831   0.00000  Uiso   1.00
H911   H     0.00368   0.84955   0.59133   0.00000  Uiso   1.00
H912   H     0.03285   0.85439   0.63311   0.00000  Uiso   1.00
N913   N     0.18668   0.97604   0.10054   0.00000  Uiso   1.00
N914   N     0.06334   0.77392   0.39946   0.00000  Uiso   1.00
N915   N     0.19512   0.96102   0.60281   0.00000  Uiso   1.00
N916   N     0.27335   0.56356   0.39948   0.00000  Uiso   1.00
N917   N     0.03853   0.80519   0.60282   0.00000  Uiso   1.00
N918   N     0.43666   0.72608   0.39946   0.00000  Uiso   1.00
N919   N     0.30488   0.53898   0.60281   0.00000  Uiso   1.00
N920   N     0.22668   0.93644   0.39949   0.00000  Uiso   1.00
N921   N     0.28852   0.55519   0.89718   0.00000  Uiso   1.00
N922   N     0.47614   0.68664   0.10054   0.00000  Uiso   1.00
N923   N     0.05516   0.78856   0.89719   0.00000  Uiso   1.00
N924   N     0.31332   0.52395   0.10054   0.00000  Uiso   1.00
N925   N     0.21148   0.94481   0.89718   0.00000  Uiso   1.00
N926   N     0.02384   0.81337   0.10054   0.00000  Uiso   1.00
N927   N     0.44483   0.71144   0.89718   0.00000  Uiso   1.00
N928   N     0.46147   0.69481   0.60282   0.00000  Uiso   1.00
O929   O     0.25000   0.50000   0.25000   0.00000  Uiso   1.00
O930   O     0.25000   0.96964   0.66317   0.00000  Uiso   1.00
O931   O     0.46964   0.75000   0.33683   0.00000  Uiso   1.00
O932   O     0.03036   0.75000   0.66317   0.00000  Uiso   1.00
O933   O     0.00000   0.71964   0.83683   0.00000  Uiso   1.00
O934   O     0.00000   0.78036   0.16317   0.00000  Uiso   1.00
O935   O     0.28036   0.50000   0.83683   0.00000  Uiso   1.00
O936   O     0.21964   0.50000   0.16317   0.00000  Uiso   1.00
O937   O    -0.00000   0.78036   0.83683   0.00000  Uiso   1.00
O938   O     0.00000   0.71964   0.16317   0.00000  Uiso   1.00
O939   O     0.21964   0.50000   0.83683   0.00000  Uiso   1.00
O940   O     0.25000   0.50000   0.75000   0.00000  Uiso   1.00
O941   O     0.28036   0.50000   0.16317   0.00000  Uiso   1.00
O942   O     0.20725   0.57307   0.27282   0.00000  Uiso   1.00
O943   O     0.29274   0.92693   0.72718   0.00000  Uiso   1.00
O944   O     0.42693   0.70725   0.27282   0.00000  Uiso   1.00
O945   O     0.07307   0.79275   0.72718   0.00000  Uiso   1.00
O946   O     0.29274   0.92693   0.27282   0.00000  Uiso   1.00
O947   O     0.20725   0.57307   0.72718   0.00000  Uiso   1.00
O948   O     0.07307   0.79275   0.27282   0.00000  Uiso   1.00
O949   O     0.42693   0.70725   0.72718   0.00000  Uiso   1.00
O950   O     0.20725   0.92693   0.72718   0.00000  Uiso   1.00
O951   O     0.00000   0.75000   0.25000   0.00000  Uiso   1.00
O952   O     0.29274   0.57307   0.27282   0.00000  Uiso   1.00
O953   O     0.42693   0.79275   0.72718   0.00000  Uiso   1.00
O954   O     0.07307   0.70726   0.27282   0.00000  Uiso   1.00
O955   O     0.29274   0.57307   0.72718   0.00000  Uiso   1.00
O956   O     0.20725   0.92693   0.27282   0.00000  Uiso   1.00
O957   O     0.07307   0.70726   0.72718   0.00000  Uiso   1.00
O958   O     0.42693   0.79275   0.27282   0.00000  Uiso   1.00
O959   O     0.45725   0.82307   0.77282   0.00000  Uiso   1.00
O960   O     0.04274   0.67693   0.22718   0.00000  Uiso   1.00
O961   O     0.17693   0.95726   0.77282   0.00000  Uiso   1.00
O962   O     0.00000   0.75000   0.75000   0.00000  Uiso   1.00
O963   O     0.32307   0.54274   0.22718   0.00000  Uiso   1.00
O964   O     0.04274   0.67693   0.77282   0.00000  Uiso   1.00
O965   O     0.45725   0.82307   0.22718   0.00000  Uiso   1.00
O966   O     0.32307   0.54274   0.77282   0.00000  Uiso   1.00
O967   O     0.17693   0.95726   0.22718   0.00000  Uiso   1.00
O968   O     0.45725   0.67693   0.22718   0.00000  Uiso   1.00
O969   O     0.04274   0.82307   0.77282   0.00000  Uiso   1.00
O970   O     0.17693   0.54274   0.22718   0.00000  Uiso   1.00
O971   O     0.32307   0.95726   0.77282   0.00000  Uiso   1.00
O972   O     0.04274   0.82307   0.22718   0.00000  Uiso   1.00
O973   O     0.25000   0.96964   0.33683   0.00000  Uiso   1.00
O974   O     0.45725   0.67693   0.77282   0.00000  Uiso   1.00
O975   O     0.32307   0.95726   0.22718   0.00000  Uiso   1.00
O976   O     0.17693   0.54274   0.77282   0.00000  Uiso   1.00
O977   O     0.25000   0.53036   0.66317   0.00000  Uiso   1.00
O978   O     0.03036   0.75000   0.33683   0.00000  Uiso   1.00
O979   O     0.46964   0.75000   0.66317   0.00000  Uiso   1.00
O980   O     0.25000   0.53036   0.33683   0.00000  Uiso   1.00
Zn981  Zn    0.20660   0.50000   0.21760   0.00000  Uiso   1.00
Zn982  Zn    0.04340   0.75000   0.28240   0.00000  Uiso   1.00
Zn983  Zn    0.25000   0.95660   0.71760   0.00000  Uiso   1.00
Zn984  Zn    0.25000   0.54340   0.28240   0.00000  Uiso   1.00
Zn985  Zn    0.04340   0.75000   0.71760   0.00000  Uiso   1.00
Zn986  Zn    0.45660   0.75000   0.28240   0.00000  Uiso   1.00
Zn987  Zn    0.25000   0.54340   0.71760   0.00000  Uiso   1.00
Zn988  Zn    0.25000   0.95660   0.28240   0.00000  Uiso   1.00
Zn989  Zn    0.29340   0.50000   0.78240   0.00000  Uiso   1.00
Zn990  Zn   -0.00000   0.70660   0.21760   0.00000  Uiso   1.00
Zn991  Zn   -0.00000   0.79340   0.78240   0.00000  Uiso   1.00
Zn992  Zn    0.29340   0.50000   0.21760   0.00000  Uiso   1.00
Zn993  Zn    0.20660   0.50000   0.78240   0.00000  Uiso   1.00
Zn994  Zn   -0.00000   0.79340   0.21760   0.00000  Uiso   1.00
Zn995  Zn   -0.00000   0.70660   0.78240   0.00000  Uiso   1.00
Zn996  Zn    0.45660   0.75000   0.71760   0.00000  Uiso   1.00
C997   C     0.71862   0.98992   0.04093   0.00000  Uiso   1.00
C998   C     0.53139   0.76006   0.45907   0.00000  Uiso   1.00
C999   C     0.84814   0.90186   0.75000   0.00000  Uiso   1.00
C1000  C     0.90187   0.65187   0.25000   0.00000  Uiso   1.00
C1001  C     0.59813   0.84813   0.75000   0.00000  Uiso   1.00
C1002  C     0.84814   0.90186   0.25000   0.00000  Uiso   1.00
C1003  C     0.65186   0.59814   0.75000   0.00000  Uiso   1.00
C1004  C     0.59814   0.65186   0.75000   0.00000  Uiso   1.00
C1005  C     0.90186   0.84814   0.25000   0.00000  Uiso   1.00
C1006  C     0.65187   0.90187   0.75000   0.00000  Uiso   1.00
C1007  C     0.84813   0.59813   0.25000   0.00000  Uiso   1.00
C1008  C     0.90186   0.84814   0.75000   0.00000  Uiso   1.00
C1009  C     0.72305   0.98085   0.54243   0.00000  Uiso   1.00
C1010  C     0.59814   0.65186   0.25000   0.00000  Uiso   1.00
C1011  C     0.84813   0.59813   0.75000   0.00000  Uiso   1.00
C1012  C     0.65187   0.90187   0.25000   0.00000  Uiso   1.00
C1013  C     0.75000   0.50000   0.10197   0.00000  Uiso   1.00
C1014  C     0.75000   0.50000   0.89702   0.00000  Uiso   1.00
C1015  C     0.50000   0.75000   0.10197   0.00000  Uiso   1.00
C1016  C     0.50000   0.75000   0.89702   0.00000  Uiso   1.00
C1017  C     0.50000   0.75000   0.60298   0.00000  Uiso   1.00
C1018  C     0.50000   0.75000   0.39803   0.00000  Uiso   1.00
C1019  C     0.75000   0.50000   0.60298   0.00000  Uiso   1.00
C1020  C     0.75978   0.53148   0.45908   0.00000  Uiso   1.00
C1021  C     0.75000   0.50000   0.39804   0.00000  Uiso   1.00
C1022  C     0.68789   0.93781   0.11086   0.00000  Uiso   1.00
C1023  C     0.76591   0.58491   0.88371   0.00000  Uiso   1.00
C1024  C     0.93790   0.68778   0.11083   0.00000  Uiso   1.00
C1025  C     0.58490   0.76597   0.88371   0.00000  Uiso   1.00
C1026  C     0.81212   0.56218   0.11085   0.00000  Uiso   1.00
C1027  C     0.73409   0.91508   0.88370   0.00000  Uiso   1.00
C1028  C     0.56208   0.81224   0.11082   0.00000  Uiso   1.00
C1029  C     0.91509   0.73403   0.88370   0.00000  Uiso   1.00
C1030  C     0.98407   0.66509   0.61629   0.00000  Uiso   1.00
C1031  C     0.51893   0.77711   0.54243   0.00000  Uiso   1.00
C1032  C     0.56216   0.81215   0.38916   0.00000  Uiso   1.00
C1033  C     0.66522   0.98338   0.61628   0.00000  Uiso   1.00
C1034  C     0.81162   0.56277   0.38930   0.00000  Uiso   1.00
C1035  C     0.51592   0.83491   0.61629   0.00000  Uiso   1.00
C1036  C     0.93784   0.68785   0.38916   0.00000  Uiso   1.00
C1037  C     0.83479   0.51662   0.61629   0.00000  Uiso   1.00
C1038  C     0.68840   0.93719   0.38932   0.00000  Uiso   1.00
C1039  C     0.96861   0.73994   0.45907   0.00000  Uiso   1.00
C1040  C     0.77696   0.51915   0.54243   0.00000  Uiso   1.00
C1041  C     0.74024   0.96852   0.45908   0.00000  Uiso   1.00
C1042  C     0.71853   0.98881   0.08124   0.00000  Uiso   1.00
C1043  C     0.76918   0.52730   0.91724   0.00000  Uiso   1.00
C1044  C     0.98886   0.71852   0.08124   0.00000  Uiso   1.00
C1045  C     0.76892   0.52711   0.95757   0.00000  Uiso   1.00
C1046  C     0.52729   0.76920   0.91724   0.00000  Uiso   1.00
C1047  C     0.78147   0.51118   0.08124   0.00000  Uiso   1.00
C1048  C     0.73082   0.97270   0.91724   0.00000  Uiso   1.00
C1049  C     0.51113   0.78149   0.08124   0.00000  Uiso   1.00
C1050  C     0.97271   0.73080   0.91724   0.00000  Uiso   1.00
C1051  C     0.98081   0.72270   0.58276   0.00000  Uiso   1.00
C1052  C     0.53147   0.76117   0.41876   0.00000  Uiso   1.00
C1053  C     0.72286   0.98059   0.58276   0.00000  Uiso   1.00
C1054  C     0.76089   0.53157   0.41877   0.00000  Uiso   1.00
C1055  C     0.51918   0.77730   0.58276   0.00000  Uiso   1.00
C1056  C     0.98997   0.71860   0.04093   0.00000  Uiso   1.00
C1057  C     0.96853   0.73883   0.41876   0.00000  Uiso   1.00
C1058  C     0.77714   0.51941   0.58276   0.00000  Uiso   1.00
C1059  C     0.73912   0.96842   0.41877   0.00000  Uiso   1.00
C1060  C     0.75000   0.50000   0.02056   0.00000  Uiso   1.00
C1061  C     0.75000   0.50000   0.97796   0.00000  Uiso   1.00
C1062  C     0.50000   0.75000   0.02056   0.00000  Uiso   1.00
C1063  C     0.50000   0.75000   0.97796   0.00000  Uiso   1.00
C1064  C     0.50000   0.75000   0.52204   0.00000  Uiso   1.00
C1065  C     0.50000   0.75000   0.47944   0.00000  Uiso   1.00
C1066  C     0.75000   0.50000   0.52204   0.00000  Uiso   1.00
C1067  C     0.52710   0.76894   0.95757   0.00000  Uiso   1.00
C1068  C     0.75000   0.50000   0.47945   0.00000  Uiso   1.00
C1069  C     0.75000   0.50000   0.35533   0.00000  Uiso   1.00
C1070  C     0.75000   0.50000   0.64504   0.00000  Uiso   1.00
C1071  C     0.50000   0.75000   0.35533   0.00000  Uiso   1.00
C1072  C     0.50000   0.75000   0.64504   0.00000  Uiso   1.00
C1073  C     0.50000   0.75000   0.85496   0.00000  Uiso   1.00
C1074  C     0.50000   0.75000   0.14467   0.00000  Uiso   1.00
C1075  C     0.75000   0.50000   0.85496   0.00000  Uiso   1.00
C1076  C     0.75000   0.50000   0.14467   0.00000  Uiso   1.00
C1077  C     0.67993   0.57007   0.25000   0.00000  Uiso   1.00
C1078  C     0.78138   0.51007   0.04093   0.00000  Uiso   1.00
C1079  C     0.82007   0.92993   0.75000   0.00000  Uiso   1.00
C1080  C     0.92993   0.67993   0.25000   0.00000  Uiso   1.00
C1081  C     0.57007   0.82007   0.75000   0.00000  Uiso   1.00
C1082  C     0.82007   0.92993   0.25000   0.00000  Uiso   1.00
C1083  C     0.67993   0.57007   0.75000   0.00000  Uiso   1.00
C1084  C     0.57007   0.82007   0.25000   0.00000  Uiso   1.00
C1085  C     0.92993   0.67993   0.75000   0.00000  Uiso   1.00
C1086  C     0.67993   0.92993   0.75000   0.00000  Uiso   1.00
C1087  C     0.82007   0.57007   0.25000   0.00000  Uiso   1.00
C1088  C     0.92993   0.82007   0.75000   0.00000  Uiso   1.00
C1089  C     0.73108   0.97288   0.95757   0.00000  Uiso   1.00
C1090  C     0.57007   0.67993   0.25000   0.00000  Uiso   1.00
C1091  C     0.82007   0.57007   0.75000   0.00000  Uiso   1.00
C1092  C     0.67993   0.92993   0.25000   0.00000  Uiso   1.00
C1093  C     0.57007   0.67993   0.75000   0.00000  Uiso   1.00
C1094  C     0.92993   0.82007   0.25000   0.00000  Uiso   1.00
C1095  C     0.62366   0.90308   0.22269   0.00000  Uiso   1.00
C1096  C     0.87740   0.59586   0.77595   0.00000  Uiso   1.00
C1097  C     0.59515   0.62188   0.22507   0.00000  Uiso   1.00
C1098  C     0.90479   0.87807   0.77501   0.00000  Uiso   1.00
C1099  C     0.87634   0.59692   0.22269   0.00000  Uiso   1.00
C1100  C     0.51002   0.78140   0.04093   0.00000  Uiso   1.00
C1101  C     0.62260   0.90414   0.77595   0.00000  Uiso   1.00
C1102  C     0.90485   0.87812   0.22507   0.00000  Uiso   1.00
C1103  C     0.59521   0.62193   0.77501   0.00000  Uiso   1.00
C1104  C     0.62193   0.59521   0.77501   0.00000  Uiso   1.00
C1105  C     0.87812   0.90485   0.22507   0.00000  Uiso   1.00
C1106  C     0.59586   0.87740   0.77595   0.00000  Uiso   1.00
C1107  C     0.90308   0.62366   0.22269   0.00000  Uiso   1.00
C1108  C     0.87807   0.90479   0.77501   0.00000  Uiso   1.00
C1109  C     0.62188   0.59515   0.22507   0.00000  Uiso   1.00
C1110  C     0.90414   0.62260   0.77595   0.00000  Uiso   1.00
C1111  C     0.97290   0.73106   0.95757   0.00000  Uiso   1.00
C1112  C     0.59692   0.87634   0.22269   0.00000  Uiso   1.00
C1113  C     0.87260   0.65413   0.72405   0.00000  Uiso   1.00
C1114  C     0.62635   0.84692   0.27731   0.00000  Uiso   1.00
C1115  C     0.84520   0.87193   0.72499   0.00000  Uiso   1.00
C1116  C     0.65485   0.62812   0.27493   0.00000  Uiso   1.00
C1117  C     0.62740   0.84587   0.72405   0.00000  Uiso   1.00
C1118  C     0.87365   0.65308   0.27731   0.00000  Uiso   1.00
C1119  C     0.65479   0.62807   0.72499   0.00000  Uiso   1.00
C1120  C     0.84515   0.87188   0.27493   0.00000  Uiso   1.00
C1121  C     0.87188   0.84515   0.27493   0.00000  Uiso   1.00
C1122  C     0.98107   0.72289   0.54243   0.00000  Uiso   1.00
C1123  C     0.62807   0.65480   0.72499   0.00000  Uiso   1.00
C1124  C     0.84692   0.62635   0.27731   0.00000  Uiso   1.00
C1125  C     0.65413   0.87260   0.72405   0.00000  Uiso   1.00
C1126  C     0.62812   0.65485   0.27493   0.00000  Uiso   1.00
C1127  C     0.87193   0.84521   0.72499   0.00000  Uiso   1.00
C1128  C     0.65308   0.87365   0.27731   0.00000  Uiso   1.00
C1129  C     0.84587   0.62740   0.72405   0.00000  Uiso   1.00
C1130  C     0.59813   0.84813   0.25000   0.00000  Uiso   1.00
C1131  C     0.90187   0.65187   0.75000   0.00000  Uiso   1.00
C1132  C     0.65186   0.59814   0.25000   0.00000  Uiso   1.00
H1133  H     0.69399   0.98248   0.02554   0.00000  Uiso   1.00
H1134  H     0.55602   0.76750   0.47446   0.00000  Uiso   1.00
H1135  H     0.99386   0.82470   0.63544   0.00000  Uiso   1.00
H1136  H     0.91265   0.73287   0.41324   0.00000  Uiso   1.00
H1137  H     0.93855   0.67072   0.41565   0.00000  Uiso   1.00
H1138  H     0.96222   0.68187   0.37117   0.00000  Uiso   1.00
H1139  H     0.91316   0.68073   0.37216   0.00000  Uiso   1.00
H1140  H     0.81394   0.56184   0.58830   0.00000  Uiso   1.00
H1141  H     0.84952   0.50449   0.59133   0.00000  Uiso   1.00
H1142  H     0.82475   0.99448   0.63544   0.00000  Uiso   1.00
H1143  H     0.85412   0.53370   0.63311   0.00000  Uiso   1.00
H1144  H     0.73378   0.91249   0.41323   0.00000  Uiso   1.00
H1145  H     0.70151   0.96672   0.52710   0.00000  Uiso   1.00
H1146  H     0.67134   0.93766   0.41587   0.00000  Uiso   1.00
H1147  H     0.68151   0.91245   0.37231   0.00000  Uiso   1.00
H1148  H     0.68209   0.96152   0.37139   0.00000  Uiso   1.00
H1149  H     0.76699   0.55617   0.47447   0.00000  Uiso   1.00
H1150  H     0.53288   0.79877   0.52711   0.00000  Uiso   1.00
H1151  H     0.94398   0.73251   0.47446   0.00000  Uiso   1.00
H1152  H     0.79850   0.53329   0.52711   0.00000  Uiso   1.00
H1153  H     0.73303   0.94383   0.47448   0.00000  Uiso   1.00
H1154  H     0.62228   0.92457   0.20126   0.00000  Uiso   1.00
H1155  H     0.87965   0.57351   0.79627   0.00000  Uiso   1.00
H1156  H     0.57222   0.61903   0.20556   0.00000  Uiso   1.00
H1157  H     0.78287   0.54877   0.97289   0.00000  Uiso   1.00
H1158  H     0.92768   0.88087   0.79458   0.00000  Uiso   1.00
H1159  H     0.87771   0.57543   0.20126   0.00000  Uiso   1.00
H1160  H     0.62035   0.92649   0.79627   0.00000  Uiso   1.00
H1161  H     0.92778   0.88097   0.20557   0.00000  Uiso   1.00
H1162  H     0.57232   0.61913   0.79458   0.00000  Uiso   1.00
H1163  H     0.61913   0.57232   0.79458   0.00000  Uiso   1.00
H1164  H     0.88097   0.92778   0.20557   0.00000  Uiso   1.00
H1165  H     0.57351   0.87965   0.79627   0.00000  Uiso   1.00
H1166  H     0.92457   0.62228   0.20126   0.00000  Uiso   1.00
H1167  H     0.88087   0.92769   0.79458   0.00000  Uiso   1.00
H1168  H     0.98255   0.69397   0.02554   0.00000  Uiso   1.00
H1169  H     0.61903   0.57222   0.20556   0.00000  Uiso   1.00
H1170  H     0.92649   0.62035   0.79627   0.00000  Uiso   1.00
H1171  H     0.57543   0.87772   0.20126   0.00000  Uiso   1.00
H1172  H     0.87035   0.67649   0.70372   0.00000  Uiso   1.00
H1173  H     0.62772   0.82542   0.29874   0.00000  Uiso   1.00
H1174  H     0.82231   0.86913   0.70542   0.00000  Uiso   1.00
H1175  H     0.67778   0.63097   0.29443   0.00000  Uiso   1.00
H1176  H     0.62965   0.82351   0.70372   0.00000  Uiso   1.00
H1177  H     0.87228   0.67457   0.29874   0.00000  Uiso   1.00
H1178  H     0.67768   0.63087   0.70542   0.00000  Uiso   1.00
H1179  H     0.54874   0.78291   0.97289   0.00000  Uiso   1.00
H1180  H     0.82222   0.86903   0.29443   0.00000  Uiso   1.00
H1181  H     0.86903   0.82222   0.29443   0.00000  Uiso   1.00
H1182  H     0.63087   0.67769   0.70542   0.00000  Uiso   1.00
H1183  H     0.82543   0.62772   0.29874   0.00000  Uiso   1.00
H1184  H     0.67648   0.87035   0.70372   0.00000  Uiso   1.00
H1185  H     0.63097   0.67778   0.29443   0.00000  Uiso   1.00
H1186  H     0.86913   0.82231   0.70542   0.00000  Uiso   1.00
H1187  H     0.67458   0.87228   0.29874   0.00000  Uiso   1.00
H1188  H     0.82351   0.62965   0.70372   0.00000  Uiso   1.00
H1189  H     0.66266   0.98280   0.08676   0.00000  Uiso   1.00
H1190  H     0.80601   0.51752   0.02554   0.00000  Uiso   1.00
H1191  H     0.68862   0.92067   0.08437   0.00000  Uiso   1.00
H1192  H     0.66321   0.93067   0.12785   0.00000  Uiso   1.00
H1193  H     0.71227   0.93186   0.12885   0.00000  Uiso   1.00
H1194  H     0.81130   0.56445   0.91170   0.00000  Uiso   1.00
H1195  H     0.75367   0.59955   0.90867   0.00000  Uiso   1.00
H1196  H     0.74385   0.57470   0.86456   0.00000  Uiso   1.00
H1197  H     0.78284   0.60439   0.86690   0.00000  Uiso   1.00
H1198  H     0.98295   0.66263   0.08676   0.00000  Uiso   1.00
H1199  H     0.92077   0.68847   0.08433   0.00000  Uiso   1.00
H1200  H     0.93189   0.71215   0.12882   0.00000  Uiso   1.00
H1201  H     0.71712   0.95122   0.97289   0.00000  Uiso   1.00
H1202  H     0.93080   0.66309   0.12783   0.00000  Uiso   1.00
H1203  H     0.56440   0.81135   0.91170   0.00000  Uiso   1.00
H1204  H     0.59954   0.75374   0.90867   0.00000  Uiso   1.00
H1205  H     0.60437   0.78291   0.86690   0.00000  Uiso   1.00
H1206  H     0.57471   0.74391   0.86456   0.00000  Uiso   1.00
H1207  H     0.83734   0.51717   0.08676   0.00000  Uiso   1.00
H1208  H     0.81140   0.57931   0.08436   0.00000  Uiso   1.00
H1209  H     0.83680   0.56931   0.12785   0.00000  Uiso   1.00
H1210  H     0.78775   0.56814   0.12884   0.00000  Uiso   1.00
H1211  H     0.68869   0.93555   0.91169   0.00000  Uiso   1.00
H1212  H     0.51744   0.80603   0.02554   0.00000  Uiso   1.00
H1213  H     0.74633   0.90045   0.90866   0.00000  Uiso   1.00
H1214  H     0.75615   0.92530   0.86456   0.00000  Uiso   1.00
H1215  H     0.71716   0.89561   0.86689   0.00000  Uiso   1.00
H1216  H     0.51701   0.83737   0.08676   0.00000  Uiso   1.00
H1217  H     0.57920   0.81157   0.08431   0.00000  Uiso   1.00
H1218  H     0.56811   0.78787   0.12879   0.00000  Uiso   1.00
H1219  H     0.56917   0.83694   0.12782   0.00000  Uiso   1.00
H1220  H     0.93559   0.68865   0.91169   0.00000  Uiso   1.00
H1221  H     0.90045   0.74626   0.90867   0.00000  Uiso   1.00
H1222  H     0.89563   0.71709   0.86689   0.00000  Uiso   1.00
H1223  H     0.95125   0.71708   0.97289   0.00000  Uiso   1.00
H1224  H     0.92529   0.75609   0.86456   0.00000  Uiso   1.00
H1225  H     0.93868   0.68556   0.58830   0.00000  Uiso   1.00
H1226  H     0.99632   0.65045   0.59133   0.00000  Uiso   1.00
H1227  H     0.96715   0.64561   0.63310   0.00000  Uiso   1.00
H1228  H     0.50613   0.67529   0.63544   0.00000  Uiso   1.00
H1229  H     0.58735   0.76713   0.41324   0.00000  Uiso   1.00
H1230  H     0.56145   0.82928   0.41566   0.00000  Uiso   1.00
H1231  H     0.53778   0.81813   0.37117   0.00000  Uiso   1.00
H1232  H     0.58685   0.81927   0.37216   0.00000  Uiso   1.00
H1233  H     0.68606   0.93816   0.58829   0.00000  Uiso   1.00
H1234  H     0.96712   0.70123   0.52711   0.00000  Uiso   1.00
H1235  H     0.65048   0.99551   0.59132   0.00000  Uiso   1.00
H1236  H     0.67525   0.50553   0.63543   0.00000  Uiso   1.00
H1237  H     0.64588   0.96630   0.63309   0.00000  Uiso   1.00
H1238  H     0.76628   0.58750   0.41324   0.00000  Uiso   1.00
H1239  H     0.82869   0.56227   0.41584   0.00000  Uiso   1.00
H1240  H     0.81852   0.58751   0.37229   0.00000  Uiso   1.00
H1241  H     0.81790   0.53844   0.37135   0.00000  Uiso   1.00
H1242  H     0.56131   0.81444   0.58831   0.00000  Uiso   1.00
H1243  H     0.50368   0.84955   0.59133   0.00000  Uiso   1.00
H1244  H     0.53285   0.85439   0.63311   0.00000  Uiso   1.00
N1245  N     0.68668   0.97604   0.10054   0.00000  Uiso   1.00
N1246  N     0.56334   0.77392   0.39946   0.00000  Uiso   1.00
N1247  N     0.69512   0.96102   0.60281   0.00000  Uiso   1.00
N1248  N     0.77335   0.56356   0.39948   0.00000  Uiso   1.00
N1249  N     0.53853   0.80519   0.60282   0.00000  Uiso   1.00
N1250  N     0.93666   0.72608   0.39946   0.00000  Uiso   1.00
N1251  N     0.80488   0.53898   0.60281   0.00000  Uiso   1.00
N1252  N     0.72668   0.93644   0.39949   0.00000  Uiso   1.00
N1253  N     0.78852   0.55519   0.89718   0.00000  Uiso   1.00
N1254  N     0.97614   0.68664   0.10054   0.00000  Uiso   1.00
N1255  N     0.55516   0.78856   0.89719   0.00000  Uiso   1.00
N1256  N     0.81332   0.52395   0.10054   0.00000  Uiso   1.00
N1257  N     0.71148   0.94481   0.89718   0.00000  Uiso   1.00
N1258  N     0.52384   0.81337   0.10054   0.00000  Uiso   1.00
N1259  N     0.94483   0.71144   0.89718   0.00000  Uiso   1.00
N1260  N     0.96147   0.69481   0.60282   0.00000  Uiso   1.00
O1261  O     0.75000   0.50000   0.25000   0.00000  Uiso   1.00
O1262  O     0.75000   0.96964   0.66317   0.00000  Uiso   1.00
O1263  O     0.96964   0.75000   0.33683   0.00000  Uiso   1.00
O1264  O     0.53036   0.75000   0.66317   0.00000  Uiso   1.00
O1265  O     0.50000   0.71964   0.83683   0.00000  Uiso   1.00
O1266  O     0.50000   0.78036   0.16317   0.00000  Uiso   1.00
O1267  O     0.78036   0.50000   0.83683   0.00000  Uiso   1.00
O1268  O     0.71964   0.50000   0.16317   0.00000  Uiso   1.00
O1269  O     0.50000   0.78036   0.83683   0.00000  Uiso   1.00
O1270  O     0.50000   0.71964   0.16317   0.00000  Uiso   1.00
O1271  O     0.71964   0.50000   0.83683   0.00000  Uiso   1.00
O1272  O     0.75000   0.50000   0.75000   0.00000  Uiso   1.00
O1273  O     0.78036   0.50000   0.16317   0.00000  Uiso   1.00
O1274  O     0.70725   0.57307   0.27282   0.00000  Uiso   1.00
O1275  O     0.79274   0.92693   0.72718   0.00000  Uiso   1.00
O1276  O     0.92693   0.70725   0.27282   0.00000  Uiso   1.00
O1277  O     0.57307   0.79275   0.72718   0.00000  Uiso   1.00
O1278  O     0.79274   0.92693   0.27282   0.00000  Uiso   1.00
O1279  O     0.70725   0.57307   0.72718   0.00000  Uiso   1.00
O1280  O     0.57307   0.79275   0.27282   0.00000  Uiso   1.00
O1281  O     0.92693   0.70725   0.72718   0.00000  Uiso   1.00
O1282  O     0.70725   0.92693   0.72718   0.00000  Uiso   1.00
O1283  O     0.50000   0.75000   0.25000   0.00000  Uiso   1.00
O1284  O     0.79274   0.57307   0.27282   0.00000  Uiso   1.00
O1285  O     0.92693   0.79275   0.72718   0.00000  Uiso   1.00
O1286  O     0.57307   0.70726   0.27282   0.00000  Uiso   1.00
O1287  O     0.79274   0.57307   0.72718   0.00000  Uiso   1.00
O1288  O     0.70725   0.92693   0.27282   0.00000  Uiso   1.00
O1289  O     0.57307   0.70726   0.72718   0.00000  Uiso   1.00
O1290  O     0.92693   0.79275   0.27282   0.00000  Uiso   1.00
O1291  O     0.95725   0.82307   0.77282   0.00000  Uiso   1.00
O1292  O     0.54274   0.67693   0.22718   0.00000  Uiso   1.00
O1293  O     0.67693   0.95726   0.77282   0.00000  Uiso   1.00
O1294  O     0.50000   0.75000   0.75000   0.00000  Uiso   1.00
O1295  O     0.82307   0.54274   0.22718   0.00000  Uiso   1.00
O1296  O     0.54274   0.67693   0.77282   0.00000  Uiso   1.00
O1297  O     0.95725   0.82307   0.22718   0.00000  Uiso   1.00
O1298  O     0.82307   0.54274   0.77282   0.00000  Uiso   1.00
O1299  O     0.67693   0.95726   0.22718   0.00000  Uiso   1.00
O1300  O     0.95725   0.67693   0.22718   0.00000  Uiso   1.00
O1301  O     0.54274   0.82307   0.77282   0.00000  Uiso   1.00
O1302  O     0.67693   0.54274   0.22718   0.00000  Uiso   1.00
O1303  O     0.82307   0.95726   0.77282   0.00000  Uiso   1.00
O1304  O     0.54274   0.82307   0.22718   0.00000  Uiso   1.00
O1305  O     0.75000   0.96964   0.33683   0.00000  Uiso   1.00
O1306  O     0.95725   0.67693   0.77282   0.00000  Uiso   1.00
O1307  O     0.82307   0.95726   0.22718   0.00000  Uiso   1.00
O1308  O     0.67693   0.54274   0.77282   0.00000  Uiso   1.00
O1309  O     0.75000   0.53036   0.66317   0.00000  Uiso   1.00
O1310  O     0.53036   0.75000   0.33683   0.00000  Uiso   1.00
O1311  O     0.96964   0.75000   0.66317   0.00000  Uiso   1.00
O1312  O     0.75000   0.53036   0.33683   0.00000  Uiso   1.00
Zn1313 Zn    0.70660   0.50000   0.21760   0.00000  Uiso   1.00
Zn1314 Zn    0.54340   0.75000   0.28240   0.00000  Uiso   1.00
Zn1315 Zn    0.75000   0.95660   0.71760   0.00000  Uiso   1.00
Zn1316 Zn    0.75000   0.54340   0.28240   0.00000  Uiso   1.00
Zn1317 Zn    0.54340   0.75000   0.71760   0.00000  Uiso   1.00
Zn1318 Zn    0.95660   0.75000   0.28240   0.00000  Uiso   1.00
Zn1319 Zn    0.75000   0.54340   0.71760   0.00000  Uiso   1.00
Zn1320 Zn    0.75000   0.95660   0.28240   0.00000  Uiso   1.00
Zn1321 Zn    0.79340   0.50000   0.78240   0.00000  Uiso   1.00
Zn1322 Zn    0.50000   0.70660   0.21760   0.00000  Uiso   1.00
Zn1323 Zn    0.50000   0.79340   0.78240   0.00000  Uiso   1.00
Zn1324 Zn    0.79340   0.50000   0.21760   0.00000  Uiso   1.00
Zn1325 Zn    0.70660   0.50000   0.78240   0.00000  Uiso   1.00
Zn1326 Zn    0.50000   0.79340   0.21760   0.00000  Uiso   1.00
Zn1327 Zn    0.50000   0.70660   0.78240   0.00000  Uiso   1.00
Zn1328 Zn    0.95660   0.75000   0.71760   0.00000  Uiso   1.00
loop_
_geom_bond_atom_site_label_1
_geom_bond_atom_site_label_2
_geom_bond_distance
_geom_bond_site_symmetry_2
_ccdc_geom_bond_type
C1     C46     1.395   .     A
C1     H137    1.083   .     S
C1     C728    1.399   .     A
C2     H138    1.083   .     S
C2     C56     1.395   .     A
C2     C69     1.399   .     S
C3     C112    1.402   .     A
C3     C83     1.456   .     S
C3     C119    1.402   .     A
C4     C84     1.455   .     S
C4     C111    1.402   .     A
C4     C122    1.402   .     A
C5     C110    1.402   .     A
C5     C85     1.455   .     S
C5     C121    1.402   .     A
C6     C109    1.402   .     A
C6     C86     1.456   .     S
C6     C124    1.402   .     A
C7     C123    1.402   .     A
C7     C87     1.456   .     S
C7     C108    1.402   .     A
C8     C107    1.402   .     A
C8     C97     1.456   .     S
C8     C127    1.402   .     A
C9     C125    1.402   .     A
C9     C98     1.456   .     S
C9     C106    1.402   .     A
C10    C129    1.402   .     A
C10    C90     1.455   .     S
C10    C105    1.402   .     A
C11    C91     1.455   .     S
C11    C128    1.402   .     A
C11    C103    1.402   .     A
C12    C92     1.456   .     S
C12    C131    1.402   .     A
C12    C102    1.402   .     A
C13    C57     1.395   .     A
C13    H149    1.083   .     S
C13    C734    1.402   .     S
C14    C130    1.402   .     A
C14    C101    1.402   .     A
C14    C94     1.456   .     S
C15    C100    1.402   .     A
C15    C95     1.455   .     S
C15    C133    1.402   .     A
C16    C96     1.455   .     S
C16    C132    1.402   .     A
C16    C99     1.402   .     A
C17    C80     1.477   .     S
C17    C710    1.419   1_545 A
C17    C51     1.419   .     S
C18    C79     1.455   .     S
C18    C716    1.409   1_545 A
C18    C47     1.409   .     S
C19    C78     1.477   .     S
C19    C380    1.419   1_455 A
C19    C53     1.419   .     S
C20    C386    1.409   1_455 A
C20    C50     1.409   .     S
C20    C77     1.455   .     S
C21    C76     1.455   .     S
C21    C387    1.409   1_455 A
C21    C59     1.409   .     S
C22    C56     1.419   .     A
C22    C75     1.477   .     S
C22    C393    1.419   1_455 S
C23    C62     1.409   .     A
C23    C721    1.409   1_545 S
C23    C74     1.455   .     S
C24    C72     1.399   .     A
C24    H153    1.083   .     S
C24    C58     1.395   .     A
C25    C73     1.478   .     S
C25    C727    1.419   1_545 A
C25    C58     1.419   .     S
C26    H196    1.111   .     S
C26    H197    1.111   .     S
C26    N249    1.447   .     S
C26    H195    1.112   .     S
C27    H201    1.110   .     S
C27    N257    1.447   .     S
C27    H199    1.112   .     S
C27    H200    1.110   .     S
C28    H206    1.111   .     S
C28    H204    1.111   .     S
C28    N258    1.447   .     S
C28    H203    1.112   .     S
C29    H210    1.110   .     S
C29    H208    1.112   .     S
C29    N259    1.447   .     S
C29    H209    1.110   .     S
C30    H213    1.111   .     S
C30    N260    1.447   .     S
C30    H214    1.111   .     S
C30    H212    1.112   .     S
C31    N261    1.447   .     S
C31    H218    1.110   .     S
C31    H219    1.110   .     S
C31    H217    1.112   .     S
C32    H221    1.112   .     S
C32    H223    1.111   .     S
C32    N262    1.447   .     S
C32    H222    1.111   .     S
C33    H225    1.112   .     S
C33    H226    1.110   .     S
C33    N263    1.447   .     S
C33    H228    1.110   .     S
C34    H231    1.110   .     S
C34    N264    1.447   .     S
C34    H230    1.112   .     S
C34    H564    1.110   .     S
C35    H154    1.083   .     S
C35    C59     1.395   .     A
C35    C68     1.402   .     S
C36    H235    1.111   .     S
C36    N250    1.447   .     S
C36    H234    1.112   .     S
C36    H236    1.111   .     S
C37    H239    1.112   .     S
C37    N251    1.447   .     S
C37    H241    1.110   .     S
C37    H904    1.110   .     S
C38    H245    1.111   .     S
C38    H243    1.112   .     S
C38    N252    1.447   .     S
C38    H244    1.111   .     S
C39    N253    1.447   .     S
C39    H248    1.110   .     S
C39    H247    1.112   .     S
C39    H471    1.110   1_455 S
C40    N254    1.447   .     S
C40    H143    1.111   .     S
C40    H142    1.111   .     S
C40    H141    1.112   .     S
C41    N255    1.447   .     S
C41    H145    1.112   .     S
C41    H147    1.110   .     S
C41    H810    1.110   1_545 S
C42    H151    1.111   .     S
C42    H152    1.111   .     S
C42    N256    1.447   .     S
C42    H150    1.112   .     S
C43    C61     1.395   .     A
C43    C401    1.399   .     A
C43    H155    1.083   .     S
C44    C70     1.402   .     A
C44    H156    1.083   .     S
C44    C62     1.395   .     A
C45    H157    1.083   .     S
C45    C63     1.395   .     A
C45    C736    1.399   .     S
C46    N249    1.424   .     S
C46    C681    1.419   .     A
C47    N257    1.425   .     S
C47    C49     1.395   .     A
C48    N258    1.424   .     S
C48    C60     1.395   .     A
C48    C351    1.419   .     A
C49    H161    1.083   .     S
C49    C65     1.402   .     S
C50    C71     1.395   .     A
C50    N259    1.425   .     S
C51    N260    1.424   .     S
C51    C82     1.395   .     A
C52    N261    1.425   .     S
C52    C93     1.395   .     A
C52    C682    1.409   .     A
C53    C104    1.395   .     A
C53    N262    1.424   .     S
C54    C352    1.409   .     A
C54    N263    1.425   .     S
C54    C115    1.395   .     A
C55    C353    1.409   .     A
C55    C126    1.395   .     A
C55    N264    1.425   .     S
C56    N250    1.424   .     S
C57    N251    1.425   .     S
C57    C687    1.409   .     S
C58    N252    1.424   .     S
C59    N253    1.425   .     S
C60    C398    1.399   .     A
C60    H172    1.083   .     S
C61    N254    1.424   .     S
C61    C354    1.419   .     S
C62    N255    1.425   .     S
C63    N256    1.424   .     S
C63    C689    1.419   .     A
C64    C665    1.399   1_545 A
C64    C65     1.474   1_554 S
C64    C82     1.399   .     S
C65    C757    1.403   1_545 A
C65    C64     1.474   1_556 S
C66    C392    1.399   1_455 A
C66    C67     1.474   1_554 S
C66    C104    1.399   .     S
C67    C447    1.402   1_455 A
C67    C66     1.474   1_556 S
C67    C71     1.402   .     S
C68    C69     1.474   .     S
C68    C458    1.403   1_455 A
C69    C375    1.399   1_455 A
C70    C72     1.474   .     S
C70    C677    1.402   1_545 S
C71    H183    1.083   .     S
C72    C709    1.399   1_545 S
C73    O973    1.284   1_545 A
C73    O316    1.284   .     S
C74    O930    1.278   1_545 A
C74    O313    1.278   .     S
C75    O314    1.284   .     A
C75    O599    1.284   1_455 S
C76    O647    1.278   1_455 A
C76    O268    1.278   .     S
C77    O269    1.278   .     A
C77    O273    1.278   .     S
C78    O270    1.284   .     S
C78    O274    1.284   .     S
C79    O271    1.278   .     S
C79    O275    1.278   .     S
C80    O272    1.284   .     S
C80    O277    1.284   .     S
C81    C136    1.456   .     S
C81    O278    1.280   .     A
C81    O306    1.280   .     A
C82    H194    1.083   .     S
C83    O279    1.280   .     A
C83    O307    1.280   .     A
C84    O304    1.280   .     A
C84    O280    1.280   .     A
C85    O281    1.280   .     A
C85    O305    1.280   .     A
C86    O311    1.280   .     A
C86    O282    1.280   .     A
C87    O312    1.280   .     A
C87    O283    1.280   .     A
C88    O308    1.280   .     A
C88    O284    1.280   .     A
C88    C134    1.455   .     S
C89    O285    1.280   .     A
C89    C135    1.455   .     S
C89    O310    1.280   .     A
C90    O286    1.280   .     A
C90    O297    1.280   .     A
C91    O288    1.280   .     A
C91    O299    1.280   .     A
C92    O295    1.280   .     A
C92    O289    1.280   .     A
C93    C729    1.403   .     A
C93    H205    1.083   .     S
C94    O290    1.280   .     A
C94    O296    1.280   .     A
C95    O291    1.280   .     A
C95    O302    1.280   .     A
C96    O303    1.280   .     A
C96    O292    1.280   .     A
C97    O300    1.280   .     A
C97    O293    1.280   .     A
C98    O301    1.280   .     A
C98    O294    1.280   .     A
C99    C116    1.386   .     A
C99    H158    1.083   .     S
C100   C114    1.386   .     A
C100   H159    1.083   .     S
C101   C113    1.386   .     A
C101   H160    1.083   .     S
C102   C112    1.386   .     A
C102   H162    1.083   .     S
C103   C111    1.386   .     A
C103   H163    1.083   .     S
C104   H216    1.083   .     S
C105   C110    1.386   .     A
C105   H164    1.083   .     S
C106   C109    1.386   .     A
C106   H165    1.083   .     S
C107   C108    1.386   .     A
C107   H166    1.083   .     S
C108   H167    1.083   .     S
C109   H168    1.083   .     S
C110   H169    1.083   .     S
C111   H170    1.083   .     S
C112   H171    1.083   .     S
C113   C136    1.402   .     A
C113   H173    1.083   .     S
C114   H174    1.083   .     S
C114   C135    1.402   .     A
C115   H227    1.083   .     S
C115   C399    1.402   .     A
C116   H175    1.083   .     S
C116   C134    1.402   .     A
C117   C133    1.386   .     A
C117   C135    1.402   .     A
C117   H176    1.083   .     S
C118   C134    1.402   .     A
C118   C132    1.386   .     A
C118   H177    1.083   .     S
C119   C131    1.386   .     A
C119   H178    1.083   .     S
C120   H179    1.083   .     S
C120   C136    1.402   .     A
C120   C130    1.386   .     A
C121   H180    1.083   .     S
C121   C129    1.386   .     A
C122   H181    1.083   .     S
C122   C128    1.386   .     A
C123   C127    1.386   .     A
C123   H182    1.083   .     S
C124   H184    1.083   .     S
C124   C125    1.386   .     A
C125   H185    1.083   .     S
C126   H238    1.083   .     S
C126   C400    1.403   .     A
C127   H186    1.083   .     S
C128   H187    1.083   .     S
C129   H188    1.083   .     S
C130   H189    1.083   .     S
C131   H190    1.083   .     S
C132   H191    1.083   .     S
C133   H192    1.083   .     S
H139   C371    1.110   .     S
H140   N254    1.032   .     S
H144   N255    1.032   .     S
H146   C705    1.110   .     S
H148   N256    1.032   .     S
H193   N249    1.032   .     S
H198   N257    1.032   .     S
H202   N258    1.032   .     S
H207   N259    1.032   .     S
H211   N260    1.032   .     S
H215   N261    1.032   .     S
H220   N262    1.032   .     S
H224   N263    1.032   .     S
H229   N264    1.032   .     S
H232   C366    1.110   1_455 S
H233   N250    1.032   .     S
H237   N251    1.032   .     S
H240   C701    1.110   1_545 S
H242   N252    1.032   .     S
H246   N253    1.032   .     S
O265   Zn320   1.947   .     S
O265   Zn328   1.947   .     S
O265   Zn317   1.947   .     S
O265   Zn988   1.947   1_545 S
O266   Zn319   1.943   .     S
O266   C738    1.278   .     A
O267   Zn322   1.943   .     S
O267   C407    1.284   .     S
O268   Zn321   1.943   .     S
O269   Zn331   1.943   .     S
O270   Zn330   1.943   .     S
O271   Zn325   1.943   .     S
O272   Zn317   1.943   .     S
O273   Zn327   1.943   .     S
O274   Zn326   1.943   .     S
O275   Zn329   1.943   .     S
O276   Zn323   1.947   .     S
O276   Zn325   1.947   .     S
O276   Zn329   1.947   .     S
O276   Zn983   1.947   1_545 S
O277   Zn328   1.943   .     S
O278   Zn320   1.937   .     S
O279   Zn319   1.937   .     S
O280   Zn322   1.936   .     S
O281   Zn321   1.936   .     S
O282   Zn324   1.937   .     S
O283   Zn323   1.937   .     S
O284   Zn318   1.936   .     S
O285   Zn332   1.936   .     S
O286   Zn319   1.936   .     S
O287   Zn318   1.947   .     S
O287   Zn654   1.947   1_455 S
O287   Zn326   1.947   .     S
O287   Zn330   1.947   .     S
O288   Zn320   1.936   .     S
O289   Zn332   1.937   .     S
O290   Zn318   1.937   .     S
O291   Zn323   1.936   .     S
O292   Zn324   1.936   .     S
O293   Zn321   1.937   .     S
O294   Zn322   1.937   .     S
O295   Zn659   1.937   .     S
O296   Zn326   1.937   .     S
O297   Zn993   1.936   .     S
O298   Zn321   1.947   .     S
O298   Zn327   1.947   .     S
O298   Zn331   1.947   .     S
O298   Zn664   1.947   1_455 S
O299   Zn328   1.936   .     S
O300   Zn331   1.937   .     S
O301   Zn662   1.937   .     S
O302   Zn325   1.936   .     S
O303   Zn981   1.936   .     S
O304   Zn658   1.936   .     S
O305   Zn327   1.936   .     S
O306   Zn317   1.937   .     S
O307   Zn989   1.937   .     S
O308   Zn330   1.936   .     S
O309   Zn324   1.943   .     S
O309   C737    1.284   .     A
O310   Zn663   1.936   .     S
O311   Zn992   1.937   .     S
O312   Zn329   1.937   .     S
O313   Zn323   1.943   .     S
O314   Zn318   1.943   .     S
O315   C408    1.278   .     A
O315   Zn332   1.943   .     S
O316   Zn320   1.943   .     S
Zn317  O967    1.936   1_545 S
Zn319  O940    1.947   .     S
Zn322  O619    1.947   .     S
Zn324  O929    1.947   .     S
Zn325  O971    1.937   1_545 S
Zn326  O636    1.936   1_455 S
Zn327  O627    1.937   1_455 S
Zn328  O975    1.937   1_545 S
Zn329  O961    1.936   1_545 S
Zn330  O633    1.937   1_455 S
Zn331  O642    1.936   1_455 S
Zn332  O630    1.947   .     S
C333   C378    1.395   .     A
C333   H469    1.083   .     S
C333   C1060   1.399   .     A
C334   H470    1.083   .     S
C334   C388    1.395   .     A
C334   C401    1.399   .     S
C335   C444    1.402   .     A
C335   C415    1.456   .     S
C335   C451    1.402   .     A
C336   C416    1.455   .     S
C336   C443    1.402   .     A
C336   C454    1.402   .     A
C337   C442    1.402   .     A
C337   C417    1.455   .     S
C337   C453    1.402   .     A
C338   C441    1.402   .     A
C338   C418    1.456   .     S
C338   C456    1.402   .     A
C339   C455    1.402   .     A
C339   C419    1.456   .     S
C339   C440    1.402   .     A
C340   C439    1.402   .     A
C340   C429    1.456   .     S
C340   C459    1.402   .     A
C341   C457    1.402   .     A
C341   C430    1.456   .     S
C341   C438    1.402   .     A
C342   C461    1.402   .     A
C342   C422    1.455   .     S
C342   C437    1.402   .     A
C343   C423    1.455   .     S
C343   C460    1.402   .     A
C343   C435    1.402   .     A
C344   C424    1.456   .     S
C344   C463    1.402   .     A
C344   C434    1.402   .     A
C345   C389    1.395   .     A
C345   H481    1.083   .     S
C345   C1066   1.402   .     S
C346   C462    1.402   .     A
C346   C433    1.402   .     A
C346   C426    1.456   .     S
C347   C432    1.402   .     A
C347   C427    1.455   .     S
C347   C465    1.402   .     A
C348   C428    1.455   .     S
C348   C464    1.402   .     A
C348   C431    1.402   .     A
C349   C412    1.477   .     S
C349   C1042   1.419   1_545 A
C349   C383    1.419   .     S
C350   C411    1.455   .     S
C350   C1048   1.409   1_545 A
C350   C379    1.409   .     S
C351   C410    1.477   .     S
C351   C385    1.419   .     S
C352   C382    1.409   .     S
C352   C409    1.455   .     S
C353   C408    1.455   .     S
C353   C391    1.409   .     S
C354   C388    1.419   .     A
C354   C407    1.477   .     S
C355   C394    1.409   .     A
C355   C1053   1.409   1_545 S
C355   C406    1.455   .     S
C356   C404    1.399   .     A
C356   H485    1.083   .     S
C356   C390    1.395   .     A
C357   C405    1.478   .     S
C357   C1059   1.419   1_545 A
C357   C390    1.419   .     S
C358   H528    1.111   .     S
C358   H529    1.111   .     S
C358   N581    1.447   .     S
C358   H527    1.112   .     S
C359   H533    1.110   .     S
C359   N589    1.447   .     S
C359   H531    1.112   .     S
C359   H532    1.110   .     S
C360   H538    1.111   .     S
C360   H536    1.111   .     S
C360   N590    1.447   .     S
C360   H535    1.112   .     S
C361   H542    1.110   .     S
C361   H540    1.112   .     S
C361   N591    1.447   .     S
C361   H541    1.110   .     S
C362   H545    1.111   .     S
C362   N592    1.447   .     S
C362   H546    1.111   .     S
C362   H544    1.112   .     S
C363   N593    1.447   .     S
C363   H550    1.110   .     S
C363   H551    1.110   .     S
C363   H549    1.112   .     S
C364   H553    1.112   .     S
C364   H555    1.111   .     S
C364   N594    1.447   .     S
C364   H554    1.111   .     S
C365   H557    1.112   .     S
C365   H558    1.110   .     S
C365   N595    1.447   .     S
C365   H560    1.110   .     S
C366   H563    1.110   .     S
C366   N596    1.447   .     S
C366   H562    1.112   .     S
C366   H232    1.110   1_655 S
C367   H486    1.083   .     S
C367   C391    1.395   .     A
C367   C400    1.402   .     S
C368   H567    1.111   .     S
C368   N582    1.447   .     S
C368   H566    1.112   .     S
C368   H568    1.111   .     S
C369   H571    1.112   .     S
C369   N583    1.447   .     S
C369   H573    1.110   .     S
C369   H1236   1.110   .     S
C370   H577    1.111   .     S
C370   H575    1.112   .     S
C370   N584    1.447   .     S
C370   H576    1.111   .     S
C371   N585    1.447   .     S
C371   H580    1.110   .     S
C371   H579    1.112   .     S
C372   N586    1.447   .     S
C372   H475    1.111   .     S
C372   H474    1.111   .     S
C372   H473    1.112   .     S
C373   N587    1.447   .     S
C373   H477    1.112   .     S
C373   H479    1.110   .     S
C373   H1142   1.110   1_545 S
C374   H483    1.111   .     S
C374   H484    1.111   .     S
C374   N588    1.447   .     S
C374   H482    1.112   .     S
C375   C393    1.395   .     A
C375   C69     1.399   1_655 A
C375   H487    1.083   .     S
C376   C402    1.402   .     A
C376   H488    1.083   .     S
C376   C394    1.395   .     A
C377   H489    1.083   .     S
C377   C395    1.395   .     A
C377   C1068   1.399   .     S
C378   N581    1.424   .     S
C378   C1013   1.419   .     A
C379   N589    1.425   .     S
C379   C381    1.395   .     A
C380   N590    1.424   .     S
C380   C392    1.395   .     A
C380   C19     1.419   1_655 A
C381   H493    1.083   .     S
C381   C397    1.402   .     S
C382   C403    1.395   .     A
C382   N591    1.425   .     S
C383   N592    1.424   .     S
C383   C414    1.395   .     A
C384   N593    1.425   .     S
C384   C425    1.395   .     A
C384   C1014   1.409   .     A
C385   C436    1.395   .     A
C385   N594    1.424   .     S
C386   C20     1.409   1_655 A
C386   N595    1.425   .     S
C386   C447    1.395   .     A
C387   C21     1.409   1_655 A
C387   C458    1.395   .     A
C387   N596    1.425   .     S
C388   N582    1.424   .     S
C389   N583    1.425   .     S
C389   C1019   1.409   .     S
C390   N584    1.424   .     S
C391   N585    1.425   .     S
C392   C66     1.399   1_655 A
C392   H504    1.083   .     S
C393   N586    1.424   .     S
C393   C22     1.419   1_655 S
C394   N587    1.425   .     S
C395   N588    1.424   .     S
C395   C1021   1.419   .     A
C396   C997    1.399   1_545 A
C396   C397    1.474   1_554 S
C396   C414    1.399   .     S
C397   C1089   1.403   1_545 A
C397   C396    1.474   1_556 S
C398   C399    1.474   1_554 S
C398   C436    1.399   .     S
C399   C398    1.474   1_556 S
C399   C403    1.402   .     S
C400   C401    1.474   .     S
C402   C404    1.474   .     S
C402   C1009   1.402   1_545 S
C403   H515    1.083   .     S
C404   C1041   1.399   1_545 S
C405   O1305   1.284   1_545 A
C405   O648    1.284   .     S
C406   O1262   1.278   1_545 A
C406   O645    1.278   .     S
C407   O646    1.284   .     A
C408   O600    1.278   .     S
C409   O601    1.278   .     A
C409   O605    1.278   .     S
C410   O602    1.284   .     S
C410   O606    1.284   .     S
C411   O603    1.278   .     S
C411   O607    1.278   .     S
C412   O604    1.284   .     S
C412   O609    1.284   .     S
C413   C468    1.456   .     S
C413   O610    1.280   .     A
C413   O638    1.280   .     A
C414   H526    1.083   .     S
C415   O611    1.280   .     A
C415   O639    1.280   .     A
C416   O636    1.280   .     A
C416   O612    1.280   .     A
C417   O613    1.280   .     A
C417   O637    1.280   .     A
C418   O643    1.280   .     A
C418   O614    1.280   .     A
C419   O644    1.280   .     A
C419   O615    1.280   .     A
C420   O640    1.280   .     A
C420   O616    1.280   .     A
C420   C466    1.455   .     S
C421   O617    1.280   .     A
C421   C467    1.455   .     S
C421   O642    1.280   .     A
C422   O618    1.280   .     A
C422   O629    1.280   .     A
C423   O620    1.280   .     A
C423   O631    1.280   .     A
C424   O627    1.280   .     A
C424   O621    1.280   .     A
C425   C1061   1.403   .     A
C425   H537    1.083   .     S
C426   O622    1.280   .     A
C426   O628    1.280   .     A
C427   O623    1.280   .     A
C427   O634    1.280   .     A
C428   O635    1.280   .     A
C428   O624    1.280   .     A
C429   O632    1.280   .     A
C429   O625    1.280   .     A
C430   O633    1.280   .     A
C430   O626    1.280   .     A
C431   C448    1.386   .     A
C431   H490    1.083   .     S
C432   C446    1.386   .     A
C432   H491    1.083   .     S
C433   C445    1.386   .     A
C433   H492    1.083   .     S
C434   C444    1.386   .     A
C434   H494    1.083   .     S
C435   C443    1.386   .     A
C435   H495    1.083   .     S
C436   H548    1.083   .     S
C437   C442    1.386   .     A
C437   H496    1.083   .     S
C438   C441    1.386   .     A
C438   H497    1.083   .     S
C439   C440    1.386   .     A
C439   H498    1.083   .     S
C440   H499    1.083   .     S
C441   H500    1.083   .     S
C442   H501    1.083   .     S
C443   H502    1.083   .     S
C444   H503    1.083   .     S
C445   C468    1.402   .     A
C445   H505    1.083   .     S
C446   H506    1.083   .     S
C446   C467    1.402   .     A
C447   H559    1.083   .     S
C447   C67     1.402   1_655 A
C448   H507    1.083   .     S
C448   C466    1.402   .     A
C449   C465    1.386   .     A
C449   C467    1.402   .     A
C449   H508    1.083   .     S
C450   C466    1.402   .     A
C450   C464    1.386   .     A
C450   H509    1.083   .     S
C451   C463    1.386   .     A
C451   H510    1.083   .     S
C452   H511    1.083   .     S
C452   C468    1.402   .     A
C452   C462    1.386   .     A
C453   H512    1.083   .     S
C453   C461    1.386   .     A
C454   H513    1.083   .     S
C454   C460    1.386   .     A
C455   C459    1.386   .     A
C455   H514    1.083   .     S
C456   H516    1.083   .     S
C456   C457    1.386   .     A
C457   H517    1.083   .     S
C458   H570    1.083   .     S
C458   C68     1.403   1_655 A
C459   H518    1.083   .     S
C460   H519    1.083   .     S
C461   H520    1.083   .     S
C462   H521    1.083   .     S
C463   H522    1.083   .     S
C464   H523    1.083   .     S
C465   H524    1.083   .     S
H471   C39     1.110   1_655 S
H472   N586    1.032   .     S
H476   N587    1.032   .     S
H478   C1037   1.110   .     S
H480   N588    1.032   .     S
H525   N581    1.032   .     S
H530   N589    1.032   .     S
H534   N590    1.032   .     S
H539   N591    1.032   .     S
H543   N592    1.032   .     S
H547   N593    1.032   .     S
H552   N594    1.032   .     S
H556   N595    1.032   .     S
H561   N596    1.032   .     S
H565   N582    1.032   .     S
H569   N583    1.032   .     S
H572   C1033   1.110   1_545 S
H574   N584    1.032   .     S
H578   N585    1.032   .     S
O597   Zn652   1.947   .     S
O597   Zn660   1.947   .     S
O597   Zn649   1.947   .     S
O597   Zn1320  1.947   1_545 S
O598   Zn651   1.943   .     S
O598   C1070   1.278   .     A
O599   Zn654   1.943   .     S
O599   C75     1.284   1_655 S
O600   Zn653   1.943   .     S
O601   Zn663   1.943   .     S
O602   Zn662   1.943   .     S
O603   Zn657   1.943   .     S
O604   Zn649   1.943   .     S
O605   Zn659   1.943   .     S
O606   Zn658   1.943   .     S
O607   Zn661   1.943   .     S
O608   Zn655   1.947   .     S
O608   Zn657   1.947   .     S
O608   Zn661   1.947   .     S
O608   Zn1315  1.947   1_545 S
O609   Zn660   1.943   .     S
O610   Zn652   1.937   .     S
O611   Zn651   1.937   .     S
O612   Zn654   1.936   .     S
O613   Zn653   1.936   .     S
O614   Zn656   1.937   .     S
O615   Zn655   1.937   .     S
O616   Zn650   1.936   .     S
O617   Zn664   1.936   .     S
O618   Zn651   1.936   .     S
O619   Zn650   1.947   .     S
O619   Zn658   1.947   .     S
O619   Zn662   1.947   .     S
O620   Zn652   1.936   .     S
O621   Zn664   1.937   .     S
O622   Zn650   1.937   .     S
O623   Zn655   1.936   .     S
O624   Zn656   1.936   .     S
O625   Zn653   1.937   .     S
O626   Zn654   1.937   .     S
O627   Zn327   1.937   1_655 S
O628   Zn658   1.937   .     S
O629   Zn1325  1.936   .     S
O630   Zn653   1.947   .     S
O630   Zn659   1.947   .     S
O630   Zn663   1.947   .     S
O631   Zn660   1.936   .     S
O632   Zn663   1.937   .     S
O633   Zn330   1.937   1_655 S
O634   Zn657   1.936   .     S
O635   Zn1313  1.936   .     S
O636   Zn326   1.936   1_655 S
O637   Zn659   1.936   .     S
O638   Zn649   1.937   .     S
O639   Zn1321  1.937   .     S
O640   Zn662   1.936   .     S
O641   Zn656   1.943   .     S
O641   C1069   1.284   .     A
O642   Zn331   1.936   1_655 S
O643   Zn1324  1.937   .     S
O644   Zn661   1.937   .     S
O645   Zn655   1.943   .     S
O646   Zn650   1.943   .     S
O647   C76     1.278   1_655 A
O647   Zn664   1.943   .     S
O648   Zn652   1.943   .     S
Zn649  O1299   1.936   1_545 S
Zn651  O1272   1.947   .     S
Zn654  O287    1.947   1_655 S
Zn656  O1261   1.947   .     S
Zn657  O1303   1.937   1_545 S
Zn660  O1307   1.937   1_545 S
Zn661  O1293   1.936   1_545 S
Zn664  O298    1.947   1_655 S
C665   C710    1.395   .     A
C665   H801    1.083   .     S
C665   C64     1.399   1_565 A
C666   H802    1.083   .     S
C666   C720    1.395   .     A
C666   C733    1.399   .     S
C667   C776    1.402   .     A
C667   C747    1.456   .     S
C667   C783    1.402   .     A
C668   C748    1.455   .     S
C668   C775    1.402   .     A
C668   C786    1.402   .     A
C669   C774    1.402   .     A
C669   C749    1.455   .     S
C669   C785    1.402   .     A
C670   C773    1.402   .     A
C670   C750    1.456   .     S
C670   C788    1.402   .     A
C671   C787    1.402   .     A
C671   C751    1.456   .     S
C671   C772    1.402   .     A
C672   C771    1.402   .     A
C672   C761    1.456   .     S
C672   C791    1.402   .     A
C673   C789    1.402   .     A
C673   C762    1.456   .     S
C673   C770    1.402   .     A
C674   C793    1.402   .     A
C674   C754    1.455   .     S
C674   C769    1.402   .     A
C675   C755    1.455   .     S
C675   C792    1.402   .     A
C675   C767    1.402   .     A
C676   C756    1.456   .     S
C676   C795    1.402   .     A
C676   C766    1.402   .     A
C677   C721    1.395   .     A
C677   H813    1.083   .     S
C677   C70     1.402   1_565 S
C678   C794    1.402   .     A
C678   C765    1.402   .     A
C678   C758    1.456   .     S
C679   C764    1.402   .     A
C679   C759    1.455   .     S
C679   C797    1.402   .     A
C680   C760    1.455   .     S
C680   C796    1.402   .     A
C680   C763    1.402   .     A
C681   C744    1.477   .     S
C681   C715    1.419   .     S
C682   C743    1.455   .     S
C682   C711    1.409   .     S
C683   C742    1.477   .     S
C683   C1044   1.419   1_455 A
C683   C717    1.419   .     S
C684   C1050   1.409   1_455 A
C684   C714    1.409   .     S
C684   C741    1.455   .     S
C685   C740    1.455   .     S
C685   C1051   1.409   1_455 A
C685   C723    1.409   .     S
C686   C720    1.419   .     A
C686   C739    1.477   .     S
C686   C1057   1.419   1_455 S
C687   C726    1.409   .     A
C687   C738    1.455   .     S
C688   C736    1.399   .     A
C688   H817    1.083   .     S
C688   C722    1.395   .     A
C689   C737    1.478   .     S
C689   C722    1.419   .     S
C690   H860    1.111   .     S
C690   H861    1.111   .     S
C690   N913    1.447   .     S
C690   H859    1.112   .     S
C691   H865    1.110   .     S
C691   N921    1.447   .     S
C691   H863    1.112   .     S
C691   H864    1.110   .     S
C692   H870    1.111   .     S
C692   H868    1.111   .     S
C692   N922    1.447   .     S
C692   H867    1.112   .     S
C693   H874    1.110   .     S
C693   H872    1.112   .     S
C693   N923    1.447   .     S
C693   H873    1.110   .     S
C694   H877    1.111   .     S
C694   N924    1.447   .     S
C694   H878    1.111   .     S
C694   H876    1.112   .     S
C695   N925    1.447   .     S
C695   H882    1.110   .     S
C695   H883    1.110   .     S
C695   H881    1.112   .     S
C696   H885    1.112   .     S
C696   H887    1.111   .     S
C696   N926    1.447   .     S
C696   H886    1.111   .     S
C697   H889    1.112   .     S
C697   H890    1.110   .     S
C697   N927    1.447   .     S
C697   H892    1.110   .     S
C698   H895    1.110   .     S
C698   N928    1.447   .     S
C698   H894    1.112   .     S
C698   H1228   1.110   .     S
C699   H818    1.083   .     S
C699   C723    1.395   .     A
C699   C732    1.402   .     S
C700   H899    1.111   .     S
C700   N914    1.447   .     S
C700   H898    1.112   .     S
C700   H900    1.111   .     S
C701   H903    1.112   .     S
C701   N915    1.447   .     S
C701   H905    1.110   .     S
C701   H240    1.110   1_565 S
C702   H909    1.111   .     S
C702   H907    1.112   .     S
C702   N916    1.447   .     S
C702   H908    1.111   .     S
C703   N917    1.447   .     S
C703   H912    1.110   .     S
C703   H911    1.112   .     S
C703   H1135   1.110   1_455 S
C704   N918    1.447   .     S
C704   H807    1.111   .     S
C704   H806    1.111   .     S
C704   H805    1.112   .     S
C705   N919    1.447   .     S
C705   H809    1.112   .     S
C705   H811    1.110   .     S
C706   H815    1.111   .     S
C706   H816    1.111   .     S
C706   N920    1.447   .     S
C706   H814    1.112   .     S
C707   C725    1.395   .     A
C707   C1065   1.399   .     A
C707   H819    1.083   .     S
C708   C734    1.402   .     A
C708   H820    1.083   .     S
C708   C726    1.395   .     A
C709   H821    1.083   .     S
C709   C727    1.395   .     A
C709   C72     1.399   1_565 S
C710   N913    1.424   .     S
C710   C17     1.419   1_565 A
C711   N921    1.425   .     S
C711   C713    1.395   .     A
C712   N922    1.424   .     S
C712   C724    1.395   .     A
C712   C1015   1.419   .     A
C713   H825    1.083   .     S
C713   C729    1.402   .     S
C714   C735    1.395   .     A
C714   N923    1.425   .     S
C715   N924    1.424   .     S
C715   C746    1.395   .     A
C716   N925    1.425   .     S
C716   C757    1.395   .     A
C716   C18     1.409   1_565 A
C717   C768    1.395   .     A
C717   N926    1.424   .     S
C718   C1016   1.409   .     A
C718   N927    1.425   .     S
C718   C779    1.395   .     A
C719   C1017   1.409   .     A
C719   C790    1.395   .     A
C719   N928    1.425   .     S
C720   N914    1.424   .     S
C721   N915    1.425   .     S
C721   C23     1.409   1_565 S
C722   N916    1.424   .     S
C723   N917    1.425   .     S
C724   C1062   1.399   .     A
C724   H836    1.083   .     S
C725   N918    1.424   .     S
C725   C1018   1.419   .     S
C726   N919    1.425   .     S
C727   N920    1.424   .     S
C727   C25     1.419   1_565 A
C728   C729    1.474   1_554 S
C728   C746    1.399   .     S
C729   C728    1.474   1_556 S
C730   C1056   1.399   1_455 A
C730   C731    1.474   1_554 S
C730   C768    1.399   .     S
C731   C1111   1.402   1_455 A
C731   C730    1.474   1_556 S
C731   C735    1.402   .     S
C732   C733    1.474   .     S
C732   C1122   1.403   1_455 A
C733   C1039   1.399   1_455 A
C734   C736    1.474   .     S
C735   H847    1.083   .     S
C737   O980    1.284   .     S
C738   O977    1.278   .     S
C739   O978    1.284   .     A
C739   O1263   1.284   1_455 S
C740   O1311   1.278   1_455 A
C740   O932    1.278   .     S
C741   O933    1.278   .     A
C741   O937    1.278   .     S
C742   O934    1.284   .     S
C742   O938    1.284   .     S
C743   O935    1.278   .     S
C743   O939    1.278   .     S
C744   O936    1.284   .     S
C744   O941    1.284   .     S
C745   C800    1.456   .     S
C745   O942    1.280   .     A
C745   O970    1.280   .     A
C746   H858    1.083   .     S
C747   O943    1.280   .     A
C747   O971    1.280   .     A
C748   O968    1.280   .     A
C748   O944    1.280   .     A
C749   O945    1.280   .     A
C749   O969    1.280   .     A
C750   O975    1.280   .     A
C750   O946    1.280   .     A
C751   O976    1.280   .     A
C751   O947    1.280   .     A
C752   O972    1.280   .     A
C752   O948    1.280   .     A
C752   C798    1.455   .     S
C753   O949    1.280   .     A
C753   C799    1.455   .     S
C753   O974    1.280   .     A
C754   O950    1.280   .     A
C754   O961    1.280   .     A
C755   O952    1.280   .     A
C755   O963    1.280   .     A
C756   O959    1.280   .     A
C756   O953    1.280   .     A
C757   C65     1.403   1_565 A
C757   H869    1.083   .     S
C758   O954    1.280   .     A
C758   O960    1.280   .     A
C759   O955    1.280   .     A
C759   O966    1.280   .     A
C760   O967    1.280   .     A
C760   O956    1.280   .     A
C761   O964    1.280   .     A
C761   O957    1.280   .     A
C762   O965    1.280   .     A
C762   O958    1.280   .     A
C763   C780    1.386   .     A
C763   H822    1.083   .     S
C764   C778    1.386   .     A
C764   H823    1.083   .     S
C765   C777    1.386   .     A
C765   H824    1.083   .     S
C766   C776    1.386   .     A
C766   H826    1.083   .     S
C767   C775    1.386   .     A
C767   H827    1.083   .     S
C768   H880    1.083   .     S
C769   C774    1.386   .     A
C769   H828    1.083   .     S
C770   C773    1.386   .     A
C770   H829    1.083   .     S
C771   C772    1.386   .     A
C771   H830    1.083   .     S
C772   H831    1.083   .     S
C773   H832    1.083   .     S
C774   H833    1.083   .     S
C775   H834    1.083   .     S
C776   H835    1.083   .     S
C777   C800    1.402   .     A
C777   H837    1.083   .     S
C778   H838    1.083   .     S
C778   C799    1.402   .     A
C779   H891    1.083   .     S
C779   C1063   1.402   .     A
C780   H839    1.083   .     S
C780   C798    1.402   .     A
C781   C797    1.386   .     A
C781   C799    1.402   .     A
C781   H840    1.083   .     S
C782   C798    1.402   .     A
C782   C796    1.386   .     A
C782   H841    1.083   .     S
C783   C795    1.386   .     A
C783   H842    1.083   .     S
C784   H843    1.083   .     S
C784   C800    1.402   .     A
C784   C794    1.386   .     A
C785   H844    1.083   .     S
C785   C793    1.386   .     A
C786   H845    1.083   .     S
C786   C792    1.386   .     A
C787   C791    1.386   .     A
C787   H846    1.083   .     S
C788   H848    1.083   .     S
C788   C789    1.386   .     A
C789   H849    1.083   .     S
C790   H902    1.083   .     S
C790   C1064   1.403   .     A
C791   H850    1.083   .     S
C792   H851    1.083   .     S
C793   H852    1.083   .     S
C794   H853    1.083   .     S
C795   H854    1.083   .     S
C796   H855    1.083   .     S
C797   H856    1.083   .     S
H803   C1035   1.110   .     S
H804   N918    1.032   .     S
H808   N919    1.032   .     S
H810   C41     1.110   1_565 S
H812   N920    1.032   .     S
H857   N913    1.032   .     S
H862   N921    1.032   .     S
H866   N922    1.032   .     S
H871   N923    1.032   .     S
H875   N924    1.032   .     S
H879   N925    1.032   .     S
H884   N926    1.032   .     S
H888   N927    1.032   .     S
H893   N928    1.032   .     S
H896   C1030   1.110   1_455 S
H897   N914    1.032   .     S
H901   N915    1.032   .     S
H906   N916    1.032   .     S
H910   N917    1.032   .     S
O929   Zn984   1.947   .     S
O929   Zn992   1.947   .     S
O929   Zn981   1.947   .     S
O930   Zn983   1.943   .     S
O930   C74     1.278   1_565 A
O931   Zn986   1.943   .     S
O931   C1071   1.284   .     S
O932   Zn985   1.943   .     S
O933   Zn995   1.943   .     S
O934   Zn994   1.943   .     S
O935   Zn989   1.943   .     S
O936   Zn981   1.943   .     S
O937   Zn991   1.943   .     S
O938   Zn990   1.943   .     S
O939   Zn993   1.943   .     S
O940   Zn987   1.947   .     S
O940   Zn989   1.947   .     S
O940   Zn993   1.947   .     S
O941   Zn992   1.943   .     S
O942   Zn984   1.937   .     S
O943   Zn983   1.937   .     S
O944   Zn986   1.936   .     S
O945   Zn985   1.936   .     S
O946   Zn988   1.937   .     S
O947   Zn987   1.937   .     S
O948   Zn982   1.936   .     S
O949   Zn996   1.936   .     S
O950   Zn983   1.936   .     S
O951   Zn982   1.947   .     S
O951   Zn1318  1.947   1_455 S
O951   Zn990   1.947   .     S
O951   Zn994   1.947   .     S
O952   Zn984   1.936   .     S
O953   Zn996   1.937   .     S
O954   Zn982   1.937   .     S
O955   Zn987   1.936   .     S
O956   Zn988   1.936   .     S
O957   Zn985   1.937   .     S
O958   Zn986   1.937   .     S
O959   Zn1323  1.937   .     S
O960   Zn990   1.937   .     S
O961   Zn329   1.936   1_565 S
O962   Zn985   1.947   .     S
O962   Zn991   1.947   .     S
O962   Zn995   1.947   .     S
O962   Zn1328  1.947   1_455 S
O963   Zn992   1.936   .     S
O964   Zn995   1.937   .     S
O965   Zn1326  1.937   .     S
O966   Zn989   1.936   .     S
O967   Zn317   1.936   1_565 S
O968   Zn1322  1.936   .     S
O969   Zn991   1.936   .     S
O970   Zn981   1.937   .     S
O971   Zn325   1.937   1_565 S
O972   Zn994   1.936   .     S
O973   Zn988   1.943   .     S
O973   C73     1.284   1_565 A
O974   Zn1327  1.936   .     S
O975   Zn328   1.937   1_565 S
O976   Zn993   1.937   .     S
O977   Zn987   1.943   .     S
O978   Zn982   1.943   .     S
O979   C1072   1.278   .     A
O979   Zn996   1.943   .     S
O980   Zn984   1.943   .     S
Zn983  O276    1.947   1_565 S
Zn986  O1283   1.947   .     S
Zn988  O265    1.947   1_565 S
Zn990  O1300   1.936   1_455 S
Zn991  O1291   1.937   1_455 S
Zn994  O1297   1.937   1_455 S
Zn995  O1306   1.936   1_455 S
Zn996  O1294   1.947   .     S
C997   C1042   1.395   .     A
C997   H1133   1.083   .     S
C997   C396    1.399   1_565 A
C998   H1134   1.083   .     S
C998   C1052   1.395   .     A
C998   C1065   1.399   .     S
C999   C1108   1.402   .     A
C999   C1079   1.456   .     S
C999   C1115   1.402   .     A
C1000  C1080   1.455   .     S
C1000  C1107   1.402   .     A
C1000  C1118   1.402   .     A
C1001  C1106   1.402   .     A
C1001  C1081   1.455   .     S
C1001  C1117   1.402   .     A
C1002  C1105   1.402   .     A
C1002  C1082   1.456   .     S
C1002  C1120   1.402   .     A
C1003  C1119   1.402   .     A
C1003  C1083   1.456   .     S
C1003  C1104   1.402   .     A
C1004  C1103   1.402   .     A
C1004  C1093   1.456   .     S
C1004  C1123   1.402   .     A
C1005  C1121   1.402   .     A
C1005  C1094   1.456   .     S
C1005  C1102   1.402   .     A
C1006  C1125   1.402   .     A
C1006  C1086   1.455   .     S
C1006  C1101   1.402   .     A
C1007  C1087   1.455   .     S
C1007  C1124   1.402   .     A
C1007  C1099   1.402   .     A
C1008  C1088   1.456   .     S
C1008  C1127   1.402   .     A
C1008  C1098   1.402   .     A
C1009  C1053   1.395   .     A
C1009  H1145   1.083   .     S
C1009  C402    1.402   1_565 S
C1010  C1126   1.402   .     A
C1010  C1097   1.402   .     A
C1010  C1090   1.456   .     S
C1011  C1096   1.402   .     A
C1011  C1091   1.455   .     S
C1011  C1129   1.402   .     A
C1012  C1092   1.455   .     S
C1012  C1128   1.402   .     A
C1012  C1095   1.402   .     A
C1013  C1076   1.477   .     S
C1013  C1047   1.419   .     S
C1014  C1075   1.455   .     S
C1014  C1043   1.409   .     S
C1015  C1074   1.477   .     S
C1015  C1049   1.419   .     S
C1016  C1046   1.409   .     S
C1016  C1073   1.455   .     S
C1017  C1072   1.455   .     S
C1017  C1055   1.409   .     S
C1018  C1052   1.419   .     A
C1018  C1071   1.477   .     S
C1019  C1058   1.409   .     A
C1019  C1070   1.455   .     S
C1020  C1068   1.399   .     A
C1020  H1149   1.083   .     S
C1020  C1054   1.395   .     A
C1021  C1069   1.478   .     S
C1021  C1054   1.419   .     S
C1022  H1192   1.111   .     S
C1022  H1193   1.111   .     S
C1022  N1245   1.447   .     S
C1022  H1191   1.112   .     S
C1023  H1197   1.110   .     S
C1023  N1253   1.447   .     S
C1023  H1195   1.112   .     S
C1023  H1196   1.110   .     S
C1024  H1202   1.111   .     S
C1024  H1200   1.111   .     S
C1024  N1254   1.447   .     S
C1024  H1199   1.112   .     S
C1025  H1206   1.110   .     S
C1025  H1204   1.112   .     S
C1025  N1255   1.447   .     S
C1025  H1205   1.110   .     S
C1026  H1209   1.111   .     S
C1026  N1256   1.447   .     S
C1026  H1210   1.111   .     S
C1026  H1208   1.112   .     S
C1027  N1257   1.447   .     S
C1027  H1214   1.110   .     S
C1027  H1215   1.110   .     S
C1027  H1213   1.112   .     S
C1028  H1217   1.112   .     S
C1028  H1219   1.111   .     S
C1028  N1258   1.447   .     S
C1028  H1218   1.111   .     S
C1029  H1221   1.112   .     S
C1029  H1222   1.110   .     S
C1029  N1259   1.447   .     S
C1029  H1224   1.110   .     S
C1030  H1227   1.110   .     S
C1030  N1260   1.447   .     S
C1030  H1226   1.112   .     S
C1030  H896    1.110   1_655 S
C1031  H1150   1.083   .     S
C1031  C1055   1.395   .     A
C1031  C1064   1.402   .     S
C1032  H1231   1.111   .     S
C1032  N1246   1.447   .     S
C1032  H1230   1.112   .     S
C1032  H1232   1.111   .     S
C1033  H1235   1.112   .     S
C1033  N1247   1.447   .     S
C1033  H1237   1.110   .     S
C1033  H572    1.110   1_565 S
C1034  H1241   1.111   .     S
C1034  H1239   1.112   .     S
C1034  N1248   1.447   .     S
C1034  H1240   1.111   .     S
C1035  N1249   1.447   .     S
C1035  H1244   1.110   .     S
C1035  H1243   1.112   .     S
C1036  N1250   1.447   .     S
C1036  H1139   1.111   .     S
C1036  H1138   1.111   .     S
C1036  H1137   1.112   .     S
C1037  N1251   1.447   .     S
C1037  H1141   1.112   .     S
C1037  H1143   1.110   .     S
C1038  H1147   1.111   .     S
C1038  H1148   1.111   .     S
C1038  N1252   1.447   .     S
C1038  H1146   1.112   .     S
C1039  C1057   1.395   .     A
C1039  C733    1.399   1_655 A
C1039  H1151   1.083   .     S
C1040  C1066   1.402   .     A
C1040  H1152   1.083   .     S
C1040  C1058   1.395   .     A
C1041  H1153   1.083   .     S
C1041  C1059   1.395   .     A
C1041  C404    1.399   1_565 S
C1042  N1245   1.424   .     S
C1042  C349    1.419   1_565 A
C1043  N1253   1.425   .     S
C1043  C1045   1.395   .     A
C1044  N1254   1.424   .     S
C1044  C1056   1.395   .     A
C1044  C683    1.419   1_655 A
C1045  H1157   1.083   .     S
C1045  C1061   1.402   .     S
C1046  C1067   1.395   .     A
C1046  N1255   1.425   .     S
C1047  N1256   1.424   .     S
C1047  C1078   1.395   .     A
C1048  N1257   1.425   .     S
C1048  C1089   1.395   .     A
C1048  C350    1.409   1_565 A
C1049  C1100   1.395   .     A
C1049  N1258   1.424   .     S
C1050  C684    1.409   1_655 A
C1050  N1259   1.425   .     S
C1050  C1111   1.395   .     A
C1051  C685    1.409   1_655 A
C1051  C1122   1.395   .     A
C1051  N1260   1.425   .     S
C1052  N1246   1.424   .     S
C1053  N1247   1.425   .     S
C1053  C355    1.409   1_565 S
C1054  N1248   1.424   .     S
C1055  N1249   1.425   .     S
C1056  C730    1.399   1_655 A
C1056  H1168   1.083   .     S
C1057  N1250   1.424   .     S
C1057  C686    1.419   1_655 S
C1058  N1251   1.425   .     S
C1059  N1252   1.424   .     S
C1059  C357    1.419   1_565 A
C1060  C1061   1.474   1_554 S
C1060  C1078   1.399   .     S
C1061  C1060   1.474   1_556 S
C1062  C1063   1.474   1_554 S
C1062  C1100   1.399   .     S
C1063  C1062   1.474   1_556 S
C1063  C1067   1.402   .     S
C1064  C1065   1.474   .     S
C1066  C1068   1.474   .     S
C1067  H1179   1.083   .     S
C1069  O1312   1.284   .     S
C1070  O1309   1.278   .     S
C1071  O1310   1.284   .     A
C1072  O1264   1.278   .     S
C1073  O1265   1.278   .     A
C1073  O1269   1.278   .     S
C1074  O1266   1.284   .     S
C1074  O1270   1.284   .     S
C1075  O1267   1.278   .     S
C1075  O1271   1.278   .     S
C1076  O1268   1.284   .     S
C1076  O1273   1.284   .     S
C1077  C1132   1.456   .     S
C1077  O1274   1.280   .     A
C1077  O1302   1.280   .     A
C1078  H1190   1.083   .     S
C1079  O1275   1.280   .     A
C1079  O1303   1.280   .     A
C1080  O1300   1.280   .     A
C1080  O1276   1.280   .     A
C1081  O1277   1.280   .     A
C1081  O1301   1.280   .     A
C1082  O1307   1.280   .     A
C1082  O1278   1.280   .     A
C1083  O1308   1.280   .     A
C1083  O1279   1.280   .     A
C1084  O1304   1.280   .     A
C1084  O1280   1.280   .     A
C1084  C1130   1.455   .     S
C1085  O1281   1.280   .     A
C1085  C1131   1.455   .     S
C1085  O1306   1.280   .     A
C1086  O1282   1.280   .     A
C1086  O1293   1.280   .     A
C1087  O1284   1.280   .     A
C1087  O1295   1.280   .     A
C1088  O1291   1.280   .     A
C1088  O1285   1.280   .     A
C1089  C397    1.403   1_565 A
C1089  H1201   1.083   .     S
C1090  O1286   1.280   .     A
C1090  O1292   1.280   .     A
C1091  O1287   1.280   .     A
C1091  O1298   1.280   .     A
C1092  O1299   1.280   .     A
C1092  O1288   1.280   .     A
C1093  O1296   1.280   .     A
C1093  O1289   1.280   .     A
C1094  O1297   1.280   .     A
C1094  O1290   1.280   .     A
C1095  C1112   1.386   .     A
C1095  H1154   1.083   .     S
C1096  C1110   1.386   .     A
C1096  H1155   1.083   .     S
C1097  C1109   1.386   .     A
C1097  H1156   1.083   .     S
C1098  C1108   1.386   .     A
C1098  H1158   1.083   .     S
C1099  C1107   1.386   .     A
C1099  H1159   1.083   .     S
C1100  H1212   1.083   .     S
C1101  C1106   1.386   .     A
C1101  H1160   1.083   .     S
C1102  C1105   1.386   .     A
C1102  H1161   1.083   .     S
C1103  C1104   1.386   .     A
C1103  H1162   1.083   .     S
C1104  H1163   1.083   .     S
C1105  H1164   1.083   .     S
C1106  H1165   1.083   .     S
C1107  H1166   1.083   .     S
C1108  H1167   1.083   .     S
C1109  C1132   1.402   .     A
C1109  H1169   1.083   .     S
C1110  H1170   1.083   .     S
C1110  C1131   1.402   .     A
C1111  H1223   1.083   .     S
C1111  C731    1.402   1_655 A
C1112  H1171   1.083   .     S
C1112  C1130   1.402   .     A
C1113  C1129   1.386   .     A
C1113  C1131   1.402   .     A
C1113  H1172   1.083   .     S
C1114  C1130   1.402   .     A
C1114  C1128   1.386   .     A
C1114  H1173   1.083   .     S
C1115  C1127   1.386   .     A
C1115  H1174   1.083   .     S
C1116  H1175   1.083   .     S
C1116  C1132   1.402   .     A
C1116  C1126   1.386   .     A
C1117  H1176   1.083   .     S
C1117  C1125   1.386   .     A
C1118  H1177   1.083   .     S
C1118  C1124   1.386   .     A
C1119  C1123   1.386   .     A
C1119  H1178   1.083   .     S
C1120  H1180   1.083   .     S
C1120  C1121   1.386   .     A
C1121  H1181   1.083   .     S
C1122  H1234   1.083   .     S
C1122  C732    1.403   1_655 A
C1123  H1182   1.083   .     S
C1124  H1183   1.083   .     S
C1125  H1184   1.083   .     S
C1126  H1185   1.083   .     S
C1127  H1186   1.083   .     S
C1128  H1187   1.083   .     S
C1129  H1188   1.083   .     S
H1135  C703    1.110   1_655 S
H1136  N1250   1.032   .     S
H1140  N1251   1.032   .     S
H1142  C373    1.110   1_565 S
H1144  N1252   1.032   .     S
H1189  N1245   1.032   .     S
H1194  N1253   1.032   .     S
H1198  N1254   1.032   .     S
H1203  N1255   1.032   .     S
H1207  N1256   1.032   .     S
H1211  N1257   1.032   .     S
H1216  N1258   1.032   .     S
H1220  N1259   1.032   .     S
H1225  N1260   1.032   .     S
H1229  N1246   1.032   .     S
H1233  N1247   1.032   .     S
H1238  N1248   1.032   .     S
H1242  N1249   1.032   .     S
O1261  Zn1316  1.947   .     S
O1261  Zn1324  1.947   .     S
O1261  Zn1313  1.947   .     S
O1262  Zn1315  1.943   .     S
O1262  C406    1.278   1_565 A
O1263  Zn1318  1.943   .     S
O1263  C739    1.284   1_655 S
O1264  Zn1317  1.943   .     S
O1265  Zn1327  1.943   .     S
O1266  Zn1326  1.943   .     S
O1267  Zn1321  1.943   .     S
O1268  Zn1313  1.943   .     S
O1269  Zn1323  1.943   .     S
O1270  Zn1322  1.943   .     S
O1271  Zn1325  1.943   .     S
O1272  Zn1319  1.947   .     S
O1272  Zn1321  1.947   .     S
O1272  Zn1325  1.947   .     S
O1273  Zn1324  1.943   .     S
O1274  Zn1316  1.937   .     S
O1275  Zn1315  1.937   .     S
O1276  Zn1318  1.936   .     S
O1277  Zn1317  1.936   .     S
O1278  Zn1320  1.937   .     S
O1279  Zn1319  1.937   .     S
O1280  Zn1314  1.936   .     S
O1281  Zn1328  1.936   .     S
O1282  Zn1315  1.936   .     S
O1283  Zn1314  1.947   .     S
O1283  Zn1322  1.947   .     S
O1283  Zn1326  1.947   .     S
O1284  Zn1316  1.936   .     S
O1285  Zn1328  1.937   .     S
O1286  Zn1314  1.937   .     S
O1287  Zn1319  1.936   .     S
O1288  Zn1320  1.936   .     S
O1289  Zn1317  1.937   .     S
O1290  Zn1318  1.937   .     S
O1291  Zn991   1.937   1_655 S
O1292  Zn1322  1.937   .     S
O1293  Zn661   1.936   1_565 S
O1294  Zn1317  1.947   .     S
O1294  Zn1323  1.947   .     S
O1294  Zn1327  1.947   .     S
O1295  Zn1324  1.936   .     S
O1296  Zn1327  1.937   .     S
O1297  Zn994   1.937   1_655 S
O1298  Zn1321  1.936   .     S
O1299  Zn649   1.936   1_565 S
O1300  Zn990   1.936   1_655 S
O1301  Zn1323  1.936   .     S
O1302  Zn1313  1.937   .     S
O1303  Zn657   1.937   1_565 S
O1304  Zn1326  1.936   .     S
O1305  Zn1320  1.943   .     S
O1305  C405    1.284   1_565 A
O1306  Zn995   1.936   1_655 S
O1307  Zn660   1.937   1_565 S
O1308  Zn1325  1.937   .     S
O1309  Zn1319  1.943   .     S
O1310  Zn1314  1.943   .     S
O1311  C740    1.278   1_655 A
O1311  Zn1328  1.943   .     S
O1312  Zn1316  1.943   .     S
Zn1315 O608    1.947   1_565 S
Zn1318 O951    1.947   1_655 S
Zn1320 O597    1.947   1_565 S
Zn1328 O962    1.947   1_655 S
