data_str_m1_o10_o18_pcu_sym.116
_audit_creation_date              2020-01-03
_audit_creation_method            'Materials Studio'
_symmetry_space_group_name_H-M    'P1'
_symmetry_Int_Tables_number       1
_symmetry_cell_setting            triclinic
loop_
_symmetry_equiv_pos_as_xyz
  x,y,z
_cell_length_a                    32.5474
_cell_length_b                    32.5095
_cell_length_c                    35.8705
_cell_angle_alpha                 98.0110
_cell_angle_beta                  72.8032
_cell_angle_gamma                 98.6242
loop_
_atom_site_label
_atom_site_type_symbol
_atom_site_fract_x
_atom_site_fract_y
_atom_site_fract_z
_atom_site_U_iso_or_equiv
_atom_site_adp_type
_atom_site_occupancy
C1     C     0.05251   0.15997   0.25878   0.00000  Uiso   1.00
C2     C     0.20239   0.13401   0.45921   0.00000  Uiso   1.00
C3     C     0.23035   0.12280   0.47777   0.00000  Uiso   1.00
C4     C     0.28110   0.17358   0.24111   0.00000  Uiso   1.00
C5     C     0.22223   0.13176   0.01890   0.00000  Uiso   1.00
C6     C     0.18103   0.14457   0.04096   0.00000  Uiso   1.00
C7     C     0.25280   0.12792   0.03918   0.00000  Uiso   1.00
C8     C     0.24089   0.13328   0.07997   0.00000  Uiso   1.00
C9     C     0.16728   0.14060   0.08188   0.00000  Uiso   1.00
C10    C     0.32721   0.17605   0.23716   0.00000  Uiso   1.00
C11    C     0.00713   0.15794   0.26212   0.00000  Uiso   1.00
C12    C     0.09330   0.20516   0.42068   0.00000  Uiso   1.00
C13    C     0.18094   0.32220   0.23798   0.00000  Uiso   1.00
C14    C     0.15164   0.01209   0.26209   0.00000  Uiso   1.00
C15    C     0.15598   0.05615   0.25886   0.00000  Uiso   1.00
C16    C     0.17689   0.27770   0.24131   0.00000  Uiso   1.00
C17    C     0.18819   0.14558   0.14401   0.00000  Uiso   1.00
C18    C     0.14560   0.18783   0.35603   0.00000  Uiso   1.00
C19    C     0.13402   0.19343   0.39916   0.00000  Uiso   1.00
C20    C     0.19822   0.13803   0.10131   0.00000  Uiso   1.00
C21    C     0.08067   0.20696   0.46140   0.00000  Uiso   1.00
C22    C     0.29783   0.12315   0.01979   0.00000  Uiso   1.00
C23    C     0.16224   0.18370   0.41894   0.00000  Uiso   1.00
C24    C     0.12181   0.13428   0.10340   0.00000  Uiso   1.00
C25    C     0.26490   0.09936   0.45363   0.00000  Uiso   1.00
C26    C     0.20838   0.18784   0.39921   0.00000  Uiso   1.00
C27    C     0.14642   0.17780   0.45940   0.00000  Uiso   1.00
C28    C     0.10687   0.19340   0.48090   0.00000  Uiso   1.00
C29    C     0.16893   0.15837   0.47954   0.00000  Uiso   1.00
C30    C     0.15609   0.16147   0.02116   0.00000  Uiso   1.00
C31    C     0.12069   0.18395   0.04142   0.00000  Uiso   1.00
C32    C     0.09491   0.19707   0.02172   0.00000  Uiso   1.00
F33    F     0.02293   0.19671   0.20807   0.00000  Uiso   1.00
H34    H     0.06649   0.21192   0.03854   0.00000  Uiso   1.00
H35    H     0.31782   0.14171   0.28578   0.00000  Uiso   1.00
H36    H     0.20801   0.00285   0.21577   0.00000  Uiso   1.00
H37    H     0.12424   0.33221   0.28443   0.00000  Uiso   1.00
H38    H     0.26483   0.13260   0.09543   0.00000  Uiso   1.00
H39    H     0.04989   0.21795   0.47763   0.00000  Uiso   1.00
H40    H     0.07136   0.21329   0.40602   0.00000  Uiso   1.00
H41    H     0.11272   0.19281   0.07256   0.00000  Uiso   1.00
H42    H     0.20727   0.12347   0.42842   0.00000  Uiso   1.00
N43    N     0.00064   0.11950   0.00454   0.00000  Uiso   1.00
N44    N     0.08557   0.12906   0.12065   0.00000  Uiso   1.00
N45    N     0.29238   0.08054   0.43408   0.00000  Uiso   1.00
N46    N     0.24513   0.19129   0.38344   0.00000  Uiso   1.00
O47    O     0.16667   0.16667   0.25000   0.00000  Uiso   1.00
O48    O     0.15693   0.12393   0.16625   0.00000  Uiso   1.00
O49    O     0.12687   0.20646   0.33749   0.00000  Uiso   1.00
O50    O     0.21088   0.17493   0.15877   0.00000  Uiso   1.00
O51    O     0.17198   0.16135   0.33749   0.00000  Uiso   1.00
O52    O     0.17849   0.08101   0.27820   0.00000  Uiso   1.00
O53    O     0.14581   0.26136   0.26767   0.00000  Uiso   1.00
O54    O     0.07452   0.13251   0.23607   0.00000  Uiso   1.00
O55    O     0.26785   0.19179   0.21805   0.00000  Uiso   1.00
O56    O     0.06990   0.18960   0.27820   0.00000  Uiso   1.00
O57    O     0.25440   0.15277   0.26767   0.00000  Uiso   1.00
O58    O     0.13800   0.06903   0.23607   0.00000  Uiso   1.00
O59    O     0.20437   0.25527   0.21805   0.00000  Uiso   1.00
Zn60   Zn    0.19244   0.14090   0.28277   0.00000  Uiso   1.00
Zn61   Zn    0.13459   0.12378   0.22257   0.00000  Uiso   1.00
Zn62   Zn    0.21166   0.19664   0.21188   0.00000  Uiso   1.00
Zn63   Zn    0.12798   0.20535   0.28277   0.00000  Uiso   1.00
C64    C     0.38584   0.15997   0.25878   0.00000  Uiso   1.00
C65    C     0.53572   0.13401   0.45921   0.00000  Uiso   1.00
C66    C     0.56369   0.12280   0.47777   0.00000  Uiso   1.00
C67    C     0.61443   0.17358   0.24111   0.00000  Uiso   1.00
C68    C     0.55556   0.13176   0.01890   0.00000  Uiso   1.00
C69    C     0.51436   0.14457   0.04096   0.00000  Uiso   1.00
C70    C     0.58613   0.12792   0.03918   0.00000  Uiso   1.00
C71    C     0.57422   0.13328   0.07997   0.00000  Uiso   1.00
C72    C     0.50061   0.14060   0.08188   0.00000  Uiso   1.00
C73    C     0.66054   0.17605   0.23716   0.00000  Uiso   1.00
C74    C     0.34047   0.15794   0.26212   0.00000  Uiso   1.00
C75    C     0.42663   0.20516   0.42068   0.00000  Uiso   1.00
C76    C     0.51428   0.32220   0.23798   0.00000  Uiso   1.00
C77    C     0.48497   0.01209   0.26209   0.00000  Uiso   1.00
C78    C     0.48932   0.05615   0.25886   0.00000  Uiso   1.00
C79    C     0.51023   0.27770   0.24131   0.00000  Uiso   1.00
C80    C     0.52152   0.14558   0.14401   0.00000  Uiso   1.00
C81    C     0.47893   0.18783   0.35603   0.00000  Uiso   1.00
C82    C     0.46735   0.19343   0.39916   0.00000  Uiso   1.00
C83    C     0.53155   0.13803   0.10131   0.00000  Uiso   1.00
C84    C     0.41400   0.20696   0.46140   0.00000  Uiso   1.00
C85    C     0.63117   0.12315   0.01979   0.00000  Uiso   1.00
C86    C     0.49557   0.18370   0.41894   0.00000  Uiso   1.00
C87    C     0.45514   0.13428   0.10340   0.00000  Uiso   1.00
C88    C     0.59823   0.09936   0.45363   0.00000  Uiso   1.00
C89    C     0.54171   0.18784   0.39921   0.00000  Uiso   1.00
C90    C     0.47975   0.17780   0.45940   0.00000  Uiso   1.00
C91    C     0.44021   0.19340   0.48090   0.00000  Uiso   1.00
C92    C     0.50226   0.15837   0.47954   0.00000  Uiso   1.00
C93    C     0.48942   0.16147   0.02116   0.00000  Uiso   1.00
C94    C     0.45402   0.18395   0.04142   0.00000  Uiso   1.00
C95    C     0.42824   0.19707   0.02172   0.00000  Uiso   1.00
F96    F     0.35626   0.19671   0.20807   0.00000  Uiso   1.00
H97    H     0.39982   0.21192   0.03854   0.00000  Uiso   1.00
H98    H     0.65115   0.14171   0.28578   0.00000  Uiso   1.00
H99    H     0.54134   0.00285   0.21577   0.00000  Uiso   1.00
H100   H     0.45758   0.33221   0.28443   0.00000  Uiso   1.00
H101   H     0.59817   0.13260   0.09543   0.00000  Uiso   1.00
H102   H     0.38322   0.21795   0.47763   0.00000  Uiso   1.00
H103   H     0.40469   0.21329   0.40602   0.00000  Uiso   1.00
H104   H     0.44605   0.19281   0.07256   0.00000  Uiso   1.00
H105   H     0.54060   0.12347   0.42842   0.00000  Uiso   1.00
N106   N     0.33398   0.11950   0.00454   0.00000  Uiso   1.00
N107   N     0.41890   0.12906   0.12065   0.00000  Uiso   1.00
N108   N     0.62571   0.08054   0.43408   0.00000  Uiso   1.00
N109   N     0.57846   0.19129   0.38344   0.00000  Uiso   1.00
O110   O     0.50000   0.16667   0.25000   0.00000  Uiso   1.00
O111   O     0.49027   0.12393   0.16625   0.00000  Uiso   1.00
O112   O     0.46020   0.20646   0.33749   0.00000  Uiso   1.00
O113   O     0.54421   0.17493   0.15877   0.00000  Uiso   1.00
O114   O     0.50532   0.16135   0.33749   0.00000  Uiso   1.00
O115   O     0.51182   0.08101   0.27820   0.00000  Uiso   1.00
O116   O     0.47914   0.26136   0.26767   0.00000  Uiso   1.00
O117   O     0.40785   0.13251   0.23607   0.00000  Uiso   1.00
O118   O     0.60119   0.19179   0.21805   0.00000  Uiso   1.00
O119   O     0.40323   0.18960   0.27820   0.00000  Uiso   1.00
O120   O     0.58773   0.15277   0.26767   0.00000  Uiso   1.00
O121   O     0.47133   0.06903   0.23607   0.00000  Uiso   1.00
O122   O     0.53771   0.25527   0.21805   0.00000  Uiso   1.00
Zn123  Zn    0.52577   0.14090   0.28277   0.00000  Uiso   1.00
Zn124  Zn    0.46792   0.12378   0.22257   0.00000  Uiso   1.00
Zn125  Zn    0.54500   0.19664   0.21188   0.00000  Uiso   1.00
Zn126  Zn    0.46131   0.20535   0.28277   0.00000  Uiso   1.00
C127   C     0.71918   0.15997   0.25878   0.00000  Uiso   1.00
C128   C     0.86906   0.13401   0.45921   0.00000  Uiso   1.00
C129   C     0.89702   0.12280   0.47777   0.00000  Uiso   1.00
C130   C     0.94777   0.17358   0.24111   0.00000  Uiso   1.00
C131   C     0.88890   0.13176   0.01890   0.00000  Uiso   1.00
C132   C     0.84769   0.14457   0.04096   0.00000  Uiso   1.00
C133   C     0.91946   0.12792   0.03918   0.00000  Uiso   1.00
C134   C     0.90756   0.13328   0.07997   0.00000  Uiso   1.00
C135   C     0.83394   0.14060   0.08188   0.00000  Uiso   1.00
C136   C     0.99388   0.17605   0.23716   0.00000  Uiso   1.00
C137   C     0.67380   0.15794   0.26212   0.00000  Uiso   1.00
C138   C     0.75996   0.20516   0.42068   0.00000  Uiso   1.00
C139   C     0.84761   0.32220   0.23798   0.00000  Uiso   1.00
C140   C     0.81831   0.01209   0.26209   0.00000  Uiso   1.00
C141   C     0.82265   0.05615   0.25886   0.00000  Uiso   1.00
C142   C     0.84356   0.27770   0.24131   0.00000  Uiso   1.00
C143   C     0.85486   0.14558   0.14401   0.00000  Uiso   1.00
C144   C     0.81226   0.18783   0.35603   0.00000  Uiso   1.00
C145   C     0.80068   0.19343   0.39916   0.00000  Uiso   1.00
C146   C     0.86488   0.13803   0.10131   0.00000  Uiso   1.00
C147   C     0.74734   0.20696   0.46140   0.00000  Uiso   1.00
C148   C     0.96450   0.12315   0.01979   0.00000  Uiso   1.00
C149   C     0.82891   0.18370   0.41894   0.00000  Uiso   1.00
C150   C     0.78847   0.13428   0.10340   0.00000  Uiso   1.00
C151   C     0.93156   0.09936   0.45363   0.00000  Uiso   1.00
C152   C     0.87505   0.18784   0.39921   0.00000  Uiso   1.00
C153   C     0.81308   0.17780   0.45940   0.00000  Uiso   1.00
C154   C     0.77354   0.19340   0.48090   0.00000  Uiso   1.00
C155   C     0.83560   0.15837   0.47954   0.00000  Uiso   1.00
C156   C     0.82276   0.16147   0.02116   0.00000  Uiso   1.00
C157   C     0.78736   0.18395   0.04142   0.00000  Uiso   1.00
C158   C     0.76158   0.19707   0.02172   0.00000  Uiso   1.00
F159   F     0.68959   0.19671   0.20807   0.00000  Uiso   1.00
H160   H     0.73316   0.21192   0.03854   0.00000  Uiso   1.00
H161   H     0.98448   0.14171   0.28578   0.00000  Uiso   1.00
H162   H     0.87467   0.00285   0.21577   0.00000  Uiso   1.00
H163   H     0.79091   0.33221   0.28443   0.00000  Uiso   1.00
H164   H     0.93150   0.13260   0.09543   0.00000  Uiso   1.00
H165   H     0.71655   0.21795   0.47763   0.00000  Uiso   1.00
H166   H     0.73803   0.21329   0.40602   0.00000  Uiso   1.00
H167   H     0.77939   0.19281   0.07256   0.00000  Uiso   1.00
H168   H     0.87393   0.12347   0.42842   0.00000  Uiso   1.00
N169   N     0.66731   0.11950   0.00454   0.00000  Uiso   1.00
N170   N     0.75224   0.12906   0.12065   0.00000  Uiso   1.00
N171   N     0.95905   0.08054   0.43408   0.00000  Uiso   1.00
N172   N     0.91179   0.19129   0.38344   0.00000  Uiso   1.00
O173   O     0.83333   0.16667   0.25000   0.00000  Uiso   1.00
O174   O     0.82360   0.12393   0.16625   0.00000  Uiso   1.00
O175   O     0.79354   0.20646   0.33749   0.00000  Uiso   1.00
O176   O     0.87755   0.17493   0.15877   0.00000  Uiso   1.00
O177   O     0.83865   0.16135   0.33749   0.00000  Uiso   1.00
O178   O     0.84515   0.08101   0.27820   0.00000  Uiso   1.00
O179   O     0.81247   0.26136   0.26767   0.00000  Uiso   1.00
O180   O     0.74119   0.13251   0.23607   0.00000  Uiso   1.00
O181   O     0.93452   0.19179   0.21805   0.00000  Uiso   1.00
O182   O     0.73656   0.18960   0.27820   0.00000  Uiso   1.00
O183   O     0.92106   0.15277   0.26767   0.00000  Uiso   1.00
O184   O     0.80467   0.06903   0.23607   0.00000  Uiso   1.00
O185   O     0.87104   0.25527   0.21805   0.00000  Uiso   1.00
Zn186  Zn    0.85910   0.14090   0.28277   0.00000  Uiso   1.00
Zn187  Zn    0.80125   0.12378   0.22257   0.00000  Uiso   1.00
Zn188  Zn    0.87833   0.19664   0.21188   0.00000  Uiso   1.00
Zn189  Zn    0.79465   0.20535   0.28277   0.00000  Uiso   1.00
C190   C     0.05251   0.49331   0.25878   0.00000  Uiso   1.00
C191   C     0.20239   0.46734   0.45921   0.00000  Uiso   1.00
C192   C     0.23035   0.45613   0.47777   0.00000  Uiso   1.00
C193   C     0.28110   0.50691   0.24111   0.00000  Uiso   1.00
C194   C     0.22223   0.46509   0.01890   0.00000  Uiso   1.00
C195   C     0.18103   0.47790   0.04096   0.00000  Uiso   1.00
C196   C     0.25280   0.46125   0.03918   0.00000  Uiso   1.00
C197   C     0.24089   0.46661   0.07997   0.00000  Uiso   1.00
C198   C     0.16728   0.47393   0.08188   0.00000  Uiso   1.00
C199   C     0.32721   0.50939   0.23716   0.00000  Uiso   1.00
C200   C     0.00713   0.49128   0.26212   0.00000  Uiso   1.00
C201   C     0.09330   0.53850   0.42068   0.00000  Uiso   1.00
C202   C     0.18094   0.65554   0.23798   0.00000  Uiso   1.00
C203   C     0.15164   0.34542   0.26209   0.00000  Uiso   1.00
C204   C     0.15598   0.38948   0.25886   0.00000  Uiso   1.00
C205   C     0.17689   0.61103   0.24131   0.00000  Uiso   1.00
C206   C     0.18819   0.47891   0.14401   0.00000  Uiso   1.00
C207   C     0.14560   0.52116   0.35603   0.00000  Uiso   1.00
C208   C     0.13402   0.52676   0.39916   0.00000  Uiso   1.00
C209   C     0.19822   0.47136   0.10131   0.00000  Uiso   1.00
C210   C     0.08067   0.54029   0.46140   0.00000  Uiso   1.00
C211   C     0.29783   0.45648   0.01979   0.00000  Uiso   1.00
C212   C     0.16224   0.51703   0.41894   0.00000  Uiso   1.00
C213   C     0.12181   0.46761   0.10340   0.00000  Uiso   1.00
C214   C     0.26490   0.43270   0.45363   0.00000  Uiso   1.00
C215   C     0.20838   0.52117   0.39921   0.00000  Uiso   1.00
C216   C     0.14642   0.51114   0.45940   0.00000  Uiso   1.00
C217   C     0.10687   0.52674   0.48090   0.00000  Uiso   1.00
C218   C     0.16893   0.49170   0.47954   0.00000  Uiso   1.00
C219   C     0.15609   0.49480   0.02116   0.00000  Uiso   1.00
C220   C     0.12069   0.51728   0.04142   0.00000  Uiso   1.00
C221   C     0.09491   0.53040   0.02172   0.00000  Uiso   1.00
F222   F     0.02293   0.53005   0.20807   0.00000  Uiso   1.00
H223   H     0.06649   0.54526   0.03854   0.00000  Uiso   1.00
H224   H     0.31782   0.47504   0.28578   0.00000  Uiso   1.00
H225   H     0.20801   0.33618   0.21577   0.00000  Uiso   1.00
H226   H     0.12424   0.66554   0.28443   0.00000  Uiso   1.00
H227   H     0.26483   0.46593   0.09543   0.00000  Uiso   1.00
H228   H     0.04989   0.55129   0.47763   0.00000  Uiso   1.00
H229   H     0.07136   0.54662   0.40602   0.00000  Uiso   1.00
H230   H     0.11272   0.52614   0.07256   0.00000  Uiso   1.00
H231   H     0.20727   0.45680   0.42842   0.00000  Uiso   1.00
N232   N     0.00064   0.45283   0.00454   0.00000  Uiso   1.00
N233   N     0.08557   0.46240   0.12065   0.00000  Uiso   1.00
N234   N     0.29238   0.41387   0.43408   0.00000  Uiso   1.00
N235   N     0.24513   0.52462   0.38344   0.00000  Uiso   1.00
O236   O     0.16667   0.50000   0.25000   0.00000  Uiso   1.00
O237   O     0.15693   0.45726   0.16625   0.00000  Uiso   1.00
O238   O     0.12687   0.53979   0.33749   0.00000  Uiso   1.00
O239   O     0.21088   0.50826   0.15877   0.00000  Uiso   1.00
O240   O     0.17198   0.49468   0.33749   0.00000  Uiso   1.00
O241   O     0.17849   0.41434   0.27820   0.00000  Uiso   1.00
O242   O     0.14581   0.59469   0.26767   0.00000  Uiso   1.00
O243   O     0.07452   0.46584   0.23607   0.00000  Uiso   1.00
O244   O     0.26785   0.52512   0.21805   0.00000  Uiso   1.00
O245   O     0.06990   0.52293   0.27820   0.00000  Uiso   1.00
O246   O     0.25440   0.48610   0.26767   0.00000  Uiso   1.00
O247   O     0.13800   0.40236   0.23607   0.00000  Uiso   1.00
O248   O     0.20437   0.58860   0.21805   0.00000  Uiso   1.00
Zn249  Zn    0.19244   0.47423   0.28277   0.00000  Uiso   1.00
Zn250  Zn    0.13459   0.45711   0.22257   0.00000  Uiso   1.00
Zn251  Zn    0.21166   0.52997   0.21188   0.00000  Uiso   1.00
Zn252  Zn    0.12798   0.53868   0.28277   0.00000  Uiso   1.00
C253   C     0.38584   0.49331   0.25878   0.00000  Uiso   1.00
C254   C     0.53572   0.46734   0.45921   0.00000  Uiso   1.00
C255   C     0.56369   0.45613   0.47777   0.00000  Uiso   1.00
C256   C     0.61443   0.50691   0.24111   0.00000  Uiso   1.00
C257   C     0.55556   0.46509   0.01890   0.00000  Uiso   1.00
C258   C     0.51436   0.47790   0.04096   0.00000  Uiso   1.00
C259   C     0.58613   0.46125   0.03918   0.00000  Uiso   1.00
C260   C     0.57422   0.46661   0.07997   0.00000  Uiso   1.00
C261   C     0.50061   0.47393   0.08188   0.00000  Uiso   1.00
C262   C     0.66054   0.50939   0.23716   0.00000  Uiso   1.00
C263   C     0.34047   0.49128   0.26212   0.00000  Uiso   1.00
C264   C     0.42663   0.53850   0.42068   0.00000  Uiso   1.00
C265   C     0.51428   0.65554   0.23798   0.00000  Uiso   1.00
C266   C     0.48497   0.34542   0.26209   0.00000  Uiso   1.00
C267   C     0.48932   0.38948   0.25886   0.00000  Uiso   1.00
C268   C     0.51023   0.61103   0.24131   0.00000  Uiso   1.00
C269   C     0.52152   0.47891   0.14401   0.00000  Uiso   1.00
C270   C     0.47893   0.52116   0.35603   0.00000  Uiso   1.00
C271   C     0.46735   0.52676   0.39916   0.00000  Uiso   1.00
C272   C     0.53155   0.47136   0.10131   0.00000  Uiso   1.00
C273   C     0.41400   0.54029   0.46140   0.00000  Uiso   1.00
C274   C     0.63117   0.45648   0.01979   0.00000  Uiso   1.00
C275   C     0.49557   0.51703   0.41894   0.00000  Uiso   1.00
C276   C     0.45514   0.46761   0.10340   0.00000  Uiso   1.00
C277   C     0.59823   0.43270   0.45363   0.00000  Uiso   1.00
C278   C     0.54171   0.52117   0.39921   0.00000  Uiso   1.00
C279   C     0.47975   0.51114   0.45940   0.00000  Uiso   1.00
C280   C     0.44021   0.52674   0.48090   0.00000  Uiso   1.00
C281   C     0.50226   0.49170   0.47954   0.00000  Uiso   1.00
C282   C     0.48942   0.49480   0.02116   0.00000  Uiso   1.00
C283   C     0.45402   0.51728   0.04142   0.00000  Uiso   1.00
C284   C     0.42824   0.53040   0.02172   0.00000  Uiso   1.00
F285   F     0.35626   0.53005   0.20807   0.00000  Uiso   1.00
H286   H     0.39982   0.54526   0.03854   0.00000  Uiso   1.00
H287   H     0.65115   0.47504   0.28578   0.00000  Uiso   1.00
H288   H     0.54134   0.33618   0.21577   0.00000  Uiso   1.00
H289   H     0.45758   0.66554   0.28443   0.00000  Uiso   1.00
H290   H     0.59817   0.46593   0.09543   0.00000  Uiso   1.00
H291   H     0.38322   0.55129   0.47763   0.00000  Uiso   1.00
H292   H     0.40469   0.54662   0.40602   0.00000  Uiso   1.00
H293   H     0.44605   0.52614   0.07256   0.00000  Uiso   1.00
H294   H     0.54060   0.45680   0.42842   0.00000  Uiso   1.00
N295   N     0.33398   0.45283   0.00454   0.00000  Uiso   1.00
N296   N     0.41890   0.46240   0.12065   0.00000  Uiso   1.00
N297   N     0.62571   0.41387   0.43408   0.00000  Uiso   1.00
N298   N     0.57846   0.52462   0.38344   0.00000  Uiso   1.00
O299   O     0.50000   0.50000   0.25000   0.00000  Uiso   1.00
O300   O     0.49027   0.45726   0.16625   0.00000  Uiso   1.00
O301   O     0.46020   0.53979   0.33749   0.00000  Uiso   1.00
O302   O     0.54421   0.50826   0.15877   0.00000  Uiso   1.00
O303   O     0.50532   0.49468   0.33749   0.00000  Uiso   1.00
O304   O     0.51182   0.41434   0.27820   0.00000  Uiso   1.00
O305   O     0.47914   0.59469   0.26767   0.00000  Uiso   1.00
O306   O     0.40785   0.46584   0.23607   0.00000  Uiso   1.00
O307   O     0.60119   0.52512   0.21805   0.00000  Uiso   1.00
O308   O     0.40323   0.52293   0.27820   0.00000  Uiso   1.00
O309   O     0.58773   0.48610   0.26767   0.00000  Uiso   1.00
O310   O     0.47133   0.40236   0.23607   0.00000  Uiso   1.00
O311   O     0.53771   0.58860   0.21805   0.00000  Uiso   1.00
Zn312  Zn    0.52577   0.47423   0.28277   0.00000  Uiso   1.00
Zn313  Zn    0.46792   0.45711   0.22257   0.00000  Uiso   1.00
Zn314  Zn    0.54500   0.52997   0.21188   0.00000  Uiso   1.00
Zn315  Zn    0.46131   0.53868   0.28277   0.00000  Uiso   1.00
C316   C     0.71918   0.49331   0.25878   0.00000  Uiso   1.00
C317   C     0.86906   0.46734   0.45921   0.00000  Uiso   1.00
C318   C     0.89702   0.45613   0.47777   0.00000  Uiso   1.00
C319   C     0.94777   0.50691   0.24111   0.00000  Uiso   1.00
C320   C     0.88890   0.46509   0.01890   0.00000  Uiso   1.00
C321   C     0.84769   0.47790   0.04096   0.00000  Uiso   1.00
C322   C     0.91946   0.46125   0.03918   0.00000  Uiso   1.00
C323   C     0.90756   0.46661   0.07997   0.00000  Uiso   1.00
C324   C     0.83394   0.47393   0.08188   0.00000  Uiso   1.00
C325   C     0.99388   0.50939   0.23716   0.00000  Uiso   1.00
C326   C     0.67380   0.49128   0.26212   0.00000  Uiso   1.00
C327   C     0.75996   0.53850   0.42068   0.00000  Uiso   1.00
C328   C     0.84761   0.65554   0.23798   0.00000  Uiso   1.00
C329   C     0.81831   0.34542   0.26209   0.00000  Uiso   1.00
C330   C     0.82265   0.38948   0.25886   0.00000  Uiso   1.00
C331   C     0.84356   0.61103   0.24131   0.00000  Uiso   1.00
C332   C     0.85486   0.47891   0.14401   0.00000  Uiso   1.00
C333   C     0.81226   0.52116   0.35603   0.00000  Uiso   1.00
C334   C     0.80068   0.52676   0.39916   0.00000  Uiso   1.00
C335   C     0.86488   0.47136   0.10131   0.00000  Uiso   1.00
C336   C     0.74734   0.54029   0.46140   0.00000  Uiso   1.00
C337   C     0.96450   0.45648   0.01979   0.00000  Uiso   1.00
C338   C     0.82891   0.51703   0.41894   0.00000  Uiso   1.00
C339   C     0.78847   0.46761   0.10340   0.00000  Uiso   1.00
C340   C     0.93156   0.43270   0.45363   0.00000  Uiso   1.00
C341   C     0.87505   0.52117   0.39921   0.00000  Uiso   1.00
C342   C     0.81308   0.51114   0.45940   0.00000  Uiso   1.00
C343   C     0.77354   0.52674   0.48090   0.00000  Uiso   1.00
C344   C     0.83560   0.49170   0.47954   0.00000  Uiso   1.00
C345   C     0.82276   0.49480   0.02116   0.00000  Uiso   1.00
C346   C     0.78736   0.51728   0.04142   0.00000  Uiso   1.00
C347   C     0.76158   0.53040   0.02172   0.00000  Uiso   1.00
F348   F     0.68959   0.53005   0.20807   0.00000  Uiso   1.00
H349   H     0.73316   0.54526   0.03854   0.00000  Uiso   1.00
H350   H     0.98448   0.47504   0.28578   0.00000  Uiso   1.00
H351   H     0.87467   0.33618   0.21577   0.00000  Uiso   1.00
H352   H     0.79091   0.66554   0.28443   0.00000  Uiso   1.00
H353   H     0.93150   0.46593   0.09543   0.00000  Uiso   1.00
H354   H     0.71655   0.55129   0.47763   0.00000  Uiso   1.00
H355   H     0.73803   0.54662   0.40602   0.00000  Uiso   1.00
H356   H     0.77939   0.52614   0.07256   0.00000  Uiso   1.00
H357   H     0.87393   0.45680   0.42842   0.00000  Uiso   1.00
N358   N     0.66731   0.45283   0.00454   0.00000  Uiso   1.00
N359   N     0.75224   0.46240   0.12065   0.00000  Uiso   1.00
N360   N     0.95905   0.41387   0.43408   0.00000  Uiso   1.00
N361   N     0.91179   0.52462   0.38344   0.00000  Uiso   1.00
O362   O     0.83333   0.50000   0.25000   0.00000  Uiso   1.00
O363   O     0.82360   0.45726   0.16625   0.00000  Uiso   1.00
O364   O     0.79354   0.53979   0.33749   0.00000  Uiso   1.00
O365   O     0.87755   0.50826   0.15877   0.00000  Uiso   1.00
O366   O     0.83865   0.49468   0.33749   0.00000  Uiso   1.00
O367   O     0.84515   0.41434   0.27820   0.00000  Uiso   1.00
O368   O     0.81247   0.59469   0.26767   0.00000  Uiso   1.00
O369   O     0.74119   0.46584   0.23607   0.00000  Uiso   1.00
O370   O     0.93452   0.52512   0.21805   0.00000  Uiso   1.00
O371   O     0.73656   0.52293   0.27820   0.00000  Uiso   1.00
O372   O     0.92106   0.48610   0.26767   0.00000  Uiso   1.00
O373   O     0.80467   0.40236   0.23607   0.00000  Uiso   1.00
O374   O     0.87104   0.58860   0.21805   0.00000  Uiso   1.00
Zn375  Zn    0.85910   0.47423   0.28277   0.00000  Uiso   1.00
Zn376  Zn    0.80125   0.45711   0.22257   0.00000  Uiso   1.00
Zn377  Zn    0.87833   0.52997   0.21188   0.00000  Uiso   1.00
Zn378  Zn    0.79465   0.53868   0.28277   0.00000  Uiso   1.00
C379   C     0.05251   0.82664   0.25878   0.00000  Uiso   1.00
C380   C     0.20239   0.80067   0.45921   0.00000  Uiso   1.00
C381   C     0.23035   0.78946   0.47777   0.00000  Uiso   1.00
C382   C     0.28110   0.84025   0.24111   0.00000  Uiso   1.00
C383   C     0.22223   0.79842   0.01890   0.00000  Uiso   1.00
C384   C     0.18103   0.81124   0.04096   0.00000  Uiso   1.00
C385   C     0.25280   0.79458   0.03918   0.00000  Uiso   1.00
C386   C     0.24089   0.79994   0.07997   0.00000  Uiso   1.00
C387   C     0.16728   0.80726   0.08188   0.00000  Uiso   1.00
C388   C     0.32721   0.84272   0.23716   0.00000  Uiso   1.00
C389   C     0.00713   0.82461   0.26212   0.00000  Uiso   1.00
C390   C     0.09330   0.87183   0.42068   0.00000  Uiso   1.00
C391   C     0.18094   0.98887   0.23798   0.00000  Uiso   1.00
C392   C     0.15164   0.67876   0.26209   0.00000  Uiso   1.00
C393   C     0.15598   0.72281   0.25886   0.00000  Uiso   1.00
C394   C     0.17689   0.94436   0.24131   0.00000  Uiso   1.00
C395   C     0.18819   0.81224   0.14401   0.00000  Uiso   1.00
C396   C     0.14560   0.85450   0.35603   0.00000  Uiso   1.00
C397   C     0.13402   0.86010   0.39916   0.00000  Uiso   1.00
C398   C     0.19822   0.80469   0.10131   0.00000  Uiso   1.00
C399   C     0.08067   0.87363   0.46140   0.00000  Uiso   1.00
C400   C     0.29783   0.78981   0.01979   0.00000  Uiso   1.00
C401   C     0.16224   0.85037   0.41894   0.00000  Uiso   1.00
C402   C     0.12181   0.80094   0.10340   0.00000  Uiso   1.00
C403   C     0.26490   0.76603   0.45363   0.00000  Uiso   1.00
C404   C     0.20838   0.85450   0.39921   0.00000  Uiso   1.00
C405   C     0.14642   0.84447   0.45940   0.00000  Uiso   1.00
C406   C     0.10687   0.86007   0.48090   0.00000  Uiso   1.00
C407   C     0.16893   0.82503   0.47954   0.00000  Uiso   1.00
C408   C     0.15609   0.82813   0.02116   0.00000  Uiso   1.00
C409   C     0.12069   0.85062   0.04142   0.00000  Uiso   1.00
C410   C     0.09491   0.86373   0.02172   0.00000  Uiso   1.00
F411   F     0.02293   0.86338   0.20807   0.00000  Uiso   1.00
H412   H     0.06649   0.87859   0.03854   0.00000  Uiso   1.00
H413   H     0.31782   0.80838   0.28578   0.00000  Uiso   1.00
H414   H     0.20801   0.66952   0.21577   0.00000  Uiso   1.00
H415   H     0.12424   0.99887   0.28443   0.00000  Uiso   1.00
H416   H     0.26483   0.79927   0.09543   0.00000  Uiso   1.00
H417   H     0.04989   0.88462   0.47763   0.00000  Uiso   1.00
H418   H     0.07136   0.87996   0.40602   0.00000  Uiso   1.00
H419   H     0.11272   0.85948   0.07256   0.00000  Uiso   1.00
H420   H     0.20727   0.79014   0.42842   0.00000  Uiso   1.00
N421   N     0.00064   0.78616   0.00454   0.00000  Uiso   1.00
N422   N     0.08557   0.79573   0.12065   0.00000  Uiso   1.00
N423   N     0.29238   0.74721   0.43408   0.00000  Uiso   1.00
N424   N     0.24513   0.85796   0.38344   0.00000  Uiso   1.00
O425   O     0.16667   0.83333   0.25000   0.00000  Uiso   1.00
O426   O     0.15693   0.79060   0.16625   0.00000  Uiso   1.00
O427   O     0.12687   0.87313   0.33749   0.00000  Uiso   1.00
O428   O     0.21088   0.84159   0.15877   0.00000  Uiso   1.00
O429   O     0.17198   0.82802   0.33749   0.00000  Uiso   1.00
O430   O     0.17849   0.74768   0.27820   0.00000  Uiso   1.00
O431   O     0.14581   0.92803   0.26767   0.00000  Uiso   1.00
O432   O     0.07452   0.79917   0.23607   0.00000  Uiso   1.00
O433   O     0.26785   0.85845   0.21805   0.00000  Uiso   1.00
O434   O     0.06990   0.85627   0.27820   0.00000  Uiso   1.00
O435   O     0.25440   0.81944   0.26767   0.00000  Uiso   1.00
O436   O     0.13800   0.73570   0.23607   0.00000  Uiso   1.00
O437   O     0.20437   0.92193   0.21805   0.00000  Uiso   1.00
Zn438  Zn    0.19244   0.80756   0.28277   0.00000  Uiso   1.00
Zn439  Zn    0.13459   0.79044   0.22257   0.00000  Uiso   1.00
Zn440  Zn    0.21166   0.86331   0.21188   0.00000  Uiso   1.00
Zn441  Zn    0.12798   0.87202   0.28277   0.00000  Uiso   1.00
C442   C     0.38584   0.82664   0.25878   0.00000  Uiso   1.00
C443   C     0.53572   0.80067   0.45921   0.00000  Uiso   1.00
C444   C     0.56369   0.78946   0.47777   0.00000  Uiso   1.00
C445   C     0.61443   0.84025   0.24111   0.00000  Uiso   1.00
C446   C     0.55556   0.79842   0.01890   0.00000  Uiso   1.00
C447   C     0.51436   0.81124   0.04096   0.00000  Uiso   1.00
C448   C     0.58613   0.79458   0.03918   0.00000  Uiso   1.00
C449   C     0.57422   0.79994   0.07997   0.00000  Uiso   1.00
C450   C     0.50061   0.80726   0.08188   0.00000  Uiso   1.00
C451   C     0.66054   0.84272   0.23716   0.00000  Uiso   1.00
C452   C     0.34047   0.82461   0.26212   0.00000  Uiso   1.00
C453   C     0.42663   0.87183   0.42068   0.00000  Uiso   1.00
C454   C     0.51428   0.98887   0.23798   0.00000  Uiso   1.00
C455   C     0.48497   0.67876   0.26209   0.00000  Uiso   1.00
C456   C     0.48932   0.72281   0.25886   0.00000  Uiso   1.00
C457   C     0.51023   0.94436   0.24131   0.00000  Uiso   1.00
C458   C     0.52152   0.81224   0.14401   0.00000  Uiso   1.00
C459   C     0.47893   0.85450   0.35603   0.00000  Uiso   1.00
C460   C     0.46735   0.86010   0.39916   0.00000  Uiso   1.00
C461   C     0.53155   0.80469   0.10131   0.00000  Uiso   1.00
C462   C     0.41400   0.87363   0.46140   0.00000  Uiso   1.00
C463   C     0.63117   0.78981   0.01979   0.00000  Uiso   1.00
C464   C     0.49557   0.85037   0.41894   0.00000  Uiso   1.00
C465   C     0.45514   0.80094   0.10340   0.00000  Uiso   1.00
C466   C     0.59823   0.76603   0.45363   0.00000  Uiso   1.00
C467   C     0.54171   0.85450   0.39921   0.00000  Uiso   1.00
C468   C     0.47975   0.84447   0.45940   0.00000  Uiso   1.00
C469   C     0.44021   0.86007   0.48090   0.00000  Uiso   1.00
C470   C     0.50226   0.82503   0.47954   0.00000  Uiso   1.00
C471   C     0.48942   0.82813   0.02116   0.00000  Uiso   1.00
C472   C     0.45402   0.85062   0.04142   0.00000  Uiso   1.00
C473   C     0.42824   0.86373   0.02172   0.00000  Uiso   1.00
F474   F     0.35626   0.86338   0.20807   0.00000  Uiso   1.00
H475   H     0.39982   0.87859   0.03854   0.00000  Uiso   1.00
H476   H     0.65115   0.80838   0.28578   0.00000  Uiso   1.00
H477   H     0.54134   0.66952   0.21577   0.00000  Uiso   1.00
H478   H     0.45758   0.99887   0.28443   0.00000  Uiso   1.00
H479   H     0.59817   0.79927   0.09543   0.00000  Uiso   1.00
H480   H     0.38322   0.88462   0.47763   0.00000  Uiso   1.00
H481   H     0.40469   0.87996   0.40602   0.00000  Uiso   1.00
H482   H     0.44605   0.85948   0.07256   0.00000  Uiso   1.00
H483   H     0.54060   0.79014   0.42842   0.00000  Uiso   1.00
N484   N     0.33398   0.78616   0.00454   0.00000  Uiso   1.00
N485   N     0.41890   0.79573   0.12065   0.00000  Uiso   1.00
N486   N     0.62571   0.74721   0.43408   0.00000  Uiso   1.00
N487   N     0.57846   0.85796   0.38344   0.00000  Uiso   1.00
O488   O     0.50000   0.83333   0.25000   0.00000  Uiso   1.00
O489   O     0.49027   0.79060   0.16625   0.00000  Uiso   1.00
O490   O     0.46020   0.87313   0.33749   0.00000  Uiso   1.00
O491   O     0.54421   0.84159   0.15877   0.00000  Uiso   1.00
O492   O     0.50532   0.82802   0.33749   0.00000  Uiso   1.00
O493   O     0.51182   0.74768   0.27820   0.00000  Uiso   1.00
O494   O     0.47914   0.92803   0.26767   0.00000  Uiso   1.00
O495   O     0.40785   0.79917   0.23607   0.00000  Uiso   1.00
O496   O     0.60119   0.85845   0.21805   0.00000  Uiso   1.00
O497   O     0.40323   0.85627   0.27820   0.00000  Uiso   1.00
O498   O     0.58773   0.81944   0.26767   0.00000  Uiso   1.00
O499   O     0.47133   0.73570   0.23607   0.00000  Uiso   1.00
O500   O     0.53771   0.92193   0.21805   0.00000  Uiso   1.00
Zn501  Zn    0.52577   0.80756   0.28277   0.00000  Uiso   1.00
Zn502  Zn    0.46792   0.79044   0.22257   0.00000  Uiso   1.00
Zn503  Zn    0.54500   0.86331   0.21188   0.00000  Uiso   1.00
Zn504  Zn    0.46131   0.87202   0.28277   0.00000  Uiso   1.00
C505   C     0.71918   0.82664   0.25878   0.00000  Uiso   1.00
C506   C     0.86906   0.80067   0.45921   0.00000  Uiso   1.00
C507   C     0.89702   0.78946   0.47777   0.00000  Uiso   1.00
C508   C     0.94777   0.84025   0.24111   0.00000  Uiso   1.00
C509   C     0.88890   0.79842   0.01890   0.00000  Uiso   1.00
C510   C     0.84769   0.81124   0.04096   0.00000  Uiso   1.00
C511   C     0.91946   0.79458   0.03918   0.00000  Uiso   1.00
C512   C     0.90756   0.79994   0.07997   0.00000  Uiso   1.00
C513   C     0.83394   0.80726   0.08188   0.00000  Uiso   1.00
C514   C     0.99388   0.84272   0.23716   0.00000  Uiso   1.00
C515   C     0.67380   0.82461   0.26212   0.00000  Uiso   1.00
C516   C     0.75996   0.87183   0.42068   0.00000  Uiso   1.00
C517   C     0.84761   0.98887   0.23798   0.00000  Uiso   1.00
C518   C     0.81831   0.67876   0.26209   0.00000  Uiso   1.00
C519   C     0.82265   0.72281   0.25886   0.00000  Uiso   1.00
C520   C     0.84356   0.94436   0.24131   0.00000  Uiso   1.00
C521   C     0.85486   0.81224   0.14401   0.00000  Uiso   1.00
C522   C     0.81226   0.85450   0.35603   0.00000  Uiso   1.00
C523   C     0.80068   0.86010   0.39916   0.00000  Uiso   1.00
C524   C     0.86488   0.80469   0.10131   0.00000  Uiso   1.00
C525   C     0.74734   0.87363   0.46140   0.00000  Uiso   1.00
C526   C     0.96450   0.78981   0.01979   0.00000  Uiso   1.00
C527   C     0.82891   0.85037   0.41894   0.00000  Uiso   1.00
C528   C     0.78847   0.80094   0.10340   0.00000  Uiso   1.00
C529   C     0.93156   0.76603   0.45363   0.00000  Uiso   1.00
C530   C     0.87505   0.85450   0.39921   0.00000  Uiso   1.00
C531   C     0.81308   0.84447   0.45940   0.00000  Uiso   1.00
C532   C     0.77354   0.86007   0.48090   0.00000  Uiso   1.00
C533   C     0.83560   0.82503   0.47954   0.00000  Uiso   1.00
C534   C     0.82276   0.82813   0.02116   0.00000  Uiso   1.00
C535   C     0.78736   0.85062   0.04142   0.00000  Uiso   1.00
C536   C     0.76158   0.86373   0.02172   0.00000  Uiso   1.00
F537   F     0.68959   0.86338   0.20807   0.00000  Uiso   1.00
H538   H     0.73316   0.87859   0.03854   0.00000  Uiso   1.00
H539   H     0.98448   0.80838   0.28578   0.00000  Uiso   1.00
H540   H     0.87467   0.66952   0.21577   0.00000  Uiso   1.00
H541   H     0.79091   0.99887   0.28443   0.00000  Uiso   1.00
H542   H     0.93150   0.79927   0.09543   0.00000  Uiso   1.00
H543   H     0.71655   0.88462   0.47763   0.00000  Uiso   1.00
H544   H     0.73803   0.87996   0.40602   0.00000  Uiso   1.00
H545   H     0.77939   0.85948   0.07256   0.00000  Uiso   1.00
H546   H     0.87393   0.79014   0.42842   0.00000  Uiso   1.00
N547   N     0.66731   0.78616   0.00454   0.00000  Uiso   1.00
N548   N     0.75224   0.79573   0.12065   0.00000  Uiso   1.00
N549   N     0.95905   0.74721   0.43408   0.00000  Uiso   1.00
N550   N     0.91179   0.85796   0.38344   0.00000  Uiso   1.00
O551   O     0.83333   0.83333   0.25000   0.00000  Uiso   1.00
O552   O     0.82360   0.79060   0.16625   0.00000  Uiso   1.00
O553   O     0.79354   0.87313   0.33749   0.00000  Uiso   1.00
O554   O     0.87755   0.84159   0.15877   0.00000  Uiso   1.00
O555   O     0.83865   0.82802   0.33749   0.00000  Uiso   1.00
O556   O     0.84515   0.74768   0.27820   0.00000  Uiso   1.00
O557   O     0.81247   0.92803   0.26767   0.00000  Uiso   1.00
O558   O     0.74119   0.79917   0.23607   0.00000  Uiso   1.00
O559   O     0.93452   0.85845   0.21805   0.00000  Uiso   1.00
O560   O     0.73656   0.85627   0.27820   0.00000  Uiso   1.00
O561   O     0.92106   0.81944   0.26767   0.00000  Uiso   1.00
O562   O     0.80467   0.73570   0.23607   0.00000  Uiso   1.00
O563   O     0.87104   0.92193   0.21805   0.00000  Uiso   1.00
Zn564  Zn    0.85910   0.80756   0.28277   0.00000  Uiso   1.00
Zn565  Zn    0.80125   0.79044   0.22257   0.00000  Uiso   1.00
Zn566  Zn    0.87833   0.86331   0.21188   0.00000  Uiso   1.00
Zn567  Zn    0.79465   0.87202   0.28277   0.00000  Uiso   1.00
C568   C     0.05251   0.15997   0.75878   0.00000  Uiso   1.00
C569   C     0.20239   0.13401   0.95921   0.00000  Uiso   1.00
C570   C     0.23035   0.12280   0.97777   0.00000  Uiso   1.00
C571   C     0.28110   0.17358   0.74111   0.00000  Uiso   1.00
C572   C     0.22223   0.13176   0.51890   0.00000  Uiso   1.00
C573   C     0.18103   0.14457   0.54096   0.00000  Uiso   1.00
C574   C     0.25280   0.12792   0.53918   0.00000  Uiso   1.00
C575   C     0.24089   0.13328   0.57997   0.00000  Uiso   1.00
C576   C     0.16728   0.14060   0.58188   0.00000  Uiso   1.00
C577   C     0.32721   0.17605   0.73716   0.00000  Uiso   1.00
C578   C     0.00713   0.15794   0.76212   0.00000  Uiso   1.00
C579   C     0.09330   0.20516   0.92068   0.00000  Uiso   1.00
C580   C     0.18094   0.32220   0.73798   0.00000  Uiso   1.00
C581   C     0.15164   0.01209   0.76209   0.00000  Uiso   1.00
C582   C     0.15598   0.05615   0.75886   0.00000  Uiso   1.00
C583   C     0.17689   0.27770   0.74131   0.00000  Uiso   1.00
C584   C     0.18819   0.14558   0.64401   0.00000  Uiso   1.00
C585   C     0.14560   0.18783   0.85603   0.00000  Uiso   1.00
C586   C     0.13402   0.19343   0.89916   0.00000  Uiso   1.00
C587   C     0.19822   0.13803   0.60131   0.00000  Uiso   1.00
C588   C     0.08067   0.20696   0.96140   0.00000  Uiso   1.00
C589   C     0.29783   0.12315   0.51979   0.00000  Uiso   1.00
C590   C     0.16224   0.18370   0.91894   0.00000  Uiso   1.00
C591   C     0.12181   0.13428   0.60340   0.00000  Uiso   1.00
C592   C     0.26490   0.09936   0.95363   0.00000  Uiso   1.00
C593   C     0.20838   0.18784   0.89921   0.00000  Uiso   1.00
C594   C     0.14642   0.17780   0.95940   0.00000  Uiso   1.00
C595   C     0.10687   0.19340   0.98090   0.00000  Uiso   1.00
C596   C     0.16893   0.15837   0.97954   0.00000  Uiso   1.00
C597   C     0.15609   0.16147   0.52116   0.00000  Uiso   1.00
C598   C     0.12069   0.18395   0.54142   0.00000  Uiso   1.00
C599   C     0.09491   0.19707   0.52172   0.00000  Uiso   1.00
F600   F     0.02293   0.19671   0.70807   0.00000  Uiso   1.00
H601   H     0.06649   0.21192   0.53854   0.00000  Uiso   1.00
H602   H     0.31782   0.14171   0.78578   0.00000  Uiso   1.00
H603   H     0.20801   0.00285   0.71577   0.00000  Uiso   1.00
H604   H     0.12424   0.33221   0.78443   0.00000  Uiso   1.00
H605   H     0.26483   0.13260   0.59543   0.00000  Uiso   1.00
H606   H     0.04989   0.21795   0.97763   0.00000  Uiso   1.00
H607   H     0.07136   0.21329   0.90602   0.00000  Uiso   1.00
H608   H     0.11272   0.19281   0.57256   0.00000  Uiso   1.00
H609   H     0.20727   0.12347   0.92842   0.00000  Uiso   1.00
N610   N     0.00064   0.11950   0.50454   0.00000  Uiso   1.00
N611   N     0.08557   0.12906   0.62065   0.00000  Uiso   1.00
N612   N     0.29238   0.08054   0.93408   0.00000  Uiso   1.00
N613   N     0.24513   0.19129   0.88344   0.00000  Uiso   1.00
O614   O     0.16667   0.16667   0.75000   0.00000  Uiso   1.00
O615   O     0.15693   0.12393   0.66625   0.00000  Uiso   1.00
O616   O     0.12687   0.20646   0.83749   0.00000  Uiso   1.00
O617   O     0.21088   0.17493   0.65877   0.00000  Uiso   1.00
O618   O     0.17198   0.16135   0.83749   0.00000  Uiso   1.00
O619   O     0.17849   0.08101   0.77820   0.00000  Uiso   1.00
O620   O     0.14581   0.26136   0.76767   0.00000  Uiso   1.00
O621   O     0.07452   0.13251   0.73607   0.00000  Uiso   1.00
O622   O     0.26785   0.19179   0.71805   0.00000  Uiso   1.00
O623   O     0.06990   0.18960   0.77820   0.00000  Uiso   1.00
O624   O     0.25440   0.15277   0.76767   0.00000  Uiso   1.00
O625   O     0.13800   0.06903   0.73607   0.00000  Uiso   1.00
O626   O     0.20437   0.25527   0.71805   0.00000  Uiso   1.00
Zn627  Zn    0.19244   0.14090   0.78277   0.00000  Uiso   1.00
Zn628  Zn    0.13459   0.12378   0.72257   0.00000  Uiso   1.00
Zn629  Zn    0.21166   0.19664   0.71188   0.00000  Uiso   1.00
Zn630  Zn    0.12798   0.20535   0.78277   0.00000  Uiso   1.00
C631   C     0.38584   0.15997   0.75878   0.00000  Uiso   1.00
C632   C     0.53572   0.13401   0.95921   0.00000  Uiso   1.00
C633   C     0.56369   0.12280   0.97777   0.00000  Uiso   1.00
C634   C     0.61443   0.17358   0.74111   0.00000  Uiso   1.00
C635   C     0.55556   0.13176   0.51890   0.00000  Uiso   1.00
C636   C     0.51436   0.14457   0.54096   0.00000  Uiso   1.00
C637   C     0.58613   0.12792   0.53918   0.00000  Uiso   1.00
C638   C     0.57422   0.13328   0.57997   0.00000  Uiso   1.00
C639   C     0.50061   0.14060   0.58188   0.00000  Uiso   1.00
C640   C     0.66054   0.17605   0.73716   0.00000  Uiso   1.00
C641   C     0.34047   0.15794   0.76212   0.00000  Uiso   1.00
C642   C     0.42663   0.20516   0.92068   0.00000  Uiso   1.00
C643   C     0.51428   0.32220   0.73798   0.00000  Uiso   1.00
C644   C     0.48497   0.01209   0.76209   0.00000  Uiso   1.00
C645   C     0.48932   0.05615   0.75886   0.00000  Uiso   1.00
C646   C     0.51023   0.27770   0.74131   0.00000  Uiso   1.00
C647   C     0.52152   0.14558   0.64401   0.00000  Uiso   1.00
C648   C     0.47893   0.18783   0.85603   0.00000  Uiso   1.00
C649   C     0.46735   0.19343   0.89916   0.00000  Uiso   1.00
C650   C     0.53155   0.13803   0.60131   0.00000  Uiso   1.00
C651   C     0.41400   0.20696   0.96140   0.00000  Uiso   1.00
C652   C     0.63117   0.12315   0.51979   0.00000  Uiso   1.00
C653   C     0.49557   0.18370   0.91894   0.00000  Uiso   1.00
C654   C     0.45514   0.13428   0.60340   0.00000  Uiso   1.00
C655   C     0.59823   0.09936   0.95363   0.00000  Uiso   1.00
C656   C     0.54171   0.18784   0.89921   0.00000  Uiso   1.00
C657   C     0.47975   0.17780   0.95940   0.00000  Uiso   1.00
C658   C     0.44021   0.19340   0.98090   0.00000  Uiso   1.00
C659   C     0.50226   0.15837   0.97954   0.00000  Uiso   1.00
C660   C     0.48942   0.16147   0.52116   0.00000  Uiso   1.00
C661   C     0.45402   0.18395   0.54142   0.00000  Uiso   1.00
C662   C     0.42824   0.19707   0.52172   0.00000  Uiso   1.00
F663   F     0.35626   0.19671   0.70807   0.00000  Uiso   1.00
H664   H     0.39982   0.21192   0.53854   0.00000  Uiso   1.00
H665   H     0.65115   0.14171   0.78578   0.00000  Uiso   1.00
H666   H     0.54134   0.00285   0.71577   0.00000  Uiso   1.00
H667   H     0.45758   0.33221   0.78443   0.00000  Uiso   1.00
H668   H     0.59817   0.13260   0.59543   0.00000  Uiso   1.00
H669   H     0.38322   0.21795   0.97763   0.00000  Uiso   1.00
H670   H     0.40469   0.21329   0.90602   0.00000  Uiso   1.00
H671   H     0.44605   0.19281   0.57256   0.00000  Uiso   1.00
H672   H     0.54060   0.12347   0.92842   0.00000  Uiso   1.00
N673   N     0.33398   0.11950   0.50454   0.00000  Uiso   1.00
N674   N     0.41890   0.12906   0.62065   0.00000  Uiso   1.00
N675   N     0.62571   0.08054   0.93408   0.00000  Uiso   1.00
N676   N     0.57846   0.19129   0.88344   0.00000  Uiso   1.00
O677   O     0.50000   0.16667   0.75000   0.00000  Uiso   1.00
O678   O     0.49027   0.12393   0.66625   0.00000  Uiso   1.00
O679   O     0.46020   0.20646   0.83749   0.00000  Uiso   1.00
O680   O     0.54421   0.17493   0.65877   0.00000  Uiso   1.00
O681   O     0.50532   0.16135   0.83749   0.00000  Uiso   1.00
O682   O     0.51182   0.08101   0.77820   0.00000  Uiso   1.00
O683   O     0.47914   0.26136   0.76767   0.00000  Uiso   1.00
O684   O     0.40785   0.13251   0.73607   0.00000  Uiso   1.00
O685   O     0.60119   0.19179   0.71805   0.00000  Uiso   1.00
O686   O     0.40323   0.18960   0.77820   0.00000  Uiso   1.00
O687   O     0.58773   0.15277   0.76767   0.00000  Uiso   1.00
O688   O     0.47133   0.06903   0.73607   0.00000  Uiso   1.00
O689   O     0.53771   0.25527   0.71805   0.00000  Uiso   1.00
Zn690  Zn    0.52577   0.14090   0.78277   0.00000  Uiso   1.00
Zn691  Zn    0.46792   0.12378   0.72257   0.00000  Uiso   1.00
Zn692  Zn    0.54500   0.19664   0.71188   0.00000  Uiso   1.00
Zn693  Zn    0.46131   0.20535   0.78277   0.00000  Uiso   1.00
C694   C     0.71918   0.15997   0.75878   0.00000  Uiso   1.00
C695   C     0.86906   0.13401   0.95921   0.00000  Uiso   1.00
C696   C     0.89702   0.12280   0.97777   0.00000  Uiso   1.00
C697   C     0.94777   0.17358   0.74111   0.00000  Uiso   1.00
C698   C     0.88890   0.13176   0.51890   0.00000  Uiso   1.00
C699   C     0.84769   0.14457   0.54096   0.00000  Uiso   1.00
C700   C     0.91946   0.12792   0.53918   0.00000  Uiso   1.00
C701   C     0.90756   0.13328   0.57997   0.00000  Uiso   1.00
C702   C     0.83394   0.14060   0.58188   0.00000  Uiso   1.00
C703   C     0.99388   0.17605   0.73716   0.00000  Uiso   1.00
C704   C     0.67380   0.15794   0.76212   0.00000  Uiso   1.00
C705   C     0.75996   0.20516   0.92068   0.00000  Uiso   1.00
C706   C     0.84761   0.32220   0.73798   0.00000  Uiso   1.00
C707   C     0.81831   0.01209   0.76209   0.00000  Uiso   1.00
C708   C     0.82265   0.05615   0.75886   0.00000  Uiso   1.00
C709   C     0.84356   0.27770   0.74131   0.00000  Uiso   1.00
C710   C     0.85486   0.14558   0.64401   0.00000  Uiso   1.00
C711   C     0.81226   0.18783   0.85603   0.00000  Uiso   1.00
C712   C     0.80068   0.19343   0.89916   0.00000  Uiso   1.00
C713   C     0.86488   0.13803   0.60131   0.00000  Uiso   1.00
C714   C     0.74734   0.20696   0.96140   0.00000  Uiso   1.00
C715   C     0.96450   0.12315   0.51979   0.00000  Uiso   1.00
C716   C     0.82891   0.18370   0.91894   0.00000  Uiso   1.00
C717   C     0.78847   0.13428   0.60340   0.00000  Uiso   1.00
C718   C     0.93156   0.09936   0.95363   0.00000  Uiso   1.00
C719   C     0.87505   0.18784   0.89921   0.00000  Uiso   1.00
C720   C     0.81308   0.17780   0.95940   0.00000  Uiso   1.00
C721   C     0.77354   0.19340   0.98090   0.00000  Uiso   1.00
C722   C     0.83560   0.15837   0.97954   0.00000  Uiso   1.00
C723   C     0.82276   0.16147   0.52116   0.00000  Uiso   1.00
C724   C     0.78736   0.18395   0.54142   0.00000  Uiso   1.00
C725   C     0.76158   0.19707   0.52172   0.00000  Uiso   1.00
F726   F     0.68959   0.19671   0.70807   0.00000  Uiso   1.00
H727   H     0.73316   0.21192   0.53854   0.00000  Uiso   1.00
H728   H     0.98448   0.14171   0.78578   0.00000  Uiso   1.00
H729   H     0.87467   0.00285   0.71577   0.00000  Uiso   1.00
H730   H     0.79091   0.33221   0.78443   0.00000  Uiso   1.00
H731   H     0.93150   0.13260   0.59543   0.00000  Uiso   1.00
H732   H     0.71655   0.21795   0.97763   0.00000  Uiso   1.00
H733   H     0.73803   0.21329   0.90602   0.00000  Uiso   1.00
H734   H     0.77939   0.19281   0.57256   0.00000  Uiso   1.00
H735   H     0.87393   0.12347   0.92842   0.00000  Uiso   1.00
N736   N     0.66731   0.11950   0.50454   0.00000  Uiso   1.00
N737   N     0.75224   0.12906   0.62065   0.00000  Uiso   1.00
N738   N     0.95905   0.08054   0.93408   0.00000  Uiso   1.00
N739   N     0.91179   0.19129   0.88344   0.00000  Uiso   1.00
O740   O     0.83333   0.16667   0.75000   0.00000  Uiso   1.00
O741   O     0.82360   0.12393   0.66625   0.00000  Uiso   1.00
O742   O     0.79354   0.20646   0.83749   0.00000  Uiso   1.00
O743   O     0.87755   0.17493   0.65877   0.00000  Uiso   1.00
O744   O     0.83865   0.16135   0.83749   0.00000  Uiso   1.00
O745   O     0.84515   0.08101   0.77820   0.00000  Uiso   1.00
O746   O     0.81247   0.26136   0.76767   0.00000  Uiso   1.00
O747   O     0.74119   0.13251   0.73607   0.00000  Uiso   1.00
O748   O     0.93452   0.19179   0.71805   0.00000  Uiso   1.00
O749   O     0.73656   0.18960   0.77820   0.00000  Uiso   1.00
O750   O     0.92106   0.15277   0.76767   0.00000  Uiso   1.00
O751   O     0.80467   0.06903   0.73607   0.00000  Uiso   1.00
O752   O     0.87104   0.25527   0.71805   0.00000  Uiso   1.00
Zn753  Zn    0.85910   0.14090   0.78277   0.00000  Uiso   1.00
Zn754  Zn    0.80125   0.12378   0.72257   0.00000  Uiso   1.00
Zn755  Zn    0.87833   0.19664   0.71188   0.00000  Uiso   1.00
Zn756  Zn    0.79465   0.20535   0.78277   0.00000  Uiso   1.00
C757   C     0.05251   0.49331   0.75878   0.00000  Uiso   1.00
C758   C     0.20239   0.46734   0.95921   0.00000  Uiso   1.00
C759   C     0.23035   0.45613   0.97777   0.00000  Uiso   1.00
C760   C     0.28110   0.50691   0.74111   0.00000  Uiso   1.00
C761   C     0.22223   0.46509   0.51890   0.00000  Uiso   1.00
C762   C     0.18103   0.47790   0.54096   0.00000  Uiso   1.00
C763   C     0.25280   0.46125   0.53918   0.00000  Uiso   1.00
C764   C     0.24089   0.46661   0.57997   0.00000  Uiso   1.00
C765   C     0.16728   0.47393   0.58188   0.00000  Uiso   1.00
C766   C     0.32721   0.50939   0.73716   0.00000  Uiso   1.00
C767   C     0.00713   0.49128   0.76212   0.00000  Uiso   1.00
C768   C     0.09330   0.53850   0.92068   0.00000  Uiso   1.00
C769   C     0.18094   0.65554   0.73798   0.00000  Uiso   1.00
C770   C     0.15164   0.34542   0.76209   0.00000  Uiso   1.00
C771   C     0.15598   0.38948   0.75886   0.00000  Uiso   1.00
C772   C     0.17689   0.61103   0.74131   0.00000  Uiso   1.00
C773   C     0.18819   0.47891   0.64401   0.00000  Uiso   1.00
C774   C     0.14560   0.52116   0.85603   0.00000  Uiso   1.00
C775   C     0.13402   0.52676   0.89916   0.00000  Uiso   1.00
C776   C     0.19822   0.47136   0.60131   0.00000  Uiso   1.00
C777   C     0.08067   0.54029   0.96140   0.00000  Uiso   1.00
C778   C     0.29783   0.45648   0.51979   0.00000  Uiso   1.00
C779   C     0.16224   0.51703   0.91894   0.00000  Uiso   1.00
C780   C     0.12181   0.46761   0.60340   0.00000  Uiso   1.00
C781   C     0.26490   0.43270   0.95363   0.00000  Uiso   1.00
C782   C     0.20838   0.52117   0.89921   0.00000  Uiso   1.00
C783   C     0.14642   0.51114   0.95940   0.00000  Uiso   1.00
C784   C     0.10687   0.52674   0.98090   0.00000  Uiso   1.00
C785   C     0.16893   0.49170   0.97954   0.00000  Uiso   1.00
C786   C     0.15609   0.49480   0.52116   0.00000  Uiso   1.00
C787   C     0.12069   0.51728   0.54142   0.00000  Uiso   1.00
C788   C     0.09491   0.53040   0.52172   0.00000  Uiso   1.00
F789   F     0.02293   0.53005   0.70807   0.00000  Uiso   1.00
H790   H     0.06649   0.54526   0.53854   0.00000  Uiso   1.00
H791   H     0.31782   0.47504   0.78578   0.00000  Uiso   1.00
H792   H     0.20801   0.33618   0.71577   0.00000  Uiso   1.00
H793   H     0.12424   0.66554   0.78443   0.00000  Uiso   1.00
H794   H     0.26483   0.46593   0.59543   0.00000  Uiso   1.00
H795   H     0.04989   0.55129   0.97763   0.00000  Uiso   1.00
H796   H     0.07136   0.54662   0.90602   0.00000  Uiso   1.00
H797   H     0.11272   0.52614   0.57256   0.00000  Uiso   1.00
H798   H     0.20727   0.45680   0.92842   0.00000  Uiso   1.00
N799   N     0.00064   0.45283   0.50454   0.00000  Uiso   1.00
N800   N     0.08557   0.46240   0.62065   0.00000  Uiso   1.00
N801   N     0.29238   0.41387   0.93408   0.00000  Uiso   1.00
N802   N     0.24513   0.52462   0.88344   0.00000  Uiso   1.00
O803   O     0.16667   0.50000   0.75000   0.00000  Uiso   1.00
O804   O     0.15693   0.45726   0.66625   0.00000  Uiso   1.00
O805   O     0.12687   0.53979   0.83749   0.00000  Uiso   1.00
O806   O     0.21088   0.50826   0.65877   0.00000  Uiso   1.00
O807   O     0.17198   0.49468   0.83749   0.00000  Uiso   1.00
O808   O     0.17849   0.41434   0.77820   0.00000  Uiso   1.00
O809   O     0.14581   0.59469   0.76767   0.00000  Uiso   1.00
O810   O     0.07452   0.46584   0.73607   0.00000  Uiso   1.00
O811   O     0.26785   0.52512   0.71805   0.00000  Uiso   1.00
O812   O     0.06990   0.52293   0.77820   0.00000  Uiso   1.00
O813   O     0.25440   0.48610   0.76767   0.00000  Uiso   1.00
O814   O     0.13800   0.40236   0.73607   0.00000  Uiso   1.00
O815   O     0.20437   0.58860   0.71805   0.00000  Uiso   1.00
Zn816  Zn    0.19244   0.47423   0.78277   0.00000  Uiso   1.00
Zn817  Zn    0.13459   0.45711   0.72257   0.00000  Uiso   1.00
Zn818  Zn    0.21166   0.52997   0.71188   0.00000  Uiso   1.00
Zn819  Zn    0.12798   0.53868   0.78277   0.00000  Uiso   1.00
C820   C     0.38584   0.49331   0.75878   0.00000  Uiso   1.00
C821   C     0.53572   0.46734   0.95921   0.00000  Uiso   1.00
C822   C     0.56369   0.45613   0.97777   0.00000  Uiso   1.00
C823   C     0.61443   0.50691   0.74111   0.00000  Uiso   1.00
C824   C     0.55556   0.46509   0.51890   0.00000  Uiso   1.00
C825   C     0.51436   0.47790   0.54096   0.00000  Uiso   1.00
C826   C     0.58613   0.46125   0.53918   0.00000  Uiso   1.00
C827   C     0.57422   0.46661   0.57997   0.00000  Uiso   1.00
C828   C     0.50061   0.47393   0.58188   0.00000  Uiso   1.00
C829   C     0.66054   0.50939   0.73716   0.00000  Uiso   1.00
C830   C     0.34047   0.49128   0.76212   0.00000  Uiso   1.00
C831   C     0.42663   0.53850   0.92068   0.00000  Uiso   1.00
C832   C     0.51428   0.65554   0.73798   0.00000  Uiso   1.00
C833   C     0.48497   0.34542   0.76209   0.00000  Uiso   1.00
C834   C     0.48932   0.38948   0.75886   0.00000  Uiso   1.00
C835   C     0.51023   0.61103   0.74131   0.00000  Uiso   1.00
C836   C     0.52152   0.47891   0.64401   0.00000  Uiso   1.00
C837   C     0.47893   0.52116   0.85603   0.00000  Uiso   1.00
C838   C     0.46735   0.52676   0.89916   0.00000  Uiso   1.00
C839   C     0.53155   0.47136   0.60131   0.00000  Uiso   1.00
C840   C     0.41400   0.54029   0.96140   0.00000  Uiso   1.00
C841   C     0.63117   0.45648   0.51979   0.00000  Uiso   1.00
C842   C     0.49557   0.51703   0.91894   0.00000  Uiso   1.00
C843   C     0.45514   0.46761   0.60340   0.00000  Uiso   1.00
C844   C     0.59823   0.43270   0.95363   0.00000  Uiso   1.00
C845   C     0.54171   0.52117   0.89921   0.00000  Uiso   1.00
C846   C     0.47975   0.51114   0.95940   0.00000  Uiso   1.00
C847   C     0.44021   0.52674   0.98090   0.00000  Uiso   1.00
C848   C     0.50226   0.49170   0.97954   0.00000  Uiso   1.00
C849   C     0.48942   0.49480   0.52116   0.00000  Uiso   1.00
C850   C     0.45402   0.51728   0.54142   0.00000  Uiso   1.00
C851   C     0.42824   0.53040   0.52172   0.00000  Uiso   1.00
F852   F     0.35626   0.53005   0.70807   0.00000  Uiso   1.00
H853   H     0.39982   0.54526   0.53854   0.00000  Uiso   1.00
H854   H     0.65115   0.47504   0.78578   0.00000  Uiso   1.00
H855   H     0.54134   0.33618   0.71577   0.00000  Uiso   1.00
H856   H     0.45758   0.66554   0.78443   0.00000  Uiso   1.00
H857   H     0.59817   0.46593   0.59543   0.00000  Uiso   1.00
H858   H     0.38322   0.55129   0.97763   0.00000  Uiso   1.00
H859   H     0.40469   0.54662   0.90602   0.00000  Uiso   1.00
H860   H     0.44605   0.52614   0.57256   0.00000  Uiso   1.00
H861   H     0.54060   0.45680   0.92842   0.00000  Uiso   1.00
N862   N     0.33398   0.45283   0.50454   0.00000  Uiso   1.00
N863   N     0.41890   0.46240   0.62065   0.00000  Uiso   1.00
N864   N     0.62571   0.41387   0.93408   0.00000  Uiso   1.00
N865   N     0.57846   0.52462   0.88344   0.00000  Uiso   1.00
O866   O     0.50000   0.50000   0.75000   0.00000  Uiso   1.00
O867   O     0.49027   0.45726   0.66625   0.00000  Uiso   1.00
O868   O     0.46020   0.53979   0.83749   0.00000  Uiso   1.00
O869   O     0.54421   0.50826   0.65877   0.00000  Uiso   1.00
O870   O     0.50532   0.49468   0.83749   0.00000  Uiso   1.00
O871   O     0.51182   0.41434   0.77820   0.00000  Uiso   1.00
O872   O     0.47914   0.59469   0.76767   0.00000  Uiso   1.00
O873   O     0.40785   0.46584   0.73607   0.00000  Uiso   1.00
O874   O     0.60119   0.52512   0.71805   0.00000  Uiso   1.00
O875   O     0.40323   0.52293   0.77820   0.00000  Uiso   1.00
O876   O     0.58773   0.48610   0.76767   0.00000  Uiso   1.00
O877   O     0.47133   0.40236   0.73607   0.00000  Uiso   1.00
O878   O     0.53771   0.58860   0.71805   0.00000  Uiso   1.00
Zn879  Zn    0.52577   0.47423   0.78277   0.00000  Uiso   1.00
Zn880  Zn    0.46792   0.45711   0.72257   0.00000  Uiso   1.00
Zn881  Zn    0.54500   0.52997   0.71188   0.00000  Uiso   1.00
Zn882  Zn    0.46131   0.53868   0.78277   0.00000  Uiso   1.00
C883   C     0.71918   0.49331   0.75878   0.00000  Uiso   1.00
C884   C     0.86906   0.46734   0.95921   0.00000  Uiso   1.00
C885   C     0.89702   0.45613   0.97777   0.00000  Uiso   1.00
C886   C     0.94777   0.50691   0.74111   0.00000  Uiso   1.00
C887   C     0.88890   0.46509   0.51890   0.00000  Uiso   1.00
C888   C     0.84769   0.47790   0.54096   0.00000  Uiso   1.00
C889   C     0.91946   0.46125   0.53918   0.00000  Uiso   1.00
C890   C     0.90756   0.46661   0.57997   0.00000  Uiso   1.00
C891   C     0.83394   0.47393   0.58188   0.00000  Uiso   1.00
C892   C     0.99388   0.50939   0.73716   0.00000  Uiso   1.00
C893   C     0.67380   0.49128   0.76212   0.00000  Uiso   1.00
C894   C     0.75996   0.53850   0.92068   0.00000  Uiso   1.00
C895   C     0.84761   0.65554   0.73798   0.00000  Uiso   1.00
C896   C     0.81831   0.34542   0.76209   0.00000  Uiso   1.00
C897   C     0.82265   0.38948   0.75886   0.00000  Uiso   1.00
C898   C     0.84356   0.61103   0.74131   0.00000  Uiso   1.00
C899   C     0.85486   0.47891   0.64401   0.00000  Uiso   1.00
C900   C     0.81226   0.52116   0.85603   0.00000  Uiso   1.00
C901   C     0.80068   0.52676   0.89916   0.00000  Uiso   1.00
C902   C     0.86488   0.47136   0.60131   0.00000  Uiso   1.00
C903   C     0.74734   0.54029   0.96140   0.00000  Uiso   1.00
C904   C     0.96450   0.45648   0.51979   0.00000  Uiso   1.00
C905   C     0.82891   0.51703   0.91894   0.00000  Uiso   1.00
C906   C     0.78847   0.46761   0.60340   0.00000  Uiso   1.00
C907   C     0.93156   0.43270   0.95363   0.00000  Uiso   1.00
C908   C     0.87505   0.52117   0.89921   0.00000  Uiso   1.00
C909   C     0.81308   0.51114   0.95940   0.00000  Uiso   1.00
C910   C     0.77354   0.52674   0.98090   0.00000  Uiso   1.00
C911   C     0.83560   0.49170   0.97954   0.00000  Uiso   1.00
C912   C     0.82276   0.49480   0.52116   0.00000  Uiso   1.00
C913   C     0.78736   0.51728   0.54142   0.00000  Uiso   1.00
C914   C     0.76158   0.53040   0.52172   0.00000  Uiso   1.00
F915   F     0.68959   0.53005   0.70807   0.00000  Uiso   1.00
H916   H     0.73316   0.54526   0.53854   0.00000  Uiso   1.00
H917   H     0.98448   0.47504   0.78578   0.00000  Uiso   1.00
H918   H     0.87467   0.33618   0.71577   0.00000  Uiso   1.00
H919   H     0.79091   0.66554   0.78443   0.00000  Uiso   1.00
H920   H     0.93150   0.46593   0.59543   0.00000  Uiso   1.00
H921   H     0.71655   0.55129   0.97763   0.00000  Uiso   1.00
H922   H     0.73803   0.54662   0.90602   0.00000  Uiso   1.00
H923   H     0.77939   0.52614   0.57256   0.00000  Uiso   1.00
H924   H     0.87393   0.45680   0.92842   0.00000  Uiso   1.00
N925   N     0.66731   0.45283   0.50454   0.00000  Uiso   1.00
N926   N     0.75224   0.46240   0.62065   0.00000  Uiso   1.00
N927   N     0.95905   0.41387   0.93408   0.00000  Uiso   1.00
N928   N     0.91179   0.52462   0.88344   0.00000  Uiso   1.00
O929   O     0.83333   0.50000   0.75000   0.00000  Uiso   1.00
O930   O     0.82360   0.45726   0.66625   0.00000  Uiso   1.00
O931   O     0.79354   0.53979   0.83749   0.00000  Uiso   1.00
O932   O     0.87755   0.50826   0.65877   0.00000  Uiso   1.00
O933   O     0.83865   0.49468   0.83749   0.00000  Uiso   1.00
O934   O     0.84515   0.41434   0.77820   0.00000  Uiso   1.00
O935   O     0.81247   0.59469   0.76767   0.00000  Uiso   1.00
O936   O     0.74119   0.46584   0.73607   0.00000  Uiso   1.00
O937   O     0.93452   0.52512   0.71805   0.00000  Uiso   1.00
O938   O     0.73656   0.52293   0.77820   0.00000  Uiso   1.00
O939   O     0.92106   0.48610   0.76767   0.00000  Uiso   1.00
O940   O     0.80467   0.40236   0.73607   0.00000  Uiso   1.00
O941   O     0.87104   0.58860   0.71805   0.00000  Uiso   1.00
Zn942  Zn    0.85910   0.47423   0.78277   0.00000  Uiso   1.00
Zn943  Zn    0.80125   0.45711   0.72257   0.00000  Uiso   1.00
Zn944  Zn    0.87833   0.52997   0.71188   0.00000  Uiso   1.00
Zn945  Zn    0.79465   0.53868   0.78277   0.00000  Uiso   1.00
C946   C     0.05251   0.82664   0.75878   0.00000  Uiso   1.00
C947   C     0.20239   0.80067   0.95921   0.00000  Uiso   1.00
C948   C     0.23035   0.78946   0.97777   0.00000  Uiso   1.00
C949   C     0.28110   0.84025   0.74111   0.00000  Uiso   1.00
C950   C     0.22223   0.79842   0.51890   0.00000  Uiso   1.00
C951   C     0.18103   0.81124   0.54096   0.00000  Uiso   1.00
C952   C     0.25280   0.79458   0.53918   0.00000  Uiso   1.00
C953   C     0.24089   0.79994   0.57997   0.00000  Uiso   1.00
C954   C     0.16728   0.80726   0.58188   0.00000  Uiso   1.00
C955   C     0.32721   0.84272   0.73716   0.00000  Uiso   1.00
C956   C     0.00713   0.82461   0.76212   0.00000  Uiso   1.00
C957   C     0.09330   0.87183   0.92068   0.00000  Uiso   1.00
C958   C     0.18094   0.98887   0.73798   0.00000  Uiso   1.00
C959   C     0.15164   0.67876   0.76209   0.00000  Uiso   1.00
C960   C     0.15598   0.72281   0.75886   0.00000  Uiso   1.00
C961   C     0.17689   0.94436   0.74131   0.00000  Uiso   1.00
C962   C     0.18819   0.81224   0.64401   0.00000  Uiso   1.00
C963   C     0.14560   0.85450   0.85603   0.00000  Uiso   1.00
C964   C     0.13402   0.86010   0.89916   0.00000  Uiso   1.00
C965   C     0.19822   0.80469   0.60131   0.00000  Uiso   1.00
C966   C     0.08067   0.87363   0.96140   0.00000  Uiso   1.00
C967   C     0.29783   0.78981   0.51979   0.00000  Uiso   1.00
C968   C     0.16224   0.85037   0.91894   0.00000  Uiso   1.00
C969   C     0.12181   0.80094   0.60340   0.00000  Uiso   1.00
C970   C     0.26490   0.76603   0.95363   0.00000  Uiso   1.00
C971   C     0.20838   0.85450   0.89921   0.00000  Uiso   1.00
C972   C     0.14642   0.84447   0.95940   0.00000  Uiso   1.00
C973   C     0.10687   0.86007   0.98090   0.00000  Uiso   1.00
C974   C     0.16893   0.82503   0.97954   0.00000  Uiso   1.00
C975   C     0.15609   0.82813   0.52116   0.00000  Uiso   1.00
C976   C     0.12069   0.85062   0.54142   0.00000  Uiso   1.00
C977   C     0.09491   0.86373   0.52172   0.00000  Uiso   1.00
F978   F     0.02293   0.86338   0.70807   0.00000  Uiso   1.00
H979   H     0.06649   0.87859   0.53854   0.00000  Uiso   1.00
H980   H     0.31782   0.80838   0.78578   0.00000  Uiso   1.00
H981   H     0.20801   0.66952   0.71577   0.00000  Uiso   1.00
H982   H     0.12424   0.99887   0.78443   0.00000  Uiso   1.00
H983   H     0.26483   0.79927   0.59543   0.00000  Uiso   1.00
H984   H     0.04989   0.88462   0.97763   0.00000  Uiso   1.00
H985   H     0.07136   0.87996   0.90602   0.00000  Uiso   1.00
H986   H     0.11272   0.85948   0.57256   0.00000  Uiso   1.00
H987   H     0.20727   0.79014   0.92842   0.00000  Uiso   1.00
N988   N     0.00064   0.78616   0.50454   0.00000  Uiso   1.00
N989   N     0.08557   0.79573   0.62065   0.00000  Uiso   1.00
N990   N     0.29238   0.74721   0.93408   0.00000  Uiso   1.00
N991   N     0.24513   0.85796   0.88344   0.00000  Uiso   1.00
O992   O     0.16667   0.83333   0.75000   0.00000  Uiso   1.00
O993   O     0.15693   0.79060   0.66625   0.00000  Uiso   1.00
O994   O     0.12687   0.87313   0.83749   0.00000  Uiso   1.00
O995   O     0.21088   0.84159   0.65877   0.00000  Uiso   1.00
O996   O     0.17198   0.82802   0.83749   0.00000  Uiso   1.00
O997   O     0.17849   0.74768   0.77820   0.00000  Uiso   1.00
O998   O     0.14581   0.92803   0.76767   0.00000  Uiso   1.00
O999   O     0.07452   0.79917   0.73607   0.00000  Uiso   1.00
O1000  O     0.26785   0.85845   0.71805   0.00000  Uiso   1.00
O1001  O     0.06990   0.85627   0.77820   0.00000  Uiso   1.00
O1002  O     0.25440   0.81944   0.76767   0.00000  Uiso   1.00
O1003  O     0.13800   0.73570   0.73607   0.00000  Uiso   1.00
O1004  O     0.20437   0.92193   0.71805   0.00000  Uiso   1.00
Zn1005 Zn    0.19244   0.80756   0.78277   0.00000  Uiso   1.00
Zn1006 Zn    0.13459   0.79044   0.72257   0.00000  Uiso   1.00
Zn1007 Zn    0.21166   0.86331   0.71188   0.00000  Uiso   1.00
Zn1008 Zn    0.12798   0.87202   0.78277   0.00000  Uiso   1.00
C1009  C     0.38584   0.82664   0.75878   0.00000  Uiso   1.00
C1010  C     0.53572   0.80067   0.95921   0.00000  Uiso   1.00
C1011  C     0.56369   0.78946   0.97777   0.00000  Uiso   1.00
C1012  C     0.61443   0.84025   0.74111   0.00000  Uiso   1.00
C1013  C     0.55556   0.79842   0.51890   0.00000  Uiso   1.00
C1014  C     0.51436   0.81124   0.54096   0.00000  Uiso   1.00
C1015  C     0.58613   0.79458   0.53918   0.00000  Uiso   1.00
C1016  C     0.57422   0.79994   0.57997   0.00000  Uiso   1.00
C1017  C     0.50061   0.80726   0.58188   0.00000  Uiso   1.00
C1018  C     0.66054   0.84272   0.73716   0.00000  Uiso   1.00
C1019  C     0.34047   0.82461   0.76212   0.00000  Uiso   1.00
C1020  C     0.42663   0.87183   0.92068   0.00000  Uiso   1.00
C1021  C     0.51428   0.98887   0.73798   0.00000  Uiso   1.00
C1022  C     0.48497   0.67876   0.76209   0.00000  Uiso   1.00
C1023  C     0.48932   0.72281   0.75886   0.00000  Uiso   1.00
C1024  C     0.51023   0.94436   0.74131   0.00000  Uiso   1.00
C1025  C     0.52152   0.81224   0.64401   0.00000  Uiso   1.00
C1026  C     0.47893   0.85450   0.85603   0.00000  Uiso   1.00
C1027  C     0.46735   0.86010   0.89916   0.00000  Uiso   1.00
C1028  C     0.53155   0.80469   0.60131   0.00000  Uiso   1.00
C1029  C     0.41400   0.87363   0.96140   0.00000  Uiso   1.00
C1030  C     0.63117   0.78981   0.51979   0.00000  Uiso   1.00
C1031  C     0.49557   0.85037   0.91894   0.00000  Uiso   1.00
C1032  C     0.45514   0.80094   0.60340   0.00000  Uiso   1.00
C1033  C     0.59823   0.76603   0.95363   0.00000  Uiso   1.00
C1034  C     0.54171   0.85450   0.89921   0.00000  Uiso   1.00
C1035  C     0.47975   0.84447   0.95940   0.00000  Uiso   1.00
C1036  C     0.44021   0.86007   0.98090   0.00000  Uiso   1.00
C1037  C     0.50226   0.82503   0.97954   0.00000  Uiso   1.00
C1038  C     0.48942   0.82813   0.52116   0.00000  Uiso   1.00
C1039  C     0.45402   0.85062   0.54142   0.00000  Uiso   1.00
C1040  C     0.42824   0.86373   0.52172   0.00000  Uiso   1.00
F1041  F     0.35626   0.86338   0.70807   0.00000  Uiso   1.00
H1042  H     0.39982   0.87859   0.53854   0.00000  Uiso   1.00
H1043  H     0.65115   0.80838   0.78578   0.00000  Uiso   1.00
H1044  H     0.54134   0.66952   0.71577   0.00000  Uiso   1.00
H1045  H     0.45758   0.99887   0.78443   0.00000  Uiso   1.00
H1046  H     0.59817   0.79927   0.59543   0.00000  Uiso   1.00
H1047  H     0.38322   0.88462   0.97763   0.00000  Uiso   1.00
H1048  H     0.40469   0.87996   0.90602   0.00000  Uiso   1.00
H1049  H     0.44605   0.85948   0.57256   0.00000  Uiso   1.00
H1050  H     0.54060   0.79014   0.92842   0.00000  Uiso   1.00
N1051  N     0.33398   0.78616   0.50454   0.00000  Uiso   1.00
N1052  N     0.41890   0.79573   0.62065   0.00000  Uiso   1.00
N1053  N     0.62571   0.74721   0.93408   0.00000  Uiso   1.00
N1054  N     0.57846   0.85796   0.88344   0.00000  Uiso   1.00
O1055  O     0.50000   0.83333   0.75000   0.00000  Uiso   1.00
O1056  O     0.49027   0.79060   0.66625   0.00000  Uiso   1.00
O1057  O     0.46020   0.87313   0.83749   0.00000  Uiso   1.00
O1058  O     0.54421   0.84159   0.65877   0.00000  Uiso   1.00
O1059  O     0.50532   0.82802   0.83749   0.00000  Uiso   1.00
O1060  O     0.51182   0.74768   0.77820   0.00000  Uiso   1.00
O1061  O     0.47914   0.92803   0.76767   0.00000  Uiso   1.00
O1062  O     0.40785   0.79917   0.73607   0.00000  Uiso   1.00
O1063  O     0.60119   0.85845   0.71805   0.00000  Uiso   1.00
O1064  O     0.40323   0.85627   0.77820   0.00000  Uiso   1.00
O1065  O     0.58773   0.81944   0.76767   0.00000  Uiso   1.00
O1066  O     0.47133   0.73570   0.73607   0.00000  Uiso   1.00
O1067  O     0.53771   0.92193   0.71805   0.00000  Uiso   1.00
Zn1068 Zn    0.52577   0.80756   0.78277   0.00000  Uiso   1.00
Zn1069 Zn    0.46792   0.79044   0.72257   0.00000  Uiso   1.00
Zn1070 Zn    0.54500   0.86331   0.71188   0.00000  Uiso   1.00
Zn1071 Zn    0.46131   0.87202   0.78277   0.00000  Uiso   1.00
C1072  C     0.71918   0.82664   0.75878   0.00000  Uiso   1.00
C1073  C     0.86906   0.80067   0.95921   0.00000  Uiso   1.00
C1074  C     0.89702   0.78946   0.97777   0.00000  Uiso   1.00
C1075  C     0.94777   0.84025   0.74111   0.00000  Uiso   1.00
C1076  C     0.88890   0.79842   0.51890   0.00000  Uiso   1.00
C1077  C     0.84769   0.81124   0.54096   0.00000  Uiso   1.00
C1078  C     0.91946   0.79458   0.53918   0.00000  Uiso   1.00
C1079  C     0.90756   0.79994   0.57997   0.00000  Uiso   1.00
C1080  C     0.83394   0.80726   0.58188   0.00000  Uiso   1.00
C1081  C     0.99388   0.84272   0.73716   0.00000  Uiso   1.00
C1082  C     0.67380   0.82461   0.76212   0.00000  Uiso   1.00
C1083  C     0.75996   0.87183   0.92068   0.00000  Uiso   1.00
C1084  C     0.84761   0.98887   0.73798   0.00000  Uiso   1.00
C1085  C     0.81831   0.67876   0.76209   0.00000  Uiso   1.00
C1086  C     0.82265   0.72281   0.75886   0.00000  Uiso   1.00
C1087  C     0.84356   0.94436   0.74131   0.00000  Uiso   1.00
C1088  C     0.85486   0.81224   0.64401   0.00000  Uiso   1.00
C1089  C     0.81226   0.85450   0.85603   0.00000  Uiso   1.00
C1090  C     0.80068   0.86010   0.89916   0.00000  Uiso   1.00
C1091  C     0.86488   0.80469   0.60131   0.00000  Uiso   1.00
C1092  C     0.74734   0.87363   0.96140   0.00000  Uiso   1.00
C1093  C     0.96450   0.78981   0.51979   0.00000  Uiso   1.00
C1094  C     0.82891   0.85037   0.91894   0.00000  Uiso   1.00
C1095  C     0.78847   0.80094   0.60340   0.00000  Uiso   1.00
C1096  C     0.93156   0.76603   0.95363   0.00000  Uiso   1.00
C1097  C     0.87505   0.85450   0.89921   0.00000  Uiso   1.00
C1098  C     0.81308   0.84447   0.95940   0.00000  Uiso   1.00
C1099  C     0.77354   0.86007   0.98090   0.00000  Uiso   1.00
C1100  C     0.83560   0.82503   0.97954   0.00000  Uiso   1.00
C1101  C     0.82276   0.82813   0.52116   0.00000  Uiso   1.00
C1102  C     0.78736   0.85062   0.54142   0.00000  Uiso   1.00
C1103  C     0.76158   0.86373   0.52172   0.00000  Uiso   1.00
F1104  F     0.68959   0.86338   0.70807   0.00000  Uiso   1.00
H1105  H     0.73316   0.87859   0.53854   0.00000  Uiso   1.00
H1106  H     0.98448   0.80838   0.78578   0.00000  Uiso   1.00
H1107  H     0.87467   0.66952   0.71577   0.00000  Uiso   1.00
H1108  H     0.79091   0.99887   0.78443   0.00000  Uiso   1.00
H1109  H     0.93150   0.79927   0.59543   0.00000  Uiso   1.00
H1110  H     0.71655   0.88462   0.97763   0.00000  Uiso   1.00
H1111  H     0.73803   0.87996   0.90602   0.00000  Uiso   1.00
H1112  H     0.77939   0.85948   0.57256   0.00000  Uiso   1.00
H1113  H     0.87393   0.79014   0.92842   0.00000  Uiso   1.00
N1114  N     0.66731   0.78616   0.50454   0.00000  Uiso   1.00
N1115  N     0.75224   0.79573   0.62065   0.00000  Uiso   1.00
N1116  N     0.95905   0.74721   0.93408   0.00000  Uiso   1.00
N1117  N     0.91179   0.85796   0.88344   0.00000  Uiso   1.00
O1118  O     0.83333   0.83333   0.75000   0.00000  Uiso   1.00
O1119  O     0.82360   0.79060   0.66625   0.00000  Uiso   1.00
O1120  O     0.79354   0.87313   0.83749   0.00000  Uiso   1.00
O1121  O     0.87755   0.84159   0.65877   0.00000  Uiso   1.00
O1122  O     0.83865   0.82802   0.83749   0.00000  Uiso   1.00
O1123  O     0.84515   0.74768   0.77820   0.00000  Uiso   1.00
O1124  O     0.81247   0.92803   0.76767   0.00000  Uiso   1.00
O1125  O     0.74119   0.79917   0.73607   0.00000  Uiso   1.00
O1126  O     0.93452   0.85845   0.71805   0.00000  Uiso   1.00
O1127  O     0.73656   0.85627   0.77820   0.00000  Uiso   1.00
O1128  O     0.92106   0.81944   0.76767   0.00000  Uiso   1.00
O1129  O     0.80467   0.73570   0.73607   0.00000  Uiso   1.00
O1130  O     0.87104   0.92193   0.71805   0.00000  Uiso   1.00
Zn1131 Zn    0.85910   0.80756   0.78277   0.00000  Uiso   1.00
Zn1132 Zn    0.80125   0.79044   0.72257   0.00000  Uiso   1.00
Zn1133 Zn    0.87833   0.86331   0.71188   0.00000  Uiso   1.00
Zn1134 Zn    0.79465   0.87202   0.78277   0.00000  Uiso   1.00
loop_
_geom_bond_atom_site_label_1
_geom_bond_atom_site_label_2
_geom_bond_distance
_geom_bond_site_symmetry_2
_ccdc_geom_bond_type
C1     O54     1.272   .     A
C1     C11     1.438   .     S
C1     O56     1.271   .     A
C2     C3      1.389   .     A
C2     C29     1.405   .     A
C2     H42     1.081   .     S
C3     C25     1.446   .     S
C3     C572    1.416   .     S
C4     O57     1.279   .     A
C4     O55     1.282   .     A
C4     C10     1.456   .     S
C5     C6      1.430   .     A
C5     C7      1.423   .     A
C5     C570    1.416   1_554 S
C6     C30     1.431   .     A
C6     C9      1.421   .     A
C7     C22     1.446   .     S
C7     C8      1.391   .     A
C8     C20     1.393   .     A
C8     H38     1.086   .     S
C9     C24     1.451   .     S
C9     C20     1.401   .     A
C10    C74     1.337   .     S
C10    F96     1.362   .     S
C11    C136    1.337   1_455 S
C11    H161    1.086   1_455 S
C12    H40     1.083   .     S
C12    C19     1.401   .     A
C12    C21     1.391   .     A
C13    C16     1.451   .     S
C13    C203    1.332   .     S
C13    H225    1.088   .     S
C14    C15     1.436   .     S
C14    C391    1.332   1_545 S
C14    H415    1.086   1_545 S
C15    O52     1.280   .     A
C15    O58     1.280   .     A
C16    O53     1.270   .     A
C16    O59     1.270   .     A
C17    O50     1.271   .     A
C17    O48     1.276   .     A
C17    C20     1.462   .     S
C18    O51     1.283   .     A
C18    C19     1.472   .     S
C18    O49     1.282   .     A
C19    C23     1.408   .     A
C21    H39     1.084   .     S
C21    C28     1.401   .     A
C22    N106    1.158   .     S
C23    C27     1.419   .     A
C23    C26     1.453   .     S
C24    N44     1.158   .     T
C25    N45     1.158   .     T
C26    N46     1.158   .     T
C27    C29     1.427   .     A
C27    C28     1.417   .     A
C28    C599    1.392   .     S
C29    C597    1.419   .     S
C30    C31     1.414   .     A
C30    C596    1.419   1_554 S
C31    H41     1.077   .     S
C31    C32     1.388   .     A
C32    H34     1.084   .     S
C32    C595    1.392   1_554 S
F33    C136    1.362   1_455 S
H35    C74     1.086   .     S
H36    C391    1.088   1_545 S
H37    C203    1.086   .     S
N43    C148    1.158   1_455 S
O47    Zn61    1.947   .     S
O47    Zn62    1.930   .     S
O47    Zn63    1.933   .     S
O47    Zn60    1.964   .     S
O48    Zn61    1.935   .     S
O49    Zn63    1.948   .     S
O50    Zn62    1.943   .     S
O51    Zn60    1.932   .     S
O52    Zn60    1.927   .     S
O53    Zn63    1.928   .     S
O54    Zn61    1.925   .     S
O55    Zn62    1.938   .     S
O56    Zn63    1.932   .     S
O57    Zn60    1.920   .     S
O58    Zn61    1.935   .     S
O59    Zn62    1.930   .     S
C64    O117    1.272   .     A
C64    C74     1.438   .     S
C64    O119    1.271   .     A
C65    C66     1.389   .     A
C65    C92     1.405   .     A
C65    H105    1.081   .     S
C66    C88     1.446   .     S
C66    C635    1.416   .     S
C67    O120    1.279   .     A
C67    O118    1.282   .     A
C67    C73     1.456   .     S
C68    C69     1.430   .     A
C68    C70     1.423   .     A
C68    C633    1.416   1_554 S
C69    C93     1.431   .     A
C69    C72     1.421   .     A
C70    C85     1.446   .     S
C70    C71     1.391   .     A
C71    C83     1.393   .     A
C71    H101    1.086   .     S
C72    C87     1.451   .     S
C72    C83     1.401   .     A
C73    C137    1.337   .     S
C73    F159    1.362   .     S
C75    H103    1.083   .     S
C75    C82     1.401   .     A
C75    C84     1.391   .     A
C76    C79     1.451   .     S
C76    C266    1.332   .     S
C76    H288    1.088   .     S
C77    C78     1.436   .     S
C77    C454    1.332   1_545 S
C77    H478    1.086   1_545 S
C78    O115    1.280   .     A
C78    O121    1.280   .     A
C79    O116    1.270   .     A
C79    O122    1.270   .     A
C80    O113    1.271   .     A
C80    O111    1.276   .     A
C80    C83     1.462   .     S
C81    O114    1.283   .     A
C81    C82     1.472   .     S
C81    O112    1.282   .     A
C82    C86     1.408   .     A
C84    H102    1.084   .     S
C84    C91     1.401   .     A
C85    N169    1.158   .     S
C86    C90     1.419   .     A
C86    C89     1.453   .     S
C87    N107    1.158   .     T
C88    N108    1.158   .     T
C89    N109    1.158   .     T
C90    C92     1.427   .     A
C90    C91     1.417   .     A
C91    C662    1.392   .     S
C92    C660    1.419   .     S
C93    C94     1.414   .     A
C93    C659    1.419   1_554 S
C94    H104    1.077   .     S
C94    C95     1.388   .     A
C95    H97     1.084   .     S
C95    C658    1.392   1_554 S
H98    C137    1.086   .     S
H99    C454    1.088   1_545 S
H100   C266    1.086   .     S
O110   Zn124   1.947   .     S
O110   Zn125   1.930   .     S
O110   Zn126   1.933   .     S
O110   Zn123   1.964   .     S
O111   Zn124   1.935   .     S
O112   Zn126   1.948   .     S
O113   Zn125   1.943   .     S
O114   Zn123   1.932   .     S
O115   Zn123   1.927   .     S
O116   Zn126   1.928   .     S
O117   Zn124   1.925   .     S
O118   Zn125   1.938   .     S
O119   Zn126   1.932   .     S
O120   Zn123   1.920   .     S
O121   Zn124   1.935   .     S
O122   Zn125   1.930   .     S
C127   O180    1.272   .     A
C127   C137    1.438   .     S
C127   O182    1.271   .     A
C128   C129    1.389   .     A
C128   C155    1.405   .     A
C128   H168    1.081   .     S
C129   C151    1.446   .     S
C129   C698    1.416   .     S
C130   O183    1.279   .     A
C130   O181    1.282   .     A
C130   C136    1.456   .     S
C131   C132    1.430   .     A
C131   C133    1.423   .     A
C131   C696    1.416   1_554 S
C132   C156    1.431   .     A
C132   C135    1.421   .     A
C133   C148    1.446   .     S
C133   C134    1.391   .     A
C134   C146    1.393   .     A
C134   H164    1.086   .     S
C135   C150    1.451   .     S
C135   C146    1.401   .     A
C136   C11     1.337   1_655 S
C136   F33     1.362   1_655 S
C138   H166    1.083   .     S
C138   C145    1.401   .     A
C138   C147    1.391   .     A
C139   C142    1.451   .     S
C139   C329    1.332   .     S
C139   H351    1.088   .     S
C140   C141    1.436   .     S
C140   C517    1.332   1_545 S
C140   H541    1.086   1_545 S
C141   O178    1.280   .     A
C141   O184    1.280   .     A
C142   O179    1.270   .     A
C142   O185    1.270   .     A
C143   O176    1.271   .     A
C143   O174    1.276   .     A
C143   C146    1.462   .     S
C144   O177    1.283   .     A
C144   C145    1.472   .     S
C144   O175    1.282   .     A
C145   C149    1.408   .     A
C147   H165    1.084   .     S
C147   C154    1.401   .     A
C148   N43     1.158   1_655 S
C149   C153    1.419   .     A
C149   C152    1.453   .     S
C150   N170    1.158   .     T
C151   N171    1.158   .     T
C152   N172    1.158   .     T
C153   C155    1.427   .     A
C153   C154    1.417   .     A
C154   C725    1.392   .     S
C155   C723    1.419   .     S
C156   C157    1.414   .     A
C156   C722    1.419   1_554 S
C157   H167    1.077   .     S
C157   C158    1.388   .     A
C158   H160    1.084   .     S
C158   C721    1.392   1_554 S
H161   C11     1.086   1_655 S
H162   C517    1.088   1_545 S
H163   C329    1.086   .     S
O173   Zn187   1.947   .     S
O173   Zn188   1.930   .     S
O173   Zn189   1.933   .     S
O173   Zn186   1.964   .     S
O174   Zn187   1.935   .     S
O175   Zn189   1.948   .     S
O176   Zn188   1.943   .     S
O177   Zn186   1.932   .     S
O178   Zn186   1.927   .     S
O179   Zn189   1.928   .     S
O180   Zn187   1.925   .     S
O181   Zn188   1.938   .     S
O182   Zn189   1.932   .     S
O183   Zn186   1.920   .     S
O184   Zn187   1.935   .     S
O185   Zn188   1.930   .     S
C190   O243    1.272   .     A
C190   C200    1.438   .     S
C190   O245    1.271   .     A
C191   C192    1.389   .     A
C191   C218    1.405   .     A
C191   H231    1.081   .     S
C192   C214    1.446   .     S
C192   C761    1.416   .     S
C193   O246    1.279   .     A
C193   O244    1.282   .     A
C193   C199    1.456   .     S
C194   C195    1.430   .     A
C194   C196    1.423   .     A
C194   C759    1.416   1_554 S
C195   C219    1.431   .     A
C195   C198    1.421   .     A
C196   C211    1.446   .     S
C196   C197    1.391   .     A
C197   C209    1.393   .     A
C197   H227    1.086   .     S
C198   C213    1.451   .     S
C198   C209    1.401   .     A
C199   C263    1.337   .     S
C199   F285    1.362   .     S
C200   C325    1.337   1_455 S
C200   H350    1.086   1_455 S
C201   H229    1.083   .     S
C201   C208    1.401   .     A
C201   C210    1.391   .     A
C202   C205    1.451   .     S
C202   C392    1.332   .     S
C202   H414    1.088   .     S
C203   C204    1.436   .     S
C204   O241    1.280   .     A
C204   O247    1.280   .     A
C205   O242    1.270   .     A
C205   O248    1.270   .     A
C206   O239    1.271   .     A
C206   O237    1.276   .     A
C206   C209    1.462   .     S
C207   O240    1.283   .     A
C207   C208    1.472   .     S
C207   O238    1.282   .     A
C208   C212    1.408   .     A
C210   H228    1.084   .     S
C210   C217    1.401   .     A
C211   N295    1.158   .     S
C212   C216    1.419   .     A
C212   C215    1.453   .     S
C213   N233    1.158   .     T
C214   N234    1.158   .     T
C215   N235    1.158   .     T
C216   C218    1.427   .     A
C216   C217    1.417   .     A
C217   C788    1.392   .     S
C218   C786    1.419   .     S
C219   C220    1.414   .     A
C219   C785    1.419   1_554 S
C220   H230    1.077   .     S
C220   C221    1.388   .     A
C221   H223    1.084   .     S
C221   C784    1.392   1_554 S
F222   C325    1.362   1_455 S
H224   C263    1.086   .     S
H226   C392    1.086   .     S
N232   C337    1.158   1_455 S
O236   Zn250   1.947   .     S
O236   Zn251   1.930   .     S
O236   Zn252   1.933   .     S
O236   Zn249   1.964   .     S
O237   Zn250   1.935   .     S
O238   Zn252   1.948   .     S
O239   Zn251   1.943   .     S
O240   Zn249   1.932   .     S
O241   Zn249   1.927   .     S
O242   Zn252   1.928   .     S
O243   Zn250   1.925   .     S
O244   Zn251   1.938   .     S
O245   Zn252   1.932   .     S
O246   Zn249   1.920   .     S
O247   Zn250   1.935   .     S
O248   Zn251   1.930   .     S
C253   O306    1.272   .     A
C253   C263    1.438   .     S
C253   O308    1.271   .     A
C254   C255    1.389   .     A
C254   C281    1.405   .     A
C254   H294    1.081   .     S
C255   C277    1.446   .     S
C255   C824    1.416   .     S
C256   O309    1.279   .     A
C256   O307    1.282   .     A
C256   C262    1.456   .     S
C257   C258    1.430   .     A
C257   C259    1.423   .     A
C257   C822    1.416   1_554 S
C258   C282    1.431   .     A
C258   C261    1.421   .     A
C259   C274    1.446   .     S
C259   C260    1.391   .     A
C260   C272    1.393   .     A
C260   H290    1.086   .     S
C261   C276    1.451   .     S
C261   C272    1.401   .     A
C262   C326    1.337   .     S
C262   F348    1.362   .     S
C264   H292    1.083   .     S
C264   C271    1.401   .     A
C264   C273    1.391   .     A
C265   C268    1.451   .     S
C265   C455    1.332   .     S
C265   H477    1.088   .     S
C266   C267    1.436   .     S
C267   O304    1.280   .     A
C267   O310    1.280   .     A
C268   O305    1.270   .     A
C268   O311    1.270   .     A
C269   O302    1.271   .     A
C269   O300    1.276   .     A
C269   C272    1.462   .     S
C270   O303    1.283   .     A
C270   C271    1.472   .     S
C270   O301    1.282   .     A
C271   C275    1.408   .     A
C273   H291    1.084   .     S
C273   C280    1.401   .     A
C274   N358    1.158   .     S
C275   C279    1.419   .     A
C275   C278    1.453   .     S
C276   N296    1.158   .     T
C277   N297    1.158   .     T
C278   N298    1.158   .     T
C279   C281    1.427   .     A
C279   C280    1.417   .     A
C280   C851    1.392   .     S
C281   C849    1.419   .     S
C282   C283    1.414   .     A
C282   C848    1.419   1_554 S
C283   H293    1.077   .     S
C283   C284    1.388   .     A
C284   H286    1.084   .     S
C284   C847    1.392   1_554 S
H287   C326    1.086   .     S
H289   C455    1.086   .     S
O299   Zn313   1.947   .     S
O299   Zn314   1.930   .     S
O299   Zn315   1.933   .     S
O299   Zn312   1.964   .     S
O300   Zn313   1.935   .     S
O301   Zn315   1.948   .     S
O302   Zn314   1.943   .     S
O303   Zn312   1.932   .     S
O304   Zn312   1.927   .     S
O305   Zn315   1.928   .     S
O306   Zn313   1.925   .     S
O307   Zn314   1.938   .     S
O308   Zn315   1.932   .     S
O309   Zn312   1.920   .     S
O310   Zn313   1.935   .     S
O311   Zn314   1.930   .     S
C316   O369    1.272   .     A
C316   C326    1.438   .     S
C316   O371    1.271   .     A
C317   C318    1.389   .     A
C317   C344    1.405   .     A
C317   H357    1.081   .     S
C318   C340    1.446   .     S
C318   C887    1.416   .     S
C319   O372    1.279   .     A
C319   O370    1.282   .     A
C319   C325    1.456   .     S
C320   C321    1.430   .     A
C320   C322    1.423   .     A
C320   C885    1.416   1_554 S
C321   C345    1.431   .     A
C321   C324    1.421   .     A
C322   C337    1.446   .     S
C322   C323    1.391   .     A
C323   C335    1.393   .     A
C323   H353    1.086   .     S
C324   C339    1.451   .     S
C324   C335    1.401   .     A
C325   C200    1.337   1_655 S
C325   F222    1.362   1_655 S
C327   H355    1.083   .     S
C327   C334    1.401   .     A
C327   C336    1.391   .     A
C328   C331    1.451   .     S
C328   C518    1.332   .     S
C328   H540    1.088   .     S
C329   C330    1.436   .     S
C330   O367    1.280   .     A
C330   O373    1.280   .     A
C331   O368    1.270   .     A
C331   O374    1.270   .     A
C332   O365    1.271   .     A
C332   O363    1.276   .     A
C332   C335    1.462   .     S
C333   O366    1.283   .     A
C333   C334    1.472   .     S
C333   O364    1.282   .     A
C334   C338    1.408   .     A
C336   H354    1.084   .     S
C336   C343    1.401   .     A
C337   N232    1.158   1_655 S
C338   C342    1.419   .     A
C338   C341    1.453   .     S
C339   N359    1.158   .     T
C340   N360    1.158   .     T
C341   N361    1.158   .     T
C342   C344    1.427   .     A
C342   C343    1.417   .     A
C343   C914    1.392   .     S
C344   C912    1.419   .     S
C345   C346    1.414   .     A
C345   C911    1.419   1_554 S
C346   H356    1.077   .     S
C346   C347    1.388   .     A
C347   H349    1.084   .     S
C347   C910    1.392   1_554 S
H350   C200    1.086   1_655 S
H352   C518    1.086   .     S
O362   Zn376   1.947   .     S
O362   Zn377   1.930   .     S
O362   Zn378   1.933   .     S
O362   Zn375   1.964   .     S
O363   Zn376   1.935   .     S
O364   Zn378   1.948   .     S
O365   Zn377   1.943   .     S
O366   Zn375   1.932   .     S
O367   Zn375   1.927   .     S
O368   Zn378   1.928   .     S
O369   Zn376   1.925   .     S
O370   Zn377   1.938   .     S
O371   Zn378   1.932   .     S
O372   Zn375   1.920   .     S
O373   Zn376   1.935   .     S
O374   Zn377   1.930   .     S
C379   O432    1.272   .     A
C379   C389    1.438   .     S
C379   O434    1.271   .     A
C380   C381    1.389   .     A
C380   C407    1.405   .     A
C380   H420    1.081   .     S
C381   C403    1.446   .     S
C381   C950    1.416   .     S
C382   O435    1.279   .     A
C382   O433    1.282   .     A
C382   C388    1.456   .     S
C383   C384    1.430   .     A
C383   C385    1.423   .     A
C383   C948    1.416   1_554 S
C384   C408    1.431   .     A
C384   C387    1.421   .     A
C385   C400    1.446   .     S
C385   C386    1.391   .     A
C386   C398    1.393   .     A
C386   H416    1.086   .     S
C387   C402    1.451   .     S
C387   C398    1.401   .     A
C388   C452    1.337   .     S
C388   F474    1.362   .     S
C389   C514    1.337   1_455 S
C389   H539    1.086   1_455 S
C390   H418    1.083   .     S
C390   C397    1.401   .     A
C390   C399    1.391   .     A
C391   C394    1.451   .     S
C391   C14     1.332   1_565 S
C391   H36     1.088   1_565 S
C392   C393    1.436   .     S
C393   O430    1.280   .     A
C393   O436    1.280   .     A
C394   O431    1.270   .     A
C394   O437    1.270   .     A
C395   O428    1.271   .     A
C395   O426    1.276   .     A
C395   C398    1.462   .     S
C396   O429    1.283   .     A
C396   C397    1.472   .     S
C396   O427    1.282   .     A
C397   C401    1.408   .     A
C399   H417    1.084   .     S
C399   C406    1.401   .     A
C400   N484    1.158   .     S
C401   C405    1.419   .     A
C401   C404    1.453   .     S
C402   N422    1.158   .     T
C403   N423    1.158   .     T
C404   N424    1.158   .     T
C405   C407    1.427   .     A
C405   C406    1.417   .     A
C406   C977    1.392   .     S
C407   C975    1.419   .     S
C408   C409    1.414   .     A
C408   C974    1.419   1_554 S
C409   H419    1.077   .     S
C409   C410    1.388   .     A
C410   H412    1.084   .     S
C410   C973    1.392   1_554 S
F411   C514    1.362   1_455 S
H413   C452    1.086   .     S
H415   C14     1.086   1_565 S
N421   C526    1.158   1_455 S
O425   Zn439   1.947   .     S
O425   Zn440   1.930   .     S
O425   Zn441   1.933   .     S
O425   Zn438   1.964   .     S
O426   Zn439   1.935   .     S
O427   Zn441   1.948   .     S
O428   Zn440   1.943   .     S
O429   Zn438   1.932   .     S
O430   Zn438   1.927   .     S
O431   Zn441   1.928   .     S
O432   Zn439   1.925   .     S
O433   Zn440   1.938   .     S
O434   Zn441   1.932   .     S
O435   Zn438   1.920   .     S
O436   Zn439   1.935   .     S
O437   Zn440   1.930   .     S
C442   O495    1.272   .     A
C442   C452    1.438   .     S
C442   O497    1.271   .     A
C443   C444    1.389   .     A
C443   C470    1.405   .     A
C443   H483    1.081   .     S
C444   C466    1.446   .     S
C444   C1013   1.416   .     S
C445   O498    1.279   .     A
C445   O496    1.282   .     A
C445   C451    1.456   .     S
C446   C447    1.430   .     A
C446   C448    1.423   .     A
C446   C1011   1.416   1_554 S
C447   C471    1.431   .     A
C447   C450    1.421   .     A
C448   C463    1.446   .     S
C448   C449    1.391   .     A
C449   C461    1.393   .     A
C449   H479    1.086   .     S
C450   C465    1.451   .     S
C450   C461    1.401   .     A
C451   C515    1.337   .     S
C451   F537    1.362   .     S
C453   H481    1.083   .     S
C453   C460    1.401   .     A
C453   C462    1.391   .     A
C454   C457    1.451   .     S
C454   C77     1.332   1_565 S
C454   H99     1.088   1_565 S
C455   C456    1.436   .     S
C456   O493    1.280   .     A
C456   O499    1.280   .     A
C457   O494    1.270   .     A
C457   O500    1.270   .     A
C458   O491    1.271   .     A
C458   O489    1.276   .     A
C458   C461    1.462   .     S
C459   O492    1.283   .     A
C459   C460    1.472   .     S
C459   O490    1.282   .     A
C460   C464    1.408   .     A
C462   H480    1.084   .     S
C462   C469    1.401   .     A
C463   N547    1.158   .     S
C464   C468    1.419   .     A
C464   C467    1.453   .     S
C465   N485    1.158   .     T
C466   N486    1.158   .     T
C467   N487    1.158   .     T
C468   C470    1.427   .     A
C468   C469    1.417   .     A
C469   C1040   1.392   .     S
C470   C1038   1.419   .     S
C471   C472    1.414   .     A
C471   C1037   1.419   1_554 S
C472   H482    1.077   .     S
C472   C473    1.388   .     A
C473   H475    1.084   .     S
C473   C1036   1.392   1_554 S
H476   C515    1.086   .     S
H478   C77     1.086   1_565 S
O488   Zn502   1.947   .     S
O488   Zn503   1.930   .     S
O488   Zn504   1.933   .     S
O488   Zn501   1.964   .     S
O489   Zn502   1.935   .     S
O490   Zn504   1.948   .     S
O491   Zn503   1.943   .     S
O492   Zn501   1.932   .     S
O493   Zn501   1.927   .     S
O494   Zn504   1.928   .     S
O495   Zn502   1.925   .     S
O496   Zn503   1.938   .     S
O497   Zn504   1.932   .     S
O498   Zn501   1.920   .     S
O499   Zn502   1.935   .     S
O500   Zn503   1.930   .     S
C505   O558    1.272   .     A
C505   C515    1.438   .     S
C505   O560    1.271   .     A
C506   C507    1.389   .     A
C506   C533    1.405   .     A
C506   H546    1.081   .     S
C507   C529    1.446   .     S
C507   C1076   1.416   .     S
C508   O561    1.279   .     A
C508   O559    1.282   .     A
C508   C514    1.456   .     S
C509   C510    1.430   .     A
C509   C511    1.423   .     A
C509   C1074   1.416   1_554 S
C510   C534    1.431   .     A
C510   C513    1.421   .     A
C511   C526    1.446   .     S
C511   C512    1.391   .     A
C512   C524    1.393   .     A
C512   H542    1.086   .     S
C513   C528    1.451   .     S
C513   C524    1.401   .     A
C514   C389    1.337   1_655 S
C514   F411    1.362   1_655 S
C516   H544    1.083   .     S
C516   C523    1.401   .     A
C516   C525    1.391   .     A
C517   C520    1.451   .     S
C517   C140    1.332   1_565 S
C517   H162    1.088   1_565 S
C518   C519    1.436   .     S
C519   O556    1.280   .     A
C519   O562    1.280   .     A
C520   O557    1.270   .     A
C520   O563    1.270   .     A
C521   O554    1.271   .     A
C521   O552    1.276   .     A
C521   C524    1.462   .     S
C522   O555    1.283   .     A
C522   C523    1.472   .     S
C522   O553    1.282   .     A
C523   C527    1.408   .     A
C525   H543    1.084   .     S
C525   C532    1.401   .     A
C526   N421    1.158   1_655 S
C527   C531    1.419   .     A
C527   C530    1.453   .     S
C528   N548    1.158   .     T
C529   N549    1.158   .     T
C530   N550    1.158   .     T
C531   C533    1.427   .     A
C531   C532    1.417   .     A
C532   C1103   1.392   .     S
C533   C1101   1.419   .     S
C534   C535    1.414   .     A
C534   C1100   1.419   1_554 S
C535   H545    1.077   .     S
C535   C536    1.388   .     A
C536   H538    1.084   .     S
C536   C1099   1.392   1_554 S
H539   C389    1.086   1_655 S
H541   C140    1.086   1_565 S
O551   Zn565   1.947   .     S
O551   Zn566   1.930   .     S
O551   Zn567   1.933   .     S
O551   Zn564   1.964   .     S
O552   Zn565   1.935   .     S
O553   Zn567   1.948   .     S
O554   Zn566   1.943   .     S
O555   Zn564   1.932   .     S
O556   Zn564   1.927   .     S
O557   Zn567   1.928   .     S
O558   Zn565   1.925   .     S
O559   Zn566   1.938   .     S
O560   Zn567   1.932   .     S
O561   Zn564   1.920   .     S
O562   Zn565   1.935   .     S
O563   Zn566   1.930   .     S
C568   O621    1.272   .     A
C568   C578    1.438   .     S
C568   O623    1.271   .     A
C569   C570    1.389   .     A
C569   C596    1.405   .     A
C569   H609    1.081   .     S
C570   C592    1.446   .     S
C570   C5      1.416   1_556 S
C571   O624    1.279   .     A
C571   O622    1.282   .     A
C571   C577    1.456   .     S
C572   C573    1.430   .     A
C572   C574    1.423   .     A
C573   C597    1.431   .     A
C573   C576    1.421   .     A
C574   C589    1.446   .     S
C574   C575    1.391   .     A
C575   C587    1.393   .     A
C575   H605    1.086   .     S
C576   C591    1.451   .     S
C576   C587    1.401   .     A
C577   C641    1.337   .     S
C577   F663    1.362   .     S
C578   C703    1.337   1_455 S
C578   H728    1.086   1_455 S
C579   H607    1.083   .     S
C579   C586    1.401   .     A
C579   C588    1.391   .     A
C580   C583    1.451   .     S
C580   C770    1.332   .     S
C580   H792    1.088   .     S
C581   C582    1.436   .     S
C581   C958    1.332   1_545 S
C581   H982    1.086   1_545 S
C582   O619    1.280   .     A
C582   O625    1.280   .     A
C583   O620    1.270   .     A
C583   O626    1.270   .     A
C584   O617    1.271   .     A
C584   O615    1.276   .     A
C584   C587    1.462   .     S
C585   O618    1.283   .     A
C585   C586    1.472   .     S
C585   O616    1.282   .     A
C586   C590    1.408   .     A
C588   H606    1.084   .     S
C588   C595    1.401   .     A
C589   N673    1.158   .     S
C590   C594    1.419   .     A
C590   C593    1.453   .     S
C591   N611    1.158   .     T
C592   N612    1.158   .     T
C593   N613    1.158   .     T
C594   C596    1.427   .     A
C594   C595    1.417   .     A
C595   C32     1.392   1_556 S
C596   C30     1.419   1_556 S
C597   C598    1.414   .     A
C598   H608    1.077   .     S
C598   C599    1.388   .     A
C599   H601    1.084   .     S
F600   C703    1.362   1_455 S
H602   C641    1.086   .     S
H603   C958    1.088   1_545 S
H604   C770    1.086   .     S
N610   C715    1.158   1_455 S
O614   Zn628   1.947   .     S
O614   Zn629   1.930   .     S
O614   Zn630   1.933   .     S
O614   Zn627   1.964   .     S
O615   Zn628   1.935   .     S
O616   Zn630   1.948   .     S
O617   Zn629   1.943   .     S
O618   Zn627   1.932   .     S
O619   Zn627   1.927   .     S
O620   Zn630   1.928   .     S
O621   Zn628   1.925   .     S
O622   Zn629   1.938   .     S
O623   Zn630   1.932   .     S
O624   Zn627   1.920   .     S
O625   Zn628   1.935   .     S
O626   Zn629   1.930   .     S
C631   O684    1.272   .     A
C631   C641    1.438   .     S
C631   O686    1.271   .     A
C632   C633    1.389   .     A
C632   C659    1.405   .     A
C632   H672    1.081   .     S
C633   C655    1.446   .     S
C633   C68     1.416   1_556 S
C634   O687    1.279   .     A
C634   O685    1.282   .     A
C634   C640    1.456   .     S
C635   C636    1.430   .     A
C635   C637    1.423   .     A
C636   C660    1.431   .     A
C636   C639    1.421   .     A
C637   C652    1.446   .     S
C637   C638    1.391   .     A
C638   C650    1.393   .     A
C638   H668    1.086   .     S
C639   C654    1.451   .     S
C639   C650    1.401   .     A
C640   C704    1.337   .     S
C640   F726    1.362   .     S
C642   H670    1.083   .     S
C642   C649    1.401   .     A
C642   C651    1.391   .     A
C643   C646    1.451   .     S
C643   C833    1.332   .     S
C643   H855    1.088   .     S
C644   C645    1.436   .     S
C644   C1021   1.332   1_545 S
C644   H1045   1.086   1_545 S
C645   O682    1.280   .     A
C645   O688    1.280   .     A
C646   O683    1.270   .     A
C646   O689    1.270   .     A
C647   O680    1.271   .     A
C647   O678    1.276   .     A
C647   C650    1.462   .     S
C648   O681    1.283   .     A
C648   C649    1.472   .     S
C648   O679    1.282   .     A
C649   C653    1.408   .     A
C651   H669    1.084   .     S
C651   C658    1.401   .     A
C652   N736    1.158   .     S
C653   C657    1.419   .     A
C653   C656    1.453   .     S
C654   N674    1.158   .     T
C655   N675    1.158   .     T
C656   N676    1.158   .     T
C657   C659    1.427   .     A
C657   C658    1.417   .     A
C658   C95     1.392   1_556 S
C659   C93     1.419   1_556 S
C660   C661    1.414   .     A
C661   H671    1.077   .     S
C661   C662    1.388   .     A
C662   H664    1.084   .     S
H665   C704    1.086   .     S
H666   C1021   1.088   1_545 S
H667   C833    1.086   .     S
O677   Zn691   1.947   .     S
O677   Zn692   1.930   .     S
O677   Zn693   1.933   .     S
O677   Zn690   1.964   .     S
O678   Zn691   1.935   .     S
O679   Zn693   1.948   .     S
O680   Zn692   1.943   .     S
O681   Zn690   1.932   .     S
O682   Zn690   1.927   .     S
O683   Zn693   1.928   .     S
O684   Zn691   1.925   .     S
O685   Zn692   1.938   .     S
O686   Zn693   1.932   .     S
O687   Zn690   1.920   .     S
O688   Zn691   1.935   .     S
O689   Zn692   1.930   .     S
C694   O747    1.272   .     A
C694   C704    1.438   .     S
C694   O749    1.271   .     A
C695   C696    1.389   .     A
C695   C722    1.405   .     A
C695   H735    1.081   .     S
C696   C718    1.446   .     S
C696   C131    1.416   1_556 S
C697   O750    1.279   .     A
C697   O748    1.282   .     A
C697   C703    1.456   .     S
C698   C699    1.430   .     A
C698   C700    1.423   .     A
C699   C723    1.431   .     A
C699   C702    1.421   .     A
C700   C715    1.446   .     S
C700   C701    1.391   .     A
C701   C713    1.393   .     A
C701   H731    1.086   .     S
C702   C717    1.451   .     S
C702   C713    1.401   .     A
C703   C578    1.337   1_655 S
C703   F600    1.362   1_655 S
C705   H733    1.083   .     S
C705   C712    1.401   .     A
C705   C714    1.391   .     A
C706   C709    1.451   .     S
C706   C896    1.332   .     S
C706   H918    1.088   .     S
C707   C708    1.436   .     S
C707   C1084   1.332   1_545 S
C707   H1108   1.086   1_545 S
C708   O745    1.280   .     A
C708   O751    1.280   .     A
C709   O746    1.270   .     A
C709   O752    1.270   .     A
C710   O743    1.271   .     A
C710   O741    1.276   .     A
C710   C713    1.462   .     S
C711   O744    1.283   .     A
C711   C712    1.472   .     S
C711   O742    1.282   .     A
C712   C716    1.408   .     A
C714   H732    1.084   .     S
C714   C721    1.401   .     A
C715   N610    1.158   1_655 S
C716   C720    1.419   .     A
C716   C719    1.453   .     S
C717   N737    1.158   .     T
C718   N738    1.158   .     T
C719   N739    1.158   .     T
C720   C722    1.427   .     A
C720   C721    1.417   .     A
C721   C158    1.392   1_556 S
C722   C156    1.419   1_556 S
C723   C724    1.414   .     A
C724   H734    1.077   .     S
C724   C725    1.388   .     A
C725   H727    1.084   .     S
H728   C578    1.086   1_655 S
H729   C1084   1.088   1_545 S
H730   C896    1.086   .     S
O740   Zn754   1.947   .     S
O740   Zn755   1.930   .     S
O740   Zn756   1.933   .     S
O740   Zn753   1.964   .     S
O741   Zn754   1.935   .     S
O742   Zn756   1.948   .     S
O743   Zn755   1.943   .     S
O744   Zn753   1.932   .     S
O745   Zn753   1.927   .     S
O746   Zn756   1.928   .     S
O747   Zn754   1.925   .     S
O748   Zn755   1.938   .     S
O749   Zn756   1.932   .     S
O750   Zn753   1.920   .     S
O751   Zn754   1.935   .     S
O752   Zn755   1.930   .     S
C757   O810    1.272   .     A
C757   C767    1.438   .     S
C757   O812    1.271   .     A
C758   C759    1.389   .     A
C758   C785    1.405   .     A
C758   H798    1.081   .     S
C759   C781    1.446   .     S
C759   C194    1.416   1_556 S
C760   O813    1.279   .     A
C760   O811    1.282   .     A
C760   C766    1.456   .     S
C761   C762    1.430   .     A
C761   C763    1.423   .     A
C762   C786    1.431   .     A
C762   C765    1.421   .     A
C763   C778    1.446   .     S
C763   C764    1.391   .     A
C764   C776    1.393   .     A
C764   H794    1.086   .     S
C765   C780    1.451   .     S
C765   C776    1.401   .     A
C766   C830    1.337   .     S
C766   F852    1.362   .     S
C767   C892    1.337   1_455 S
C767   H917    1.086   1_455 S
C768   H796    1.083   .     S
C768   C775    1.401   .     A
C768   C777    1.391   .     A
C769   C772    1.451   .     S
C769   C959    1.332   .     S
C769   H981    1.088   .     S
C770   C771    1.436   .     S
C771   O808    1.280   .     A
C771   O814    1.280   .     A
C772   O809    1.270   .     A
C772   O815    1.270   .     A
C773   O806    1.271   .     A
C773   O804    1.276   .     A
C773   C776    1.462   .     S
C774   O807    1.283   .     A
C774   C775    1.472   .     S
C774   O805    1.282   .     A
C775   C779    1.408   .     A
C777   H795    1.084   .     S
C777   C784    1.401   .     A
C778   N862    1.158   .     S
C779   C783    1.419   .     A
C779   C782    1.453   .     S
C780   N800    1.158   .     T
C781   N801    1.158   .     T
C782   N802    1.158   .     T
C783   C785    1.427   .     A
C783   C784    1.417   .     A
C784   C221    1.392   1_556 S
C785   C219    1.419   1_556 S
C786   C787    1.414   .     A
C787   H797    1.077   .     S
C787   C788    1.388   .     A
C788   H790    1.084   .     S
F789   C892    1.362   1_455 S
H791   C830    1.086   .     S
H793   C959    1.086   .     S
N799   C904    1.158   1_455 S
O803   Zn817   1.947   .     S
O803   Zn818   1.930   .     S
O803   Zn819   1.933   .     S
O803   Zn816   1.964   .     S
O804   Zn817   1.935   .     S
O805   Zn819   1.948   .     S
O806   Zn818   1.943   .     S
O807   Zn816   1.932   .     S
O808   Zn816   1.927   .     S
O809   Zn819   1.928   .     S
O810   Zn817   1.925   .     S
O811   Zn818   1.938   .     S
O812   Zn819   1.932   .     S
O813   Zn816   1.920   .     S
O814   Zn817   1.935   .     S
O815   Zn818   1.930   .     S
C820   O873    1.272   .     A
C820   C830    1.438   .     S
C820   O875    1.271   .     A
C821   C822    1.389   .     A
C821   C848    1.405   .     A
C821   H861    1.081   .     S
C822   C844    1.446   .     S
C822   C257    1.416   1_556 S
C823   O876    1.279   .     A
C823   O874    1.282   .     A
C823   C829    1.456   .     S
C824   C825    1.430   .     A
C824   C826    1.423   .     A
C825   C849    1.431   .     A
C825   C828    1.421   .     A
C826   C841    1.446   .     S
C826   C827    1.391   .     A
C827   C839    1.393   .     A
C827   H857    1.086   .     S
C828   C843    1.451   .     S
C828   C839    1.401   .     A
C829   C893    1.337   .     S
C829   F915    1.362   .     S
C831   H859    1.083   .     S
C831   C838    1.401   .     A
C831   C840    1.391   .     A
C832   C835    1.451   .     S
C832   C1022   1.332   .     S
C832   H1044   1.088   .     S
C833   C834    1.436   .     S
C834   O871    1.280   .     A
C834   O877    1.280   .     A
C835   O872    1.270   .     A
C835   O878    1.270   .     A
C836   O869    1.271   .     A
C836   O867    1.276   .     A
C836   C839    1.462   .     S
C837   O870    1.283   .     A
C837   C838    1.472   .     S
C837   O868    1.282   .     A
C838   C842    1.408   .     A
C840   H858    1.084   .     S
C840   C847    1.401   .     A
C841   N925    1.158   .     S
C842   C846    1.419   .     A
C842   C845    1.453   .     S
C843   N863    1.158   .     T
C844   N864    1.158   .     T
C845   N865    1.158   .     T
C846   C848    1.427   .     A
C846   C847    1.417   .     A
C847   C284    1.392   1_556 S
C848   C282    1.419   1_556 S
C849   C850    1.414   .     A
C850   H860    1.077   .     S
C850   C851    1.388   .     A
C851   H853    1.084   .     S
H854   C893    1.086   .     S
H856   C1022   1.086   .     S
O866   Zn880   1.947   .     S
O866   Zn881   1.930   .     S
O866   Zn882   1.933   .     S
O866   Zn879   1.964   .     S
O867   Zn880   1.935   .     S
O868   Zn882   1.948   .     S
O869   Zn881   1.943   .     S
O870   Zn879   1.932   .     S
O871   Zn879   1.927   .     S
O872   Zn882   1.928   .     S
O873   Zn880   1.925   .     S
O874   Zn881   1.938   .     S
O875   Zn882   1.932   .     S
O876   Zn879   1.920   .     S
O877   Zn880   1.935   .     S
O878   Zn881   1.930   .     S
C883   O936    1.272   .     A
C883   C893    1.438   .     S
C883   O938    1.271   .     A
C884   C885    1.389   .     A
C884   C911    1.405   .     A
C884   H924    1.081   .     S
C885   C907    1.446   .     S
C885   C320    1.416   1_556 S
C886   O939    1.279   .     A
C886   O937    1.282   .     A
C886   C892    1.456   .     S
C887   C888    1.430   .     A
C887   C889    1.423   .     A
C888   C912    1.431   .     A
C888   C891    1.421   .     A
C889   C904    1.446   .     S
C889   C890    1.391   .     A
C890   C902    1.393   .     A
C890   H920    1.086   .     S
C891   C906    1.451   .     S
C891   C902    1.401   .     A
C892   C767    1.337   1_655 S
C892   F789    1.362   1_655 S
C894   H922    1.083   .     S
C894   C901    1.401   .     A
C894   C903    1.391   .     A
C895   C898    1.451   .     S
C895   C1085   1.332   .     S
C895   H1107   1.088   .     S
C896   C897    1.436   .     S
C897   O934    1.280   .     A
C897   O940    1.280   .     A
C898   O935    1.270   .     A
C898   O941    1.270   .     A
C899   O932    1.271   .     A
C899   O930    1.276   .     A
C899   C902    1.462   .     S
C900   O933    1.283   .     A
C900   C901    1.472   .     S
C900   O931    1.282   .     A
C901   C905    1.408   .     A
C903   H921    1.084   .     S
C903   C910    1.401   .     A
C904   N799    1.158   1_655 S
C905   C909    1.419   .     A
C905   C908    1.453   .     S
C906   N926    1.158   .     T
C907   N927    1.158   .     T
C908   N928    1.158   .     T
C909   C911    1.427   .     A
C909   C910    1.417   .     A
C910   C347    1.392   1_556 S
C911   C345    1.419   1_556 S
C912   C913    1.414   .     A
C913   H923    1.077   .     S
C913   C914    1.388   .     A
C914   H916    1.084   .     S
H917   C767    1.086   1_655 S
H919   C1085   1.086   .     S
O929   Zn943   1.947   .     S
O929   Zn944   1.930   .     S
O929   Zn945   1.933   .     S
O929   Zn942   1.964   .     S
O930   Zn943   1.935   .     S
O931   Zn945   1.948   .     S
O932   Zn944   1.943   .     S
O933   Zn942   1.932   .     S
O934   Zn942   1.927   .     S
O935   Zn945   1.928   .     S
O936   Zn943   1.925   .     S
O937   Zn944   1.938   .     S
O938   Zn945   1.932   .     S
O939   Zn942   1.920   .     S
O940   Zn943   1.935   .     S
O941   Zn944   1.930   .     S
C946   O999    1.272   .     A
C946   C956    1.438   .     S
C946   O1001   1.271   .     A
C947   C948    1.389   .     A
C947   C974    1.405   .     A
C947   H987    1.081   .     S
C948   C970    1.446   .     S
C948   C383    1.416   1_556 S
C949   O1002   1.279   .     A
C949   O1000   1.282   .     A
C949   C955    1.456   .     S
C950   C951    1.430   .     A
C950   C952    1.423   .     A
C951   C975    1.431   .     A
C951   C954    1.421   .     A
C952   C967    1.446   .     S
C952   C953    1.391   .     A
C953   C965    1.393   .     A
C953   H983    1.086   .     S
C954   C969    1.451   .     S
C954   C965    1.401   .     A
C955   C1019   1.337   .     S
C955   F1041   1.362   .     S
C956   C1081   1.337   1_455 S
C956   H1106   1.086   1_455 S
C957   H985    1.083   .     S
C957   C964    1.401   .     A
C957   C966    1.391   .     A
C958   C961    1.451   .     S
C958   C581    1.332   1_565 S
C958   H603    1.088   1_565 S
C959   C960    1.436   .     S
C960   O997    1.280   .     A
C960   O1003   1.280   .     A
C961   O998    1.270   .     A
C961   O1004   1.270   .     A
C962   O995    1.271   .     A
C962   O993    1.276   .     A
C962   C965    1.462   .     S
C963   O996    1.283   .     A
C963   C964    1.472   .     S
C963   O994    1.282   .     A
C964   C968    1.408   .     A
C966   H984    1.084   .     S
C966   C973    1.401   .     A
C967   N1051   1.158   .     S
C968   C972    1.419   .     A
C968   C971    1.453   .     S
C969   N989    1.158   .     T
C970   N990    1.158   .     T
C971   N991    1.158   .     T
C972   C974    1.427   .     A
C972   C973    1.417   .     A
C973   C410    1.392   1_556 S
C974   C408    1.419   1_556 S
C975   C976    1.414   .     A
C976   H986    1.077   .     S
C976   C977    1.388   .     A
C977   H979    1.084   .     S
F978   C1081   1.362   1_455 S
H980   C1019   1.086   .     S
H982   C581    1.086   1_565 S
N988   C1093   1.158   1_455 S
O992   Zn1006  1.947   .     S
O992   Zn1007  1.930   .     S
O992   Zn1008  1.933   .     S
O992   Zn1005  1.964   .     S
O993   Zn1006  1.935   .     S
O994   Zn1008  1.948   .     S
O995   Zn1007  1.943   .     S
O996   Zn1005  1.932   .     S
O997   Zn1005  1.927   .     S
O998   Zn1008  1.928   .     S
O999   Zn1006  1.925   .     S
O1000  Zn1007  1.938   .     S
O1001  Zn1008  1.932   .     S
O1002  Zn1005  1.920   .     S
O1003  Zn1006  1.935   .     S
O1004  Zn1007  1.930   .     S
C1009  O1062   1.272   .     A
C1009  C1019   1.438   .     S
C1009  O1064   1.271   .     A
C1010  C1011   1.389   .     A
C1010  C1037   1.405   .     A
C1010  H1050   1.081   .     S
C1011  C1033   1.446   .     S
C1011  C446    1.416   1_556 S
C1012  O1065   1.279   .     A
C1012  O1063   1.282   .     A
C1012  C1018   1.456   .     S
C1013  C1014   1.430   .     A
C1013  C1015   1.423   .     A
C1014  C1038   1.431   .     A
C1014  C1017   1.421   .     A
C1015  C1030   1.446   .     S
C1015  C1016   1.391   .     A
C1016  C1028   1.393   .     A
C1016  H1046   1.086   .     S
C1017  C1032   1.451   .     S
C1017  C1028   1.401   .     A
C1018  C1082   1.337   .     S
C1018  F1104   1.362   .     S
C1020  H1048   1.083   .     S
C1020  C1027   1.401   .     A
C1020  C1029   1.391   .     A
C1021  C1024   1.451   .     S
C1021  C644    1.332   1_565 S
C1021  H666    1.088   1_565 S
C1022  C1023   1.436   .     S
C1023  O1060   1.280   .     A
C1023  O1066   1.280   .     A
C1024  O1061   1.270   .     A
C1024  O1067   1.270   .     A
C1025  O1058   1.271   .     A
C1025  O1056   1.276   .     A
C1025  C1028   1.462   .     S
C1026  O1059   1.283   .     A
C1026  C1027   1.472   .     S
C1026  O1057   1.282   .     A
C1027  C1031   1.408   .     A
C1029  H1047   1.084   .     S
C1029  C1036   1.401   .     A
C1030  N1114   1.158   .     S
C1031  C1035   1.419   .     A
C1031  C1034   1.453   .     S
C1032  N1052   1.158   .     T
C1033  N1053   1.158   .     T
C1034  N1054   1.158   .     T
C1035  C1037   1.427   .     A
C1035  C1036   1.417   .     A
C1036  C473    1.392   1_556 S
C1037  C471    1.419   1_556 S
C1038  C1039   1.414   .     A
C1039  H1049   1.077   .     S
C1039  C1040   1.388   .     A
C1040  H1042   1.084   .     S
H1043  C1082   1.086   .     S
H1045  C644    1.086   1_565 S
O1055  Zn1069  1.947   .     S
O1055  Zn1070  1.930   .     S
O1055  Zn1071  1.933   .     S
O1055  Zn1068  1.964   .     S
O1056  Zn1069  1.935   .     S
O1057  Zn1071  1.948   .     S
O1058  Zn1070  1.943   .     S
O1059  Zn1068  1.932   .     S
O1060  Zn1068  1.927   .     S
O1061  Zn1071  1.928   .     S
O1062  Zn1069  1.925   .     S
O1063  Zn1070  1.938   .     S
O1064  Zn1071  1.932   .     S
O1065  Zn1068  1.920   .     S
O1066  Zn1069  1.935   .     S
O1067  Zn1070  1.930   .     S
C1072  O1125   1.272   .     A
C1072  C1082   1.438   .     S
C1072  O1127   1.271   .     A
C1073  C1074   1.389   .     A
C1073  C1100   1.405   .     A
C1073  H1113   1.081   .     S
C1074  C1096   1.446   .     S
C1074  C509    1.416   1_556 S
C1075  O1128   1.279   .     A
C1075  O1126   1.282   .     A
C1075  C1081   1.456   .     S
C1076  C1077   1.430   .     A
C1076  C1078   1.423   .     A
C1077  C1101   1.431   .     A
C1077  C1080   1.421   .     A
C1078  C1093   1.446   .     S
C1078  C1079   1.391   .     A
C1079  C1091   1.393   .     A
C1079  H1109   1.086   .     S
C1080  C1095   1.451   .     S
C1080  C1091   1.401   .     A
C1081  C956    1.337   1_655 S
C1081  F978    1.362   1_655 S
C1083  H1111   1.083   .     S
C1083  C1090   1.401   .     A
C1083  C1092   1.391   .     A
C1084  C1087   1.451   .     S
C1084  C707    1.332   1_565 S
C1084  H729    1.088   1_565 S
C1085  C1086   1.436   .     S
C1086  O1123   1.280   .     A
C1086  O1129   1.280   .     A
C1087  O1124   1.270   .     A
C1087  O1130   1.270   .     A
C1088  O1121   1.271   .     A
C1088  O1119   1.276   .     A
C1088  C1091   1.462   .     S
C1089  O1122   1.283   .     A
C1089  C1090   1.472   .     S
C1089  O1120   1.282   .     A
C1090  C1094   1.408   .     A
C1092  H1110   1.084   .     S
C1092  C1099   1.401   .     A
C1093  N988    1.158   1_655 S
C1094  C1098   1.419   .     A
C1094  C1097   1.453   .     S
C1095  N1115   1.158   .     T
C1096  N1116   1.158   .     T
C1097  N1117   1.158   .     T
C1098  C1100   1.427   .     A
C1098  C1099   1.417   .     A
C1099  C536    1.392   1_556 S
C1100  C534    1.419   1_556 S
C1101  C1102   1.414   .     A
C1102  H1112   1.077   .     S
C1102  C1103   1.388   .     A
C1103  H1105   1.084   .     S
H1106  C956    1.086   1_655 S
H1108  C707    1.086   1_565 S
O1118  Zn1132  1.947   .     S
O1118  Zn1133  1.930   .     S
O1118  Zn1134  1.933   .     S
O1118  Zn1131  1.964   .     S
O1119  Zn1132  1.935   .     S
O1120  Zn1134  1.948   .     S
O1121  Zn1133  1.943   .     S
O1122  Zn1131  1.932   .     S
O1123  Zn1131  1.927   .     S
O1124  Zn1134  1.928   .     S
O1125  Zn1132  1.925   .     S
O1126  Zn1133  1.938   .     S
O1127  Zn1134  1.932   .     S
O1128  Zn1131  1.920   .     S
O1129  Zn1132  1.935   .     S
O1130  Zn1133  1.930   .     S
