data_str_m1_o10_o18_pcu_sym.172
_audit_creation_date              2020-01-03
_audit_creation_method            'Materials Studio'
_symmetry_space_group_name_H-M    'P1'
_symmetry_Int_Tables_number       1
_symmetry_cell_setting            triclinic
loop_
_symmetry_equiv_pos_as_xyz
  x,y,z
_cell_length_a                    32.5723
_cell_length_b                    32.5034
_cell_length_c                    35.7254
_cell_angle_alpha                 98.2223
_cell_angle_beta                  73.1326
_cell_angle_gamma                 98.5896
loop_
_atom_site_label
_atom_site_type_symbol
_atom_site_fract_x
_atom_site_fract_y
_atom_site_fract_z
_atom_site_U_iso_or_equiv
_atom_site_adp_type
_atom_site_occupancy
C1     C     0.05248   0.15991   0.25872   0.00000  Uiso   1.00
C2     C     0.18967   0.11977   0.46077   0.00000  Uiso   1.00
C3     C     0.21466   0.10555   0.48079   0.00000  Uiso   1.00
C4     C     0.28104   0.17356   0.24122   0.00000  Uiso   1.00
C5     C     0.20876   0.11686   0.02086   0.00000  Uiso   1.00
C6     C     0.17555   0.14171   0.04238   0.00000  Uiso   1.00
C7     C     0.23524   0.10254   0.03983   0.00000  Uiso   1.00
C8     C     0.22918   0.11251   0.08010   0.00000  Uiso   1.00
C9     C     0.17002   0.15119   0.08321   0.00000  Uiso   1.00
C10    C     0.32700   0.17619   0.23764   0.00000  Uiso   1.00
C11    C     0.00711   0.15749   0.26214   0.00000  Uiso   1.00
C12    C     0.09626   0.21217   0.42090   0.00000  Uiso   1.00
C13    C     0.18085   0.32216   0.23816   0.00000  Uiso   1.00
C14    C     0.15151   0.01207   0.26212   0.00000  Uiso   1.00
C15    C     0.15588   0.05611   0.25893   0.00000  Uiso   1.00
C16    C     0.17685   0.27766   0.24137   0.00000  Uiso   1.00
C17    C     0.18815   0.14523   0.14407   0.00000  Uiso   1.00
C18    C     0.14533   0.18761   0.35618   0.00000  Uiso   1.00
C19    C     0.13259   0.19240   0.39941   0.00000  Uiso   1.00
C20    C     0.19642   0.13656   0.10168   0.00000  Uiso   1.00
C21    C     0.08285   0.21344   0.46172   0.00000  Uiso   1.00
C22    C     0.15903   0.07176   0.42012   0.00000  Uiso   1.00
C23    C     0.15522   0.17406   0.41922   0.00000  Uiso   1.00
C24    C     0.17113   0.02845   0.42191   0.00000  Uiso   1.00
C25    C     0.13613   0.32714   0.41501   0.00000  Uiso   1.00
C26    C     0.14003   0.17153   0.46001   0.00000  Uiso   1.00
C27    C     0.10456   0.19356   0.48141   0.00000  Uiso   1.00
C28    C     0.16034   0.14963   0.48034   0.00000  Uiso   1.00
C29    C     0.15004   0.15702   0.02219   0.00000  Uiso   1.00
C30    C     0.11440   0.17918   0.04241   0.00000  Uiso   1.00
C31    C     0.09151   0.19613   0.02227   0.00000  Uiso   1.00
H32    H     0.06421   0.21261   0.03892   0.00000  Uiso   1.00
H33    H     0.05529   0.22976   0.47791   0.00000  Uiso   1.00
H34    H     0.07826   0.22664   0.40620   0.00000  Uiso   1.00
H35    H     0.18545   0.16315   0.40227   0.00000  Uiso   1.00
H36    H     0.10257   0.18324   0.07398   0.00000  Uiso   1.00
H37    H     0.15251   0.07219   0.39133   0.00000  Uiso   1.00
H38    H     0.12833   0.07765   0.44313   0.00000  Uiso   1.00
H39    H     0.20195   0.02323   0.39913   0.00000  Uiso   1.00
H40    H     0.17581   0.02681   0.45123   0.00000  Uiso   1.00
H41    H     0.10516   0.33125   0.43788   0.00000  Uiso   1.00
H42    H     0.14602   0.29633   0.41655   0.00000  Uiso   1.00
H43    H     0.26054   0.08344   0.02351   0.00000  Uiso   1.00
H44    H     0.13140   0.32744   0.38548   0.00000  Uiso   1.00
H45    H     0.01667   0.19340   0.21496   0.00000  Uiso   1.00
H46    H     0.31810   0.14026   0.28511   0.00000  Uiso   1.00
H47    H     0.20792   0.00281   0.21612   0.00000  Uiso   1.00
H48    H     0.12407   0.33221   0.28426   0.00000  Uiso   1.00
H49    H     0.14613   0.17047   0.10157   0.00000  Uiso   1.00
H50    H     0.24954   0.10098   0.09452   0.00000  Uiso   1.00
H51    H     0.23831   0.08453   0.46480   0.00000  Uiso   1.00
O52    O     0.16667   0.16667   0.25000   0.00000  Uiso   1.00
O53    O     0.15693   0.12393   0.16625   0.00000  Uiso   1.00
O54    O     0.12687   0.20646   0.33749   0.00000  Uiso   1.00
O55    O     0.21088   0.17493   0.15877   0.00000  Uiso   1.00
O56    O     0.17198   0.16135   0.33749   0.00000  Uiso   1.00
O57    O     0.19401   0.10282   0.42221   0.00000  Uiso   1.00
O58    O     0.17849   0.08101   0.27821   0.00000  Uiso   1.00
O59    O     0.14581   0.26136   0.26767   0.00000  Uiso   1.00
O60    O     0.07452   0.13251   0.23607   0.00000  Uiso   1.00
O61    O     0.26785   0.19179   0.21806   0.00000  Uiso   1.00
O62    O     0.06990   0.18960   0.27820   0.00000  Uiso   1.00
O63    O     0.25440   0.15277   0.26768   0.00000  Uiso   1.00
O64    O     0.13800   0.06903   0.23607   0.00000  Uiso   1.00
O65    O     0.20437   0.25527   0.21806   0.00000  Uiso   1.00
Zn66   Zn    0.19244   0.14090   0.28278   0.00000  Uiso   1.00
Zn67   Zn    0.13459   0.12378   0.22258   0.00000  Uiso   1.00
Zn68   Zn    0.21166   0.19664   0.21188   0.00000  Uiso   1.00
Zn69   Zn    0.12798   0.20535   0.28277   0.00000  Uiso   1.00
C70    C     0.38582   0.15991   0.25872   0.00000  Uiso   1.00
C71    C     0.52300   0.11977   0.46077   0.00000  Uiso   1.00
C72    C     0.54800   0.10555   0.48079   0.00000  Uiso   1.00
C73    C     0.61437   0.17356   0.24122   0.00000  Uiso   1.00
C74    C     0.54209   0.11686   0.02086   0.00000  Uiso   1.00
C75    C     0.50888   0.14171   0.04238   0.00000  Uiso   1.00
C76    C     0.56858   0.10254   0.03983   0.00000  Uiso   1.00
C77    C     0.56251   0.11251   0.08010   0.00000  Uiso   1.00
C78    C     0.50336   0.15119   0.08321   0.00000  Uiso   1.00
C79    C     0.66033   0.17619   0.23764   0.00000  Uiso   1.00
C80    C     0.34045   0.15749   0.26214   0.00000  Uiso   1.00
C81    C     0.42960   0.21217   0.42090   0.00000  Uiso   1.00
C82    C     0.51418   0.32216   0.23816   0.00000  Uiso   1.00
C83    C     0.48484   0.01207   0.26212   0.00000  Uiso   1.00
C84    C     0.48921   0.05611   0.25893   0.00000  Uiso   1.00
C85    C     0.51018   0.27766   0.24137   0.00000  Uiso   1.00
C86    C     0.52148   0.14523   0.14407   0.00000  Uiso   1.00
C87    C     0.47866   0.18761   0.35618   0.00000  Uiso   1.00
C88    C     0.46592   0.19240   0.39941   0.00000  Uiso   1.00
C89    C     0.52975   0.13656   0.10168   0.00000  Uiso   1.00
C90    C     0.41618   0.21344   0.46172   0.00000  Uiso   1.00
C91    C     0.49236   0.07176   0.42012   0.00000  Uiso   1.00
C92    C     0.48855   0.17406   0.41922   0.00000  Uiso   1.00
C93    C     0.50447   0.02845   0.42191   0.00000  Uiso   1.00
C94    C     0.46946   0.32714   0.41501   0.00000  Uiso   1.00
C95    C     0.47336   0.17153   0.46001   0.00000  Uiso   1.00
C96    C     0.43790   0.19356   0.48141   0.00000  Uiso   1.00
C97    C     0.49367   0.14963   0.48034   0.00000  Uiso   1.00
C98    C     0.48337   0.15702   0.02219   0.00000  Uiso   1.00
C99    C     0.44773   0.17918   0.04241   0.00000  Uiso   1.00
C100   C     0.42484   0.19613   0.02227   0.00000  Uiso   1.00
H101   H     0.39754   0.21261   0.03892   0.00000  Uiso   1.00
H102   H     0.38862   0.22976   0.47791   0.00000  Uiso   1.00
H103   H     0.41159   0.22664   0.40620   0.00000  Uiso   1.00
H104   H     0.51878   0.16315   0.40227   0.00000  Uiso   1.00
H105   H     0.43590   0.18324   0.07398   0.00000  Uiso   1.00
H106   H     0.48584   0.07219   0.39133   0.00000  Uiso   1.00
H107   H     0.46166   0.07765   0.44313   0.00000  Uiso   1.00
H108   H     0.53528   0.02323   0.39913   0.00000  Uiso   1.00
H109   H     0.50915   0.02681   0.45123   0.00000  Uiso   1.00
H110   H     0.43849   0.33125   0.43788   0.00000  Uiso   1.00
H111   H     0.47935   0.29633   0.41655   0.00000  Uiso   1.00
H112   H     0.59388   0.08344   0.02351   0.00000  Uiso   1.00
H113   H     0.46473   0.32744   0.38548   0.00000  Uiso   1.00
H114   H     0.35000   0.19340   0.21496   0.00000  Uiso   1.00
H115   H     0.65143   0.14026   0.28511   0.00000  Uiso   1.00
H116   H     0.54125   0.00281   0.21612   0.00000  Uiso   1.00
H117   H     0.45740   0.33221   0.28426   0.00000  Uiso   1.00
H118   H     0.47946   0.17047   0.10157   0.00000  Uiso   1.00
H119   H     0.58288   0.10098   0.09452   0.00000  Uiso   1.00
H120   H     0.57164   0.08453   0.46480   0.00000  Uiso   1.00
O121   O     0.50000   0.16667   0.25000   0.00000  Uiso   1.00
O122   O     0.49027   0.12393   0.16625   0.00000  Uiso   1.00
O123   O     0.46020   0.20646   0.33749   0.00000  Uiso   1.00
O124   O     0.54421   0.17493   0.15877   0.00000  Uiso   1.00
O125   O     0.50532   0.16135   0.33749   0.00000  Uiso   1.00
O126   O     0.52734   0.10282   0.42221   0.00000  Uiso   1.00
O127   O     0.51182   0.08101   0.27821   0.00000  Uiso   1.00
O128   O     0.47914   0.26136   0.26767   0.00000  Uiso   1.00
O129   O     0.40785   0.13251   0.23607   0.00000  Uiso   1.00
O130   O     0.60119   0.19179   0.21806   0.00000  Uiso   1.00
O131   O     0.40323   0.18960   0.27820   0.00000  Uiso   1.00
O132   O     0.58773   0.15277   0.26768   0.00000  Uiso   1.00
O133   O     0.47133   0.06903   0.23607   0.00000  Uiso   1.00
O134   O     0.53771   0.25527   0.21806   0.00000  Uiso   1.00
Zn135  Zn    0.52577   0.14090   0.28278   0.00000  Uiso   1.00
Zn136  Zn    0.46792   0.12378   0.22258   0.00000  Uiso   1.00
Zn137  Zn    0.54500   0.19664   0.21188   0.00000  Uiso   1.00
Zn138  Zn    0.46131   0.20535   0.28277   0.00000  Uiso   1.00
C139   C     0.71915   0.15991   0.25872   0.00000  Uiso   1.00
C140   C     0.85634   0.11977   0.46077   0.00000  Uiso   1.00
C141   C     0.88133   0.10555   0.48079   0.00000  Uiso   1.00
C142   C     0.94771   0.17356   0.24122   0.00000  Uiso   1.00
C143   C     0.87542   0.11686   0.02086   0.00000  Uiso   1.00
C144   C     0.84221   0.14171   0.04238   0.00000  Uiso   1.00
C145   C     0.90191   0.10254   0.03983   0.00000  Uiso   1.00
C146   C     0.89584   0.11251   0.08010   0.00000  Uiso   1.00
C147   C     0.83669   0.15119   0.08321   0.00000  Uiso   1.00
C148   C     0.99366   0.17619   0.23764   0.00000  Uiso   1.00
C149   C     0.67378   0.15749   0.26214   0.00000  Uiso   1.00
C150   C     0.76293   0.21217   0.42090   0.00000  Uiso   1.00
C151   C     0.84752   0.32216   0.23816   0.00000  Uiso   1.00
C152   C     0.81818   0.01207   0.26212   0.00000  Uiso   1.00
C153   C     0.82254   0.05611   0.25893   0.00000  Uiso   1.00
C154   C     0.84352   0.27766   0.24137   0.00000  Uiso   1.00
C155   C     0.85481   0.14523   0.14407   0.00000  Uiso   1.00
C156   C     0.81200   0.18761   0.35618   0.00000  Uiso   1.00
C157   C     0.79925   0.19240   0.39941   0.00000  Uiso   1.00
C158   C     0.86308   0.13656   0.10168   0.00000  Uiso   1.00
C159   C     0.74951   0.21344   0.46172   0.00000  Uiso   1.00
C160   C     0.82569   0.07176   0.42012   0.00000  Uiso   1.00
C161   C     0.82189   0.17406   0.41922   0.00000  Uiso   1.00
C162   C     0.83780   0.02845   0.42191   0.00000  Uiso   1.00
C163   C     0.80280   0.32714   0.41501   0.00000  Uiso   1.00
C164   C     0.80670   0.17153   0.46001   0.00000  Uiso   1.00
C165   C     0.77123   0.19356   0.48141   0.00000  Uiso   1.00
C166   C     0.82700   0.14963   0.48034   0.00000  Uiso   1.00
C167   C     0.81671   0.15702   0.02219   0.00000  Uiso   1.00
C168   C     0.78107   0.17918   0.04241   0.00000  Uiso   1.00
C169   C     0.75818   0.19613   0.02227   0.00000  Uiso   1.00
H170   H     0.73087   0.21261   0.03892   0.00000  Uiso   1.00
H171   H     0.72196   0.22976   0.47791   0.00000  Uiso   1.00
H172   H     0.74492   0.22664   0.40620   0.00000  Uiso   1.00
H173   H     0.85212   0.16315   0.40227   0.00000  Uiso   1.00
H174   H     0.76924   0.18324   0.07398   0.00000  Uiso   1.00
H175   H     0.81917   0.07219   0.39133   0.00000  Uiso   1.00
H176   H     0.79500   0.07765   0.44313   0.00000  Uiso   1.00
H177   H     0.86861   0.02323   0.39913   0.00000  Uiso   1.00
H178   H     0.84248   0.02681   0.45123   0.00000  Uiso   1.00
H179   H     0.77182   0.33125   0.43788   0.00000  Uiso   1.00
H180   H     0.81269   0.29633   0.41655   0.00000  Uiso   1.00
H181   H     0.92721   0.08344   0.02351   0.00000  Uiso   1.00
H182   H     0.79806   0.32744   0.38548   0.00000  Uiso   1.00
H183   H     0.68333   0.19340   0.21496   0.00000  Uiso   1.00
H184   H     0.98477   0.14026   0.28511   0.00000  Uiso   1.00
H185   H     0.87459   0.00281   0.21612   0.00000  Uiso   1.00
H186   H     0.79074   0.33221   0.28426   0.00000  Uiso   1.00
H187   H     0.81279   0.17047   0.10157   0.00000  Uiso   1.00
H188   H     0.91621   0.10098   0.09452   0.00000  Uiso   1.00
H189   H     0.90498   0.08453   0.46480   0.00000  Uiso   1.00
O190   O     0.83333   0.16667   0.25000   0.00000  Uiso   1.00
O191   O     0.82360   0.12393   0.16625   0.00000  Uiso   1.00
O192   O     0.79354   0.20646   0.33749   0.00000  Uiso   1.00
O193   O     0.87755   0.17493   0.15877   0.00000  Uiso   1.00
O194   O     0.83865   0.16135   0.33749   0.00000  Uiso   1.00
O195   O     0.86068   0.10282   0.42221   0.00000  Uiso   1.00
O196   O     0.84515   0.08101   0.27821   0.00000  Uiso   1.00
O197   O     0.81247   0.26136   0.26767   0.00000  Uiso   1.00
O198   O     0.74119   0.13251   0.23607   0.00000  Uiso   1.00
O199   O     0.93452   0.19179   0.21806   0.00000  Uiso   1.00
O200   O     0.73656   0.18960   0.27820   0.00000  Uiso   1.00
O201   O     0.92106   0.15277   0.26768   0.00000  Uiso   1.00
O202   O     0.80467   0.06903   0.23607   0.00000  Uiso   1.00
O203   O     0.87104   0.25527   0.21806   0.00000  Uiso   1.00
Zn204  Zn    0.85910   0.14090   0.28278   0.00000  Uiso   1.00
Zn205  Zn    0.80125   0.12378   0.22258   0.00000  Uiso   1.00
Zn206  Zn    0.87833   0.19664   0.21188   0.00000  Uiso   1.00
Zn207  Zn    0.79465   0.20535   0.28277   0.00000  Uiso   1.00
C208   C     0.05248   0.49324   0.25872   0.00000  Uiso   1.00
C209   C     0.18967   0.45310   0.46077   0.00000  Uiso   1.00
C210   C     0.21466   0.43888   0.48079   0.00000  Uiso   1.00
C211   C     0.28104   0.50689   0.24122   0.00000  Uiso   1.00
C212   C     0.20876   0.45020   0.02086   0.00000  Uiso   1.00
C213   C     0.17555   0.47504   0.04238   0.00000  Uiso   1.00
C214   C     0.23524   0.43587   0.03983   0.00000  Uiso   1.00
C215   C     0.22918   0.44584   0.08010   0.00000  Uiso   1.00
C216   C     0.17002   0.48452   0.08321   0.00000  Uiso   1.00
C217   C     0.32700   0.50952   0.23764   0.00000  Uiso   1.00
C218   C     0.00711   0.49083   0.26214   0.00000  Uiso   1.00
C219   C     0.09626   0.54550   0.42090   0.00000  Uiso   1.00
C220   C     0.18085   0.65550   0.23816   0.00000  Uiso   1.00
C221   C     0.15151   0.34540   0.26212   0.00000  Uiso   1.00
C222   C     0.15588   0.38944   0.25893   0.00000  Uiso   1.00
C223   C     0.17685   0.61100   0.24137   0.00000  Uiso   1.00
C224   C     0.18815   0.47857   0.14407   0.00000  Uiso   1.00
C225   C     0.14533   0.52094   0.35618   0.00000  Uiso   1.00
C226   C     0.13259   0.52573   0.39941   0.00000  Uiso   1.00
C227   C     0.19642   0.46990   0.10168   0.00000  Uiso   1.00
C228   C     0.08285   0.54677   0.46172   0.00000  Uiso   1.00
C229   C     0.15903   0.40510   0.42012   0.00000  Uiso   1.00
C230   C     0.15522   0.50740   0.41922   0.00000  Uiso   1.00
C231   C     0.17113   0.36178   0.42191   0.00000  Uiso   1.00
C232   C     0.13613   0.66047   0.41501   0.00000  Uiso   1.00
C233   C     0.14003   0.50486   0.46001   0.00000  Uiso   1.00
C234   C     0.10456   0.52689   0.48141   0.00000  Uiso   1.00
C235   C     0.16034   0.48296   0.48034   0.00000  Uiso   1.00
C236   C     0.15004   0.49035   0.02219   0.00000  Uiso   1.00
C237   C     0.11440   0.51252   0.04241   0.00000  Uiso   1.00
C238   C     0.09151   0.52946   0.02227   0.00000  Uiso   1.00
H239   H     0.06421   0.54594   0.03892   0.00000  Uiso   1.00
H240   H     0.05529   0.56309   0.47791   0.00000  Uiso   1.00
H241   H     0.07826   0.55998   0.40620   0.00000  Uiso   1.00
H242   H     0.18545   0.49649   0.40227   0.00000  Uiso   1.00
H243   H     0.10257   0.51658   0.07398   0.00000  Uiso   1.00
H244   H     0.15251   0.40552   0.39133   0.00000  Uiso   1.00
H245   H     0.12833   0.41098   0.44313   0.00000  Uiso   1.00
H246   H     0.20195   0.35656   0.39913   0.00000  Uiso   1.00
H247   H     0.17581   0.36014   0.45123   0.00000  Uiso   1.00
H248   H     0.10516   0.66458   0.43788   0.00000  Uiso   1.00
H249   H     0.14602   0.62966   0.41655   0.00000  Uiso   1.00
H250   H     0.26054   0.41677   0.02351   0.00000  Uiso   1.00
H251   H     0.13140   0.66077   0.38548   0.00000  Uiso   1.00
H252   H     0.01667   0.52673   0.21496   0.00000  Uiso   1.00
H253   H     0.31810   0.47359   0.28511   0.00000  Uiso   1.00
H254   H     0.20792   0.33614   0.21612   0.00000  Uiso   1.00
H255   H     0.12407   0.66554   0.28426   0.00000  Uiso   1.00
H256   H     0.14613   0.50381   0.10157   0.00000  Uiso   1.00
H257   H     0.24954   0.43431   0.09452   0.00000  Uiso   1.00
H258   H     0.23831   0.41787   0.46480   0.00000  Uiso   1.00
O259   O     0.16667   0.50000   0.25000   0.00000  Uiso   1.00
O260   O     0.15693   0.45726   0.16625   0.00000  Uiso   1.00
O261   O     0.12687   0.53979   0.33749   0.00000  Uiso   1.00
O262   O     0.21088   0.50826   0.15877   0.00000  Uiso   1.00
O263   O     0.17198   0.49468   0.33749   0.00000  Uiso   1.00
O264   O     0.19401   0.43615   0.42221   0.00000  Uiso   1.00
O265   O     0.17849   0.41434   0.27821   0.00000  Uiso   1.00
O266   O     0.14581   0.59469   0.26767   0.00000  Uiso   1.00
O267   O     0.07452   0.46584   0.23607   0.00000  Uiso   1.00
O268   O     0.26785   0.52512   0.21806   0.00000  Uiso   1.00
O269   O     0.06990   0.52293   0.27820   0.00000  Uiso   1.00
O270   O     0.25440   0.48610   0.26768   0.00000  Uiso   1.00
O271   O     0.13800   0.40236   0.23607   0.00000  Uiso   1.00
O272   O     0.20437   0.58860   0.21806   0.00000  Uiso   1.00
Zn273  Zn    0.19244   0.47423   0.28278   0.00000  Uiso   1.00
Zn274  Zn    0.13459   0.45711   0.22258   0.00000  Uiso   1.00
Zn275  Zn    0.21166   0.52997   0.21188   0.00000  Uiso   1.00
Zn276  Zn    0.12798   0.53868   0.28277   0.00000  Uiso   1.00
C277   C     0.38582   0.49324   0.25872   0.00000  Uiso   1.00
C278   C     0.52300   0.45310   0.46077   0.00000  Uiso   1.00
C279   C     0.54800   0.43888   0.48079   0.00000  Uiso   1.00
C280   C     0.61437   0.50689   0.24122   0.00000  Uiso   1.00
C281   C     0.54209   0.45020   0.02086   0.00000  Uiso   1.00
C282   C     0.50888   0.47504   0.04238   0.00000  Uiso   1.00
C283   C     0.56858   0.43587   0.03983   0.00000  Uiso   1.00
C284   C     0.56251   0.44584   0.08010   0.00000  Uiso   1.00
C285   C     0.50336   0.48452   0.08321   0.00000  Uiso   1.00
C286   C     0.66033   0.50952   0.23764   0.00000  Uiso   1.00
C287   C     0.34045   0.49083   0.26214   0.00000  Uiso   1.00
C288   C     0.42960   0.54550   0.42090   0.00000  Uiso   1.00
C289   C     0.51418   0.65550   0.23816   0.00000  Uiso   1.00
C290   C     0.48484   0.34540   0.26212   0.00000  Uiso   1.00
C291   C     0.48921   0.38944   0.25893   0.00000  Uiso   1.00
C292   C     0.51018   0.61100   0.24137   0.00000  Uiso   1.00
C293   C     0.52148   0.47857   0.14407   0.00000  Uiso   1.00
C294   C     0.47866   0.52094   0.35618   0.00000  Uiso   1.00
C295   C     0.46592   0.52573   0.39941   0.00000  Uiso   1.00
C296   C     0.52975   0.46990   0.10168   0.00000  Uiso   1.00
C297   C     0.41618   0.54677   0.46172   0.00000  Uiso   1.00
C298   C     0.49236   0.40510   0.42012   0.00000  Uiso   1.00
C299   C     0.48855   0.50740   0.41922   0.00000  Uiso   1.00
C300   C     0.50447   0.36178   0.42191   0.00000  Uiso   1.00
C301   C     0.46946   0.66047   0.41501   0.00000  Uiso   1.00
C302   C     0.47336   0.50486   0.46001   0.00000  Uiso   1.00
C303   C     0.43790   0.52689   0.48141   0.00000  Uiso   1.00
C304   C     0.49367   0.48296   0.48034   0.00000  Uiso   1.00
C305   C     0.48337   0.49035   0.02219   0.00000  Uiso   1.00
C306   C     0.44773   0.51252   0.04241   0.00000  Uiso   1.00
C307   C     0.42484   0.52946   0.02227   0.00000  Uiso   1.00
H308   H     0.39754   0.54594   0.03892   0.00000  Uiso   1.00
H309   H     0.38862   0.56309   0.47791   0.00000  Uiso   1.00
H310   H     0.41159   0.55998   0.40620   0.00000  Uiso   1.00
H311   H     0.51878   0.49649   0.40227   0.00000  Uiso   1.00
H312   H     0.43590   0.51658   0.07398   0.00000  Uiso   1.00
H313   H     0.48584   0.40552   0.39133   0.00000  Uiso   1.00
H314   H     0.46166   0.41098   0.44313   0.00000  Uiso   1.00
H315   H     0.53528   0.35656   0.39913   0.00000  Uiso   1.00
H316   H     0.50915   0.36014   0.45123   0.00000  Uiso   1.00
H317   H     0.43849   0.66458   0.43788   0.00000  Uiso   1.00
H318   H     0.47935   0.62966   0.41655   0.00000  Uiso   1.00
H319   H     0.59388   0.41677   0.02351   0.00000  Uiso   1.00
H320   H     0.46473   0.66077   0.38548   0.00000  Uiso   1.00
H321   H     0.35000   0.52673   0.21496   0.00000  Uiso   1.00
H322   H     0.65143   0.47359   0.28511   0.00000  Uiso   1.00
H323   H     0.54125   0.33614   0.21612   0.00000  Uiso   1.00
H324   H     0.45740   0.66554   0.28426   0.00000  Uiso   1.00
H325   H     0.47946   0.50381   0.10157   0.00000  Uiso   1.00
H326   H     0.58288   0.43431   0.09452   0.00000  Uiso   1.00
H327   H     0.57164   0.41787   0.46480   0.00000  Uiso   1.00
O328   O     0.50000   0.50000   0.25000   0.00000  Uiso   1.00
O329   O     0.49027   0.45726   0.16625   0.00000  Uiso   1.00
O330   O     0.46020   0.53979   0.33749   0.00000  Uiso   1.00
O331   O     0.54421   0.50826   0.15877   0.00000  Uiso   1.00
O332   O     0.50532   0.49468   0.33749   0.00000  Uiso   1.00
O333   O     0.52734   0.43615   0.42221   0.00000  Uiso   1.00
O334   O     0.51182   0.41434   0.27821   0.00000  Uiso   1.00
O335   O     0.47914   0.59469   0.26767   0.00000  Uiso   1.00
O336   O     0.40785   0.46584   0.23607   0.00000  Uiso   1.00
O337   O     0.60119   0.52512   0.21806   0.00000  Uiso   1.00
O338   O     0.40323   0.52293   0.27820   0.00000  Uiso   1.00
O339   O     0.58773   0.48610   0.26768   0.00000  Uiso   1.00
O340   O     0.47133   0.40236   0.23607   0.00000  Uiso   1.00
O341   O     0.53771   0.58860   0.21806   0.00000  Uiso   1.00
Zn342  Zn    0.52577   0.47423   0.28278   0.00000  Uiso   1.00
Zn343  Zn    0.46792   0.45711   0.22258   0.00000  Uiso   1.00
Zn344  Zn    0.54500   0.52997   0.21188   0.00000  Uiso   1.00
Zn345  Zn    0.46131   0.53868   0.28277   0.00000  Uiso   1.00
C346   C     0.71915   0.49324   0.25872   0.00000  Uiso   1.00
C347   C     0.85634   0.45310   0.46077   0.00000  Uiso   1.00
C348   C     0.88133   0.43888   0.48079   0.00000  Uiso   1.00
C349   C     0.94771   0.50689   0.24122   0.00000  Uiso   1.00
C350   C     0.87542   0.45020   0.02086   0.00000  Uiso   1.00
C351   C     0.84221   0.47504   0.04238   0.00000  Uiso   1.00
C352   C     0.90191   0.43587   0.03983   0.00000  Uiso   1.00
C353   C     0.89584   0.44584   0.08010   0.00000  Uiso   1.00
C354   C     0.83669   0.48452   0.08321   0.00000  Uiso   1.00
C355   C     0.99366   0.50952   0.23764   0.00000  Uiso   1.00
C356   C     0.67378   0.49083   0.26214   0.00000  Uiso   1.00
C357   C     0.76293   0.54550   0.42090   0.00000  Uiso   1.00
C358   C     0.84752   0.65550   0.23816   0.00000  Uiso   1.00
C359   C     0.81818   0.34540   0.26212   0.00000  Uiso   1.00
C360   C     0.82254   0.38944   0.25893   0.00000  Uiso   1.00
C361   C     0.84352   0.61100   0.24137   0.00000  Uiso   1.00
C362   C     0.85481   0.47857   0.14407   0.00000  Uiso   1.00
C363   C     0.81200   0.52094   0.35618   0.00000  Uiso   1.00
C364   C     0.79925   0.52573   0.39941   0.00000  Uiso   1.00
C365   C     0.86308   0.46990   0.10168   0.00000  Uiso   1.00
C366   C     0.74951   0.54677   0.46172   0.00000  Uiso   1.00
C367   C     0.82569   0.40510   0.42012   0.00000  Uiso   1.00
C368   C     0.82189   0.50740   0.41922   0.00000  Uiso   1.00
C369   C     0.83780   0.36178   0.42191   0.00000  Uiso   1.00
C370   C     0.80280   0.66047   0.41501   0.00000  Uiso   1.00
C371   C     0.80670   0.50486   0.46001   0.00000  Uiso   1.00
C372   C     0.77123   0.52689   0.48141   0.00000  Uiso   1.00
C373   C     0.82700   0.48296   0.48034   0.00000  Uiso   1.00
C374   C     0.81671   0.49035   0.02219   0.00000  Uiso   1.00
C375   C     0.78107   0.51252   0.04241   0.00000  Uiso   1.00
C376   C     0.75818   0.52946   0.02227   0.00000  Uiso   1.00
H377   H     0.73087   0.54594   0.03892   0.00000  Uiso   1.00
H378   H     0.72196   0.56309   0.47791   0.00000  Uiso   1.00
H379   H     0.74492   0.55998   0.40620   0.00000  Uiso   1.00
H380   H     0.85212   0.49649   0.40227   0.00000  Uiso   1.00
H381   H     0.76924   0.51658   0.07398   0.00000  Uiso   1.00
H382   H     0.81917   0.40552   0.39133   0.00000  Uiso   1.00
H383   H     0.79500   0.41098   0.44313   0.00000  Uiso   1.00
H384   H     0.86861   0.35656   0.39913   0.00000  Uiso   1.00
H385   H     0.84248   0.36014   0.45123   0.00000  Uiso   1.00
H386   H     0.77182   0.66458   0.43788   0.00000  Uiso   1.00
H387   H     0.81269   0.62966   0.41655   0.00000  Uiso   1.00
H388   H     0.92721   0.41677   0.02351   0.00000  Uiso   1.00
H389   H     0.79806   0.66077   0.38548   0.00000  Uiso   1.00
H390   H     0.68333   0.52673   0.21496   0.00000  Uiso   1.00
H391   H     0.98477   0.47359   0.28511   0.00000  Uiso   1.00
H392   H     0.87459   0.33614   0.21612   0.00000  Uiso   1.00
H393   H     0.79074   0.66554   0.28426   0.00000  Uiso   1.00
H394   H     0.81279   0.50381   0.10157   0.00000  Uiso   1.00
H395   H     0.91621   0.43431   0.09452   0.00000  Uiso   1.00
H396   H     0.90498   0.41787   0.46480   0.00000  Uiso   1.00
O397   O     0.83333   0.50000   0.25000   0.00000  Uiso   1.00
O398   O     0.82360   0.45726   0.16625   0.00000  Uiso   1.00
O399   O     0.79354   0.53979   0.33749   0.00000  Uiso   1.00
O400   O     0.87755   0.50826   0.15877   0.00000  Uiso   1.00
O401   O     0.83865   0.49468   0.33749   0.00000  Uiso   1.00
O402   O     0.86068   0.43615   0.42221   0.00000  Uiso   1.00
O403   O     0.84515   0.41434   0.27821   0.00000  Uiso   1.00
O404   O     0.81247   0.59469   0.26767   0.00000  Uiso   1.00
O405   O     0.74119   0.46584   0.23607   0.00000  Uiso   1.00
O406   O     0.93452   0.52512   0.21806   0.00000  Uiso   1.00
O407   O     0.73656   0.52293   0.27820   0.00000  Uiso   1.00
O408   O     0.92106   0.48610   0.26768   0.00000  Uiso   1.00
O409   O     0.80467   0.40236   0.23607   0.00000  Uiso   1.00
O410   O     0.87104   0.58860   0.21806   0.00000  Uiso   1.00
Zn411  Zn    0.85910   0.47423   0.28278   0.00000  Uiso   1.00
Zn412  Zn    0.80125   0.45711   0.22258   0.00000  Uiso   1.00
Zn413  Zn    0.87833   0.52997   0.21188   0.00000  Uiso   1.00
Zn414  Zn    0.79465   0.53868   0.28277   0.00000  Uiso   1.00
C415   C     0.05248   0.82658   0.25872   0.00000  Uiso   1.00
C416   C     0.18967   0.78644   0.46077   0.00000  Uiso   1.00
C417   C     0.21466   0.77222   0.48079   0.00000  Uiso   1.00
C418   C     0.28104   0.84022   0.24122   0.00000  Uiso   1.00
C419   C     0.20876   0.78353   0.02086   0.00000  Uiso   1.00
C420   C     0.17555   0.80838   0.04238   0.00000  Uiso   1.00
C421   C     0.23524   0.76920   0.03983   0.00000  Uiso   1.00
C422   C     0.22918   0.77917   0.08010   0.00000  Uiso   1.00
C423   C     0.17002   0.81785   0.08321   0.00000  Uiso   1.00
C424   C     0.32700   0.84286   0.23764   0.00000  Uiso   1.00
C425   C     0.00711   0.82416   0.26214   0.00000  Uiso   1.00
C426   C     0.09626   0.87883   0.42090   0.00000  Uiso   1.00
C427   C     0.18085   0.98883   0.23816   0.00000  Uiso   1.00
C428   C     0.15151   0.67873   0.26212   0.00000  Uiso   1.00
C429   C     0.15588   0.72278   0.25893   0.00000  Uiso   1.00
C430   C     0.17685   0.94433   0.24137   0.00000  Uiso   1.00
C431   C     0.18815   0.81190   0.14407   0.00000  Uiso   1.00
C432   C     0.14533   0.85427   0.35618   0.00000  Uiso   1.00
C433   C     0.13259   0.85907   0.39941   0.00000  Uiso   1.00
C434   C     0.19642   0.80323   0.10168   0.00000  Uiso   1.00
C435   C     0.08285   0.88011   0.46172   0.00000  Uiso   1.00
C436   C     0.15903   0.73843   0.42012   0.00000  Uiso   1.00
C437   C     0.15522   0.84073   0.41922   0.00000  Uiso   1.00
C438   C     0.17113   0.69511   0.42191   0.00000  Uiso   1.00
C439   C     0.13613   0.99381   0.41501   0.00000  Uiso   1.00
C440   C     0.14003   0.83820   0.46001   0.00000  Uiso   1.00
C441   C     0.10456   0.86022   0.48141   0.00000  Uiso   1.00
C442   C     0.16034   0.81629   0.48034   0.00000  Uiso   1.00
C443   C     0.15004   0.82368   0.02219   0.00000  Uiso   1.00
C444   C     0.11440   0.84585   0.04241   0.00000  Uiso   1.00
C445   C     0.09151   0.86280   0.02227   0.00000  Uiso   1.00
H446   H     0.06421   0.87927   0.03892   0.00000  Uiso   1.00
H447   H     0.05529   0.89643   0.47791   0.00000  Uiso   1.00
H448   H     0.07826   0.89331   0.40620   0.00000  Uiso   1.00
H449   H     0.18545   0.82982   0.40227   0.00000  Uiso   1.00
H450   H     0.10257   0.84991   0.07398   0.00000  Uiso   1.00
H451   H     0.15251   0.73886   0.39133   0.00000  Uiso   1.00
H452   H     0.12833   0.74432   0.44313   0.00000  Uiso   1.00
H453   H     0.20195   0.68990   0.39913   0.00000  Uiso   1.00
H454   H     0.17581   0.69347   0.45123   0.00000  Uiso   1.00
H455   H     0.10516   0.99791   0.43788   0.00000  Uiso   1.00
H456   H     0.14602   0.96299   0.41655   0.00000  Uiso   1.00
H457   H     0.26054   0.75010   0.02351   0.00000  Uiso   1.00
H458   H     0.13140   0.99410   0.38548   0.00000  Uiso   1.00
H459   H     0.01667   0.86007   0.21496   0.00000  Uiso   1.00
H460   H     0.31810   0.80693   0.28511   0.00000  Uiso   1.00
H461   H     0.20792   0.66947   0.21612   0.00000  Uiso   1.00
H462   H     0.12407   0.99888   0.28426   0.00000  Uiso   1.00
H463   H     0.14613   0.83714   0.10157   0.00000  Uiso   1.00
H464   H     0.24954   0.76765   0.09452   0.00000  Uiso   1.00
H465   H     0.23831   0.75120   0.46480   0.00000  Uiso   1.00
O466   O     0.16667   0.83333   0.25000   0.00000  Uiso   1.00
O467   O     0.15693   0.79060   0.16625   0.00000  Uiso   1.00
O468   O     0.12687   0.87313   0.33749   0.00000  Uiso   1.00
O469   O     0.21088   0.84159   0.15877   0.00000  Uiso   1.00
O470   O     0.17198   0.82802   0.33749   0.00000  Uiso   1.00
O471   O     0.19401   0.76948   0.42221   0.00000  Uiso   1.00
O472   O     0.17849   0.74768   0.27821   0.00000  Uiso   1.00
O473   O     0.14581   0.92803   0.26767   0.00000  Uiso   1.00
O474   O     0.07452   0.79917   0.23607   0.00000  Uiso   1.00
O475   O     0.26785   0.85845   0.21806   0.00000  Uiso   1.00
O476   O     0.06990   0.85627   0.27820   0.00000  Uiso   1.00
O477   O     0.25440   0.81944   0.26768   0.00000  Uiso   1.00
O478   O     0.13800   0.73570   0.23607   0.00000  Uiso   1.00
O479   O     0.20437   0.92193   0.21806   0.00000  Uiso   1.00
Zn480  Zn    0.19244   0.80756   0.28278   0.00000  Uiso   1.00
Zn481  Zn    0.13459   0.79044   0.22258   0.00000  Uiso   1.00
Zn482  Zn    0.21166   0.86331   0.21188   0.00000  Uiso   1.00
Zn483  Zn    0.12798   0.87202   0.28277   0.00000  Uiso   1.00
C484   C     0.38582   0.82658   0.25872   0.00000  Uiso   1.00
C485   C     0.52300   0.78644   0.46077   0.00000  Uiso   1.00
C486   C     0.54800   0.77222   0.48079   0.00000  Uiso   1.00
C487   C     0.61437   0.84022   0.24122   0.00000  Uiso   1.00
C488   C     0.54209   0.78353   0.02086   0.00000  Uiso   1.00
C489   C     0.50888   0.80838   0.04238   0.00000  Uiso   1.00
C490   C     0.56858   0.76920   0.03983   0.00000  Uiso   1.00
C491   C     0.56251   0.77917   0.08010   0.00000  Uiso   1.00
C492   C     0.50336   0.81785   0.08321   0.00000  Uiso   1.00
C493   C     0.66033   0.84286   0.23764   0.00000  Uiso   1.00
C494   C     0.34045   0.82416   0.26214   0.00000  Uiso   1.00
C495   C     0.42960   0.87883   0.42090   0.00000  Uiso   1.00
C496   C     0.51418   0.98883   0.23816   0.00000  Uiso   1.00
C497   C     0.48484   0.67873   0.26212   0.00000  Uiso   1.00
C498   C     0.48921   0.72278   0.25893   0.00000  Uiso   1.00
C499   C     0.51018   0.94433   0.24137   0.00000  Uiso   1.00
C500   C     0.52148   0.81190   0.14407   0.00000  Uiso   1.00
C501   C     0.47866   0.85427   0.35618   0.00000  Uiso   1.00
C502   C     0.46592   0.85907   0.39941   0.00000  Uiso   1.00
C503   C     0.52975   0.80323   0.10168   0.00000  Uiso   1.00
C504   C     0.41618   0.88011   0.46172   0.00000  Uiso   1.00
C505   C     0.49236   0.73843   0.42012   0.00000  Uiso   1.00
C506   C     0.48855   0.84073   0.41922   0.00000  Uiso   1.00
C507   C     0.50447   0.69511   0.42191   0.00000  Uiso   1.00
C508   C     0.46946   0.99381   0.41501   0.00000  Uiso   1.00
C509   C     0.47336   0.83820   0.46001   0.00000  Uiso   1.00
C510   C     0.43790   0.86022   0.48141   0.00000  Uiso   1.00
C511   C     0.49367   0.81629   0.48034   0.00000  Uiso   1.00
C512   C     0.48337   0.82368   0.02219   0.00000  Uiso   1.00
C513   C     0.44773   0.84585   0.04241   0.00000  Uiso   1.00
C514   C     0.42484   0.86280   0.02227   0.00000  Uiso   1.00
H515   H     0.39754   0.87927   0.03892   0.00000  Uiso   1.00
H516   H     0.38862   0.89643   0.47791   0.00000  Uiso   1.00
H517   H     0.41159   0.89331   0.40620   0.00000  Uiso   1.00
H518   H     0.51878   0.82982   0.40227   0.00000  Uiso   1.00
H519   H     0.43590   0.84991   0.07398   0.00000  Uiso   1.00
H520   H     0.48584   0.73886   0.39133   0.00000  Uiso   1.00
H521   H     0.46166   0.74432   0.44313   0.00000  Uiso   1.00
H522   H     0.53528   0.68990   0.39913   0.00000  Uiso   1.00
H523   H     0.50915   0.69347   0.45123   0.00000  Uiso   1.00
H524   H     0.43849   0.99791   0.43788   0.00000  Uiso   1.00
H525   H     0.47935   0.96299   0.41655   0.00000  Uiso   1.00
H526   H     0.59388   0.75010   0.02351   0.00000  Uiso   1.00
H527   H     0.46473   0.99410   0.38548   0.00000  Uiso   1.00
H528   H     0.35000   0.86007   0.21496   0.00000  Uiso   1.00
H529   H     0.65143   0.80693   0.28511   0.00000  Uiso   1.00
H530   H     0.54125   0.66947   0.21612   0.00000  Uiso   1.00
H531   H     0.45740   0.99888   0.28426   0.00000  Uiso   1.00
H532   H     0.47946   0.83714   0.10157   0.00000  Uiso   1.00
H533   H     0.58288   0.76765   0.09452   0.00000  Uiso   1.00
H534   H     0.57164   0.75120   0.46480   0.00000  Uiso   1.00
O535   O     0.50000   0.83333   0.25000   0.00000  Uiso   1.00
O536   O     0.49027   0.79060   0.16625   0.00000  Uiso   1.00
O537   O     0.46020   0.87313   0.33749   0.00000  Uiso   1.00
O538   O     0.54421   0.84159   0.15877   0.00000  Uiso   1.00
O539   O     0.50532   0.82802   0.33749   0.00000  Uiso   1.00
O540   O     0.52734   0.76948   0.42221   0.00000  Uiso   1.00
O541   O     0.51182   0.74768   0.27821   0.00000  Uiso   1.00
O542   O     0.47914   0.92803   0.26767   0.00000  Uiso   1.00
O543   O     0.40785   0.79917   0.23607   0.00000  Uiso   1.00
O544   O     0.60119   0.85845   0.21806   0.00000  Uiso   1.00
O545   O     0.40323   0.85627   0.27820   0.00000  Uiso   1.00
O546   O     0.58773   0.81944   0.26768   0.00000  Uiso   1.00
O547   O     0.47133   0.73570   0.23607   0.00000  Uiso   1.00
O548   O     0.53771   0.92193   0.21806   0.00000  Uiso   1.00
Zn549  Zn    0.52577   0.80756   0.28278   0.00000  Uiso   1.00
Zn550  Zn    0.46792   0.79044   0.22258   0.00000  Uiso   1.00
Zn551  Zn    0.54500   0.86331   0.21188   0.00000  Uiso   1.00
Zn552  Zn    0.46131   0.87202   0.28277   0.00000  Uiso   1.00
C553   C     0.71915   0.82658   0.25872   0.00000  Uiso   1.00
C554   C     0.85634   0.78644   0.46077   0.00000  Uiso   1.00
C555   C     0.88133   0.77222   0.48079   0.00000  Uiso   1.00
C556   C     0.94771   0.84022   0.24122   0.00000  Uiso   1.00
C557   C     0.87542   0.78353   0.02086   0.00000  Uiso   1.00
C558   C     0.84221   0.80838   0.04238   0.00000  Uiso   1.00
C559   C     0.90191   0.76920   0.03983   0.00000  Uiso   1.00
C560   C     0.89584   0.77917   0.08010   0.00000  Uiso   1.00
C561   C     0.83669   0.81785   0.08321   0.00000  Uiso   1.00
C562   C     0.99366   0.84286   0.23764   0.00000  Uiso   1.00
C563   C     0.67378   0.82416   0.26214   0.00000  Uiso   1.00
C564   C     0.76293   0.87883   0.42090   0.00000  Uiso   1.00
C565   C     0.84752   0.98883   0.23816   0.00000  Uiso   1.00
C566   C     0.81818   0.67873   0.26212   0.00000  Uiso   1.00
C567   C     0.82254   0.72278   0.25893   0.00000  Uiso   1.00
C568   C     0.84352   0.94433   0.24137   0.00000  Uiso   1.00
C569   C     0.85481   0.81190   0.14407   0.00000  Uiso   1.00
C570   C     0.81200   0.85427   0.35618   0.00000  Uiso   1.00
C571   C     0.79925   0.85907   0.39941   0.00000  Uiso   1.00
C572   C     0.86308   0.80323   0.10168   0.00000  Uiso   1.00
C573   C     0.74951   0.88011   0.46172   0.00000  Uiso   1.00
C574   C     0.82569   0.73843   0.42012   0.00000  Uiso   1.00
C575   C     0.82189   0.84073   0.41922   0.00000  Uiso   1.00
C576   C     0.83780   0.69511   0.42191   0.00000  Uiso   1.00
C577   C     0.80280   0.99381   0.41501   0.00000  Uiso   1.00
C578   C     0.80670   0.83820   0.46001   0.00000  Uiso   1.00
C579   C     0.77123   0.86022   0.48141   0.00000  Uiso   1.00
C580   C     0.82700   0.81629   0.48034   0.00000  Uiso   1.00
C581   C     0.81671   0.82368   0.02219   0.00000  Uiso   1.00
C582   C     0.78107   0.84585   0.04241   0.00000  Uiso   1.00
C583   C     0.75818   0.86280   0.02227   0.00000  Uiso   1.00
H584   H     0.73087   0.87927   0.03892   0.00000  Uiso   1.00
H585   H     0.72196   0.89643   0.47791   0.00000  Uiso   1.00
H586   H     0.74492   0.89331   0.40620   0.00000  Uiso   1.00
H587   H     0.85212   0.82982   0.40227   0.00000  Uiso   1.00
H588   H     0.76924   0.84991   0.07398   0.00000  Uiso   1.00
H589   H     0.81917   0.73886   0.39133   0.00000  Uiso   1.00
H590   H     0.79500   0.74432   0.44313   0.00000  Uiso   1.00
H591   H     0.86861   0.68990   0.39913   0.00000  Uiso   1.00
H592   H     0.84248   0.69347   0.45123   0.00000  Uiso   1.00
H593   H     0.77182   0.99791   0.43788   0.00000  Uiso   1.00
H594   H     0.81269   0.96299   0.41655   0.00000  Uiso   1.00
H595   H     0.92721   0.75010   0.02351   0.00000  Uiso   1.00
H596   H     0.79806   0.99410   0.38548   0.00000  Uiso   1.00
H597   H     0.68333   0.86007   0.21496   0.00000  Uiso   1.00
H598   H     0.98477   0.80693   0.28511   0.00000  Uiso   1.00
H599   H     0.87459   0.66947   0.21612   0.00000  Uiso   1.00
H600   H     0.79074   0.99888   0.28426   0.00000  Uiso   1.00
H601   H     0.81279   0.83714   0.10157   0.00000  Uiso   1.00
H602   H     0.91621   0.76765   0.09452   0.00000  Uiso   1.00
H603   H     0.90498   0.75120   0.46480   0.00000  Uiso   1.00
O604   O     0.83333   0.83333   0.25000   0.00000  Uiso   1.00
O605   O     0.82360   0.79060   0.16625   0.00000  Uiso   1.00
O606   O     0.79354   0.87313   0.33749   0.00000  Uiso   1.00
O607   O     0.87755   0.84159   0.15877   0.00000  Uiso   1.00
O608   O     0.83865   0.82802   0.33749   0.00000  Uiso   1.00
O609   O     0.86068   0.76948   0.42221   0.00000  Uiso   1.00
O610   O     0.84515   0.74768   0.27821   0.00000  Uiso   1.00
O611   O     0.81247   0.92803   0.26767   0.00000  Uiso   1.00
O612   O     0.74119   0.79917   0.23607   0.00000  Uiso   1.00
O613   O     0.93452   0.85845   0.21806   0.00000  Uiso   1.00
O614   O     0.73656   0.85627   0.27820   0.00000  Uiso   1.00
O615   O     0.92106   0.81944   0.26768   0.00000  Uiso   1.00
O616   O     0.80467   0.73570   0.23607   0.00000  Uiso   1.00
O617   O     0.87104   0.92193   0.21806   0.00000  Uiso   1.00
Zn618  Zn    0.85910   0.80756   0.28278   0.00000  Uiso   1.00
Zn619  Zn    0.80125   0.79044   0.22258   0.00000  Uiso   1.00
Zn620  Zn    0.87833   0.86331   0.21188   0.00000  Uiso   1.00
Zn621  Zn    0.79465   0.87202   0.28277   0.00000  Uiso   1.00
C622   C     0.05248   0.15991   0.75872   0.00000  Uiso   1.00
C623   C     0.18967   0.11977   0.96077   0.00000  Uiso   1.00
C624   C     0.21466   0.10555   0.98079   0.00000  Uiso   1.00
C625   C     0.28104   0.17356   0.74122   0.00000  Uiso   1.00
C626   C     0.20876   0.11686   0.52086   0.00000  Uiso   1.00
C627   C     0.17555   0.14171   0.54238   0.00000  Uiso   1.00
C628   C     0.23524   0.10254   0.53983   0.00000  Uiso   1.00
C629   C     0.22918   0.11251   0.58010   0.00000  Uiso   1.00
C630   C     0.17002   0.15119   0.58321   0.00000  Uiso   1.00
C631   C     0.32700   0.17619   0.73764   0.00000  Uiso   1.00
C632   C     0.00711   0.15749   0.76214   0.00000  Uiso   1.00
C633   C     0.09626   0.21217   0.92090   0.00000  Uiso   1.00
C634   C     0.18085   0.32216   0.73816   0.00000  Uiso   1.00
C635   C     0.15151   0.01207   0.76212   0.00000  Uiso   1.00
C636   C     0.15588   0.05611   0.75893   0.00000  Uiso   1.00
C637   C     0.17685   0.27766   0.74137   0.00000  Uiso   1.00
C638   C     0.18815   0.14523   0.64407   0.00000  Uiso   1.00
C639   C     0.14533   0.18761   0.85618   0.00000  Uiso   1.00
C640   C     0.13259   0.19240   0.89941   0.00000  Uiso   1.00
C641   C     0.19642   0.13656   0.60168   0.00000  Uiso   1.00
C642   C     0.08285   0.21344   0.96172   0.00000  Uiso   1.00
C643   C     0.15903   0.07176   0.92012   0.00000  Uiso   1.00
C644   C     0.15522   0.17406   0.91922   0.00000  Uiso   1.00
C645   C     0.17113   0.02845   0.92191   0.00000  Uiso   1.00
C646   C     0.13613   0.32714   0.91501   0.00000  Uiso   1.00
C647   C     0.14003   0.17153   0.96001   0.00000  Uiso   1.00
C648   C     0.10456   0.19356   0.98141   0.00000  Uiso   1.00
C649   C     0.16034   0.14963   0.98034   0.00000  Uiso   1.00
C650   C     0.15004   0.15702   0.52219   0.00000  Uiso   1.00
C651   C     0.11440   0.17918   0.54241   0.00000  Uiso   1.00
C652   C     0.09151   0.19613   0.52227   0.00000  Uiso   1.00
H653   H     0.06421   0.21261   0.53892   0.00000  Uiso   1.00
H654   H     0.05529   0.22976   0.97791   0.00000  Uiso   1.00
H655   H     0.07826   0.22664   0.90620   0.00000  Uiso   1.00
H656   H     0.18545   0.16315   0.90227   0.00000  Uiso   1.00
H657   H     0.10257   0.18324   0.57398   0.00000  Uiso   1.00
H658   H     0.15251   0.07219   0.89133   0.00000  Uiso   1.00
H659   H     0.12833   0.07765   0.94313   0.00000  Uiso   1.00
H660   H     0.20195   0.02323   0.89913   0.00000  Uiso   1.00
H661   H     0.17581   0.02681   0.95123   0.00000  Uiso   1.00
H662   H     0.10516   0.33125   0.93788   0.00000  Uiso   1.00
H663   H     0.14602   0.29633   0.91655   0.00000  Uiso   1.00
H664   H     0.26054   0.08344   0.52351   0.00000  Uiso   1.00
H665   H     0.13140   0.32744   0.88548   0.00000  Uiso   1.00
H666   H     0.01667   0.19340   0.71496   0.00000  Uiso   1.00
H667   H     0.31810   0.14026   0.78511   0.00000  Uiso   1.00
H668   H     0.20792   0.00281   0.71612   0.00000  Uiso   1.00
H669   H     0.12407   0.33221   0.78426   0.00000  Uiso   1.00
H670   H     0.14613   0.17047   0.60157   0.00000  Uiso   1.00
H671   H     0.24954   0.10098   0.59452   0.00000  Uiso   1.00
H672   H     0.23831   0.08453   0.96480   0.00000  Uiso   1.00
O673   O     0.16667   0.16667   0.75000   0.00000  Uiso   1.00
O674   O     0.15693   0.12393   0.66625   0.00000  Uiso   1.00
O675   O     0.12687   0.20646   0.83749   0.00000  Uiso   1.00
O676   O     0.21088   0.17493   0.65877   0.00000  Uiso   1.00
O677   O     0.17198   0.16135   0.83749   0.00000  Uiso   1.00
O678   O     0.19401   0.10282   0.92221   0.00000  Uiso   1.00
O679   O     0.17849   0.08101   0.77821   0.00000  Uiso   1.00
O680   O     0.14581   0.26136   0.76767   0.00000  Uiso   1.00
O681   O     0.07452   0.13251   0.73607   0.00000  Uiso   1.00
O682   O     0.26785   0.19179   0.71806   0.00000  Uiso   1.00
O683   O     0.06990   0.18960   0.77820   0.00000  Uiso   1.00
O684   O     0.25440   0.15277   0.76768   0.00000  Uiso   1.00
O685   O     0.13800   0.06903   0.73607   0.00000  Uiso   1.00
O686   O     0.20437   0.25527   0.71806   0.00000  Uiso   1.00
Zn687  Zn    0.19244   0.14090   0.78278   0.00000  Uiso   1.00
Zn688  Zn    0.13459   0.12378   0.72258   0.00000  Uiso   1.00
Zn689  Zn    0.21166   0.19664   0.71188   0.00000  Uiso   1.00
Zn690  Zn    0.12798   0.20535   0.78277   0.00000  Uiso   1.00
C691   C     0.38582   0.15991   0.75872   0.00000  Uiso   1.00
C692   C     0.52300   0.11977   0.96077   0.00000  Uiso   1.00
C693   C     0.54800   0.10555   0.98079   0.00000  Uiso   1.00
C694   C     0.61437   0.17356   0.74122   0.00000  Uiso   1.00
C695   C     0.54209   0.11686   0.52086   0.00000  Uiso   1.00
C696   C     0.50888   0.14171   0.54238   0.00000  Uiso   1.00
C697   C     0.56858   0.10254   0.53983   0.00000  Uiso   1.00
C698   C     0.56251   0.11251   0.58010   0.00000  Uiso   1.00
C699   C     0.50336   0.15119   0.58321   0.00000  Uiso   1.00
C700   C     0.66033   0.17619   0.73764   0.00000  Uiso   1.00
C701   C     0.34045   0.15749   0.76214   0.00000  Uiso   1.00
C702   C     0.42960   0.21217   0.92090   0.00000  Uiso   1.00
C703   C     0.51418   0.32216   0.73816   0.00000  Uiso   1.00
C704   C     0.48484   0.01207   0.76212   0.00000  Uiso   1.00
C705   C     0.48921   0.05611   0.75893   0.00000  Uiso   1.00
C706   C     0.51018   0.27766   0.74137   0.00000  Uiso   1.00
C707   C     0.52148   0.14523   0.64407   0.00000  Uiso   1.00
C708   C     0.47866   0.18761   0.85618   0.00000  Uiso   1.00
C709   C     0.46592   0.19240   0.89941   0.00000  Uiso   1.00
C710   C     0.52975   0.13656   0.60168   0.00000  Uiso   1.00
C711   C     0.41618   0.21344   0.96172   0.00000  Uiso   1.00
C712   C     0.49236   0.07176   0.92012   0.00000  Uiso   1.00
C713   C     0.48855   0.17406   0.91922   0.00000  Uiso   1.00
C714   C     0.50447   0.02845   0.92191   0.00000  Uiso   1.00
C715   C     0.46946   0.32714   0.91501   0.00000  Uiso   1.00
C716   C     0.47336   0.17153   0.96001   0.00000  Uiso   1.00
C717   C     0.43790   0.19356   0.98141   0.00000  Uiso   1.00
C718   C     0.49367   0.14963   0.98034   0.00000  Uiso   1.00
C719   C     0.48337   0.15702   0.52219   0.00000  Uiso   1.00
C720   C     0.44773   0.17918   0.54241   0.00000  Uiso   1.00
C721   C     0.42484   0.19613   0.52227   0.00000  Uiso   1.00
H722   H     0.39754   0.21261   0.53892   0.00000  Uiso   1.00
H723   H     0.38862   0.22976   0.97791   0.00000  Uiso   1.00
H724   H     0.41159   0.22664   0.90620   0.00000  Uiso   1.00
H725   H     0.51878   0.16315   0.90227   0.00000  Uiso   1.00
H726   H     0.43590   0.18324   0.57398   0.00000  Uiso   1.00
H727   H     0.48584   0.07219   0.89133   0.00000  Uiso   1.00
H728   H     0.46166   0.07765   0.94313   0.00000  Uiso   1.00
H729   H     0.53528   0.02323   0.89913   0.00000  Uiso   1.00
H730   H     0.50915   0.02681   0.95123   0.00000  Uiso   1.00
H731   H     0.43849   0.33125   0.93788   0.00000  Uiso   1.00
H732   H     0.47935   0.29633   0.91655   0.00000  Uiso   1.00
H733   H     0.59388   0.08344   0.52351   0.00000  Uiso   1.00
H734   H     0.46473   0.32744   0.88548   0.00000  Uiso   1.00
H735   H     0.35000   0.19340   0.71496   0.00000  Uiso   1.00
H736   H     0.65143   0.14026   0.78511   0.00000  Uiso   1.00
H737   H     0.54125   0.00281   0.71612   0.00000  Uiso   1.00
H738   H     0.45740   0.33221   0.78426   0.00000  Uiso   1.00
H739   H     0.47946   0.17047   0.60157   0.00000  Uiso   1.00
H740   H     0.58288   0.10098   0.59452   0.00000  Uiso   1.00
H741   H     0.57164   0.08453   0.96480   0.00000  Uiso   1.00
O742   O     0.50000   0.16667   0.75000   0.00000  Uiso   1.00
O743   O     0.49027   0.12393   0.66625   0.00000  Uiso   1.00
O744   O     0.46020   0.20646   0.83749   0.00000  Uiso   1.00
O745   O     0.54421   0.17493   0.65877   0.00000  Uiso   1.00
O746   O     0.50532   0.16135   0.83749   0.00000  Uiso   1.00
O747   O     0.52734   0.10282   0.92221   0.00000  Uiso   1.00
O748   O     0.51182   0.08101   0.77821   0.00000  Uiso   1.00
O749   O     0.47914   0.26136   0.76767   0.00000  Uiso   1.00
O750   O     0.40785   0.13251   0.73607   0.00000  Uiso   1.00
O751   O     0.60119   0.19179   0.71806   0.00000  Uiso   1.00
O752   O     0.40323   0.18960   0.77820   0.00000  Uiso   1.00
O753   O     0.58773   0.15277   0.76768   0.00000  Uiso   1.00
O754   O     0.47133   0.06903   0.73607   0.00000  Uiso   1.00
O755   O     0.53771   0.25527   0.71806   0.00000  Uiso   1.00
Zn756  Zn    0.52577   0.14090   0.78278   0.00000  Uiso   1.00
Zn757  Zn    0.46792   0.12378   0.72258   0.00000  Uiso   1.00
Zn758  Zn    0.54500   0.19664   0.71188   0.00000  Uiso   1.00
Zn759  Zn    0.46131   0.20535   0.78277   0.00000  Uiso   1.00
C760   C     0.71915   0.15991   0.75872   0.00000  Uiso   1.00
C761   C     0.85634   0.11977   0.96077   0.00000  Uiso   1.00
C762   C     0.88133   0.10555   0.98079   0.00000  Uiso   1.00
C763   C     0.94771   0.17356   0.74122   0.00000  Uiso   1.00
C764   C     0.87542   0.11686   0.52086   0.00000  Uiso   1.00
C765   C     0.84221   0.14171   0.54238   0.00000  Uiso   1.00
C766   C     0.90191   0.10254   0.53983   0.00000  Uiso   1.00
C767   C     0.89584   0.11251   0.58010   0.00000  Uiso   1.00
C768   C     0.83669   0.15119   0.58321   0.00000  Uiso   1.00
C769   C     0.99366   0.17619   0.73764   0.00000  Uiso   1.00
C770   C     0.67378   0.15749   0.76214   0.00000  Uiso   1.00
C771   C     0.76293   0.21217   0.92090   0.00000  Uiso   1.00
C772   C     0.84752   0.32216   0.73816   0.00000  Uiso   1.00
C773   C     0.81818   0.01207   0.76212   0.00000  Uiso   1.00
C774   C     0.82254   0.05611   0.75893   0.00000  Uiso   1.00
C775   C     0.84352   0.27766   0.74137   0.00000  Uiso   1.00
C776   C     0.85481   0.14523   0.64407   0.00000  Uiso   1.00
C777   C     0.81200   0.18761   0.85618   0.00000  Uiso   1.00
C778   C     0.79925   0.19240   0.89941   0.00000  Uiso   1.00
C779   C     0.86308   0.13656   0.60168   0.00000  Uiso   1.00
C780   C     0.74951   0.21344   0.96172   0.00000  Uiso   1.00
C781   C     0.82569   0.07176   0.92012   0.00000  Uiso   1.00
C782   C     0.82189   0.17406   0.91922   0.00000  Uiso   1.00
C783   C     0.83780   0.02845   0.92191   0.00000  Uiso   1.00
C784   C     0.80280   0.32714   0.91501   0.00000  Uiso   1.00
C785   C     0.80670   0.17153   0.96001   0.00000  Uiso   1.00
C786   C     0.77123   0.19356   0.98141   0.00000  Uiso   1.00
C787   C     0.82700   0.14963   0.98034   0.00000  Uiso   1.00
C788   C     0.81671   0.15702   0.52219   0.00000  Uiso   1.00
C789   C     0.78107   0.17918   0.54241   0.00000  Uiso   1.00
C790   C     0.75818   0.19613   0.52227   0.00000  Uiso   1.00
H791   H     0.73087   0.21261   0.53892   0.00000  Uiso   1.00
H792   H     0.72196   0.22976   0.97791   0.00000  Uiso   1.00
H793   H     0.74492   0.22664   0.90620   0.00000  Uiso   1.00
H794   H     0.85212   0.16315   0.90227   0.00000  Uiso   1.00
H795   H     0.76924   0.18324   0.57398   0.00000  Uiso   1.00
H796   H     0.81917   0.07219   0.89133   0.00000  Uiso   1.00
H797   H     0.79500   0.07765   0.94313   0.00000  Uiso   1.00
H798   H     0.86861   0.02323   0.89913   0.00000  Uiso   1.00
H799   H     0.84248   0.02681   0.95123   0.00000  Uiso   1.00
H800   H     0.77182   0.33125   0.93788   0.00000  Uiso   1.00
H801   H     0.81269   0.29633   0.91655   0.00000  Uiso   1.00
H802   H     0.92721   0.08344   0.52351   0.00000  Uiso   1.00
H803   H     0.79806   0.32744   0.88548   0.00000  Uiso   1.00
H804   H     0.68333   0.19340   0.71496   0.00000  Uiso   1.00
H805   H     0.98477   0.14026   0.78511   0.00000  Uiso   1.00
H806   H     0.87459   0.00281   0.71612   0.00000  Uiso   1.00
H807   H     0.79074   0.33221   0.78426   0.00000  Uiso   1.00
H808   H     0.81279   0.17047   0.60157   0.00000  Uiso   1.00
H809   H     0.91621   0.10098   0.59452   0.00000  Uiso   1.00
H810   H     0.90498   0.08453   0.96480   0.00000  Uiso   1.00
O811   O     0.83333   0.16667   0.75000   0.00000  Uiso   1.00
O812   O     0.82360   0.12393   0.66625   0.00000  Uiso   1.00
O813   O     0.79354   0.20646   0.83749   0.00000  Uiso   1.00
O814   O     0.87755   0.17493   0.65877   0.00000  Uiso   1.00
O815   O     0.83865   0.16135   0.83749   0.00000  Uiso   1.00
O816   O     0.86068   0.10282   0.92221   0.00000  Uiso   1.00
O817   O     0.84515   0.08101   0.77821   0.00000  Uiso   1.00
O818   O     0.81247   0.26136   0.76767   0.00000  Uiso   1.00
O819   O     0.74119   0.13251   0.73607   0.00000  Uiso   1.00
O820   O     0.93452   0.19179   0.71806   0.00000  Uiso   1.00
O821   O     0.73656   0.18960   0.77820   0.00000  Uiso   1.00
O822   O     0.92106   0.15277   0.76768   0.00000  Uiso   1.00
O823   O     0.80467   0.06903   0.73607   0.00000  Uiso   1.00
O824   O     0.87104   0.25527   0.71806   0.00000  Uiso   1.00
Zn825  Zn    0.85910   0.14090   0.78278   0.00000  Uiso   1.00
Zn826  Zn    0.80125   0.12378   0.72258   0.00000  Uiso   1.00
Zn827  Zn    0.87833   0.19664   0.71188   0.00000  Uiso   1.00
Zn828  Zn    0.79465   0.20535   0.78277   0.00000  Uiso   1.00
C829   C     0.05248   0.49324   0.75872   0.00000  Uiso   1.00
C830   C     0.18967   0.45310   0.96077   0.00000  Uiso   1.00
C831   C     0.21466   0.43888   0.98079   0.00000  Uiso   1.00
C832   C     0.28104   0.50689   0.74122   0.00000  Uiso   1.00
C833   C     0.20876   0.45020   0.52086   0.00000  Uiso   1.00
C834   C     0.17555   0.47504   0.54238   0.00000  Uiso   1.00
C835   C     0.23524   0.43587   0.53983   0.00000  Uiso   1.00
C836   C     0.22918   0.44584   0.58010   0.00000  Uiso   1.00
C837   C     0.17002   0.48452   0.58321   0.00000  Uiso   1.00
C838   C     0.32700   0.50952   0.73764   0.00000  Uiso   1.00
C839   C     0.00711   0.49083   0.76214   0.00000  Uiso   1.00
C840   C     0.09626   0.54550   0.92090   0.00000  Uiso   1.00
C841   C     0.18085   0.65550   0.73816   0.00000  Uiso   1.00
C842   C     0.15151   0.34540   0.76212   0.00000  Uiso   1.00
C843   C     0.15588   0.38944   0.75893   0.00000  Uiso   1.00
C844   C     0.17685   0.61100   0.74137   0.00000  Uiso   1.00
C845   C     0.18815   0.47857   0.64407   0.00000  Uiso   1.00
C846   C     0.14533   0.52094   0.85618   0.00000  Uiso   1.00
C847   C     0.13259   0.52573   0.89941   0.00000  Uiso   1.00
C848   C     0.19642   0.46990   0.60168   0.00000  Uiso   1.00
C849   C     0.08285   0.54677   0.96172   0.00000  Uiso   1.00
C850   C     0.15903   0.40510   0.92012   0.00000  Uiso   1.00
C851   C     0.15522   0.50740   0.91922   0.00000  Uiso   1.00
C852   C     0.17113   0.36178   0.92191   0.00000  Uiso   1.00
C853   C     0.13613   0.66047   0.91501   0.00000  Uiso   1.00
C854   C     0.14003   0.50486   0.96001   0.00000  Uiso   1.00
C855   C     0.10456   0.52689   0.98141   0.00000  Uiso   1.00
C856   C     0.16034   0.48296   0.98034   0.00000  Uiso   1.00
C857   C     0.15004   0.49035   0.52219   0.00000  Uiso   1.00
C858   C     0.11440   0.51252   0.54241   0.00000  Uiso   1.00
C859   C     0.09151   0.52946   0.52227   0.00000  Uiso   1.00
H860   H     0.06421   0.54594   0.53892   0.00000  Uiso   1.00
H861   H     0.05529   0.56309   0.97791   0.00000  Uiso   1.00
H862   H     0.07826   0.55998   0.90620   0.00000  Uiso   1.00
H863   H     0.18545   0.49649   0.90227   0.00000  Uiso   1.00
H864   H     0.10257   0.51658   0.57398   0.00000  Uiso   1.00
H865   H     0.15251   0.40552   0.89133   0.00000  Uiso   1.00
H866   H     0.12833   0.41098   0.94313   0.00000  Uiso   1.00
H867   H     0.20195   0.35656   0.89913   0.00000  Uiso   1.00
H868   H     0.17581   0.36014   0.95123   0.00000  Uiso   1.00
H869   H     0.10516   0.66458   0.93788   0.00000  Uiso   1.00
H870   H     0.14602   0.62966   0.91655   0.00000  Uiso   1.00
H871   H     0.26054   0.41677   0.52351   0.00000  Uiso   1.00
H872   H     0.13140   0.66077   0.88548   0.00000  Uiso   1.00
H873   H     0.01667   0.52673   0.71496   0.00000  Uiso   1.00
H874   H     0.31810   0.47359   0.78511   0.00000  Uiso   1.00
H875   H     0.20792   0.33614   0.71612   0.00000  Uiso   1.00
H876   H     0.12407   0.66554   0.78426   0.00000  Uiso   1.00
H877   H     0.14613   0.50381   0.60157   0.00000  Uiso   1.00
H878   H     0.24954   0.43431   0.59452   0.00000  Uiso   1.00
H879   H     0.23831   0.41787   0.96480   0.00000  Uiso   1.00
O880   O     0.16667   0.50000   0.75000   0.00000  Uiso   1.00
O881   O     0.15693   0.45726   0.66625   0.00000  Uiso   1.00
O882   O     0.12687   0.53979   0.83749   0.00000  Uiso   1.00
O883   O     0.21088   0.50826   0.65877   0.00000  Uiso   1.00
O884   O     0.17198   0.49468   0.83749   0.00000  Uiso   1.00
O885   O     0.19401   0.43615   0.92221   0.00000  Uiso   1.00
O886   O     0.17849   0.41434   0.77821   0.00000  Uiso   1.00
O887   O     0.14581   0.59469   0.76767   0.00000  Uiso   1.00
O888   O     0.07452   0.46584   0.73607   0.00000  Uiso   1.00
O889   O     0.26785   0.52512   0.71806   0.00000  Uiso   1.00
O890   O     0.06990   0.52293   0.77820   0.00000  Uiso   1.00
O891   O     0.25440   0.48610   0.76768   0.00000  Uiso   1.00
O892   O     0.13800   0.40236   0.73607   0.00000  Uiso   1.00
O893   O     0.20437   0.58860   0.71806   0.00000  Uiso   1.00
Zn894  Zn    0.19244   0.47423   0.78278   0.00000  Uiso   1.00
Zn895  Zn    0.13459   0.45711   0.72258   0.00000  Uiso   1.00
Zn896  Zn    0.21166   0.52997   0.71188   0.00000  Uiso   1.00
Zn897  Zn    0.12798   0.53868   0.78277   0.00000  Uiso   1.00
C898   C     0.38582   0.49324   0.75872   0.00000  Uiso   1.00
C899   C     0.52300   0.45310   0.96077   0.00000  Uiso   1.00
C900   C     0.54800   0.43888   0.98079   0.00000  Uiso   1.00
C901   C     0.61437   0.50689   0.74122   0.00000  Uiso   1.00
C902   C     0.54209   0.45020   0.52086   0.00000  Uiso   1.00
C903   C     0.50888   0.47504   0.54238   0.00000  Uiso   1.00
C904   C     0.56858   0.43587   0.53983   0.00000  Uiso   1.00
C905   C     0.56251   0.44584   0.58010   0.00000  Uiso   1.00
C906   C     0.50336   0.48452   0.58321   0.00000  Uiso   1.00
C907   C     0.66033   0.50952   0.73764   0.00000  Uiso   1.00
C908   C     0.34045   0.49083   0.76214   0.00000  Uiso   1.00
C909   C     0.42960   0.54550   0.92090   0.00000  Uiso   1.00
C910   C     0.51418   0.65550   0.73816   0.00000  Uiso   1.00
C911   C     0.48484   0.34540   0.76212   0.00000  Uiso   1.00
C912   C     0.48921   0.38944   0.75893   0.00000  Uiso   1.00
C913   C     0.51018   0.61100   0.74137   0.00000  Uiso   1.00
C914   C     0.52148   0.47857   0.64407   0.00000  Uiso   1.00
C915   C     0.47866   0.52094   0.85618   0.00000  Uiso   1.00
C916   C     0.46592   0.52573   0.89941   0.00000  Uiso   1.00
C917   C     0.52975   0.46990   0.60168   0.00000  Uiso   1.00
C918   C     0.41618   0.54677   0.96172   0.00000  Uiso   1.00
C919   C     0.49236   0.40510   0.92012   0.00000  Uiso   1.00
C920   C     0.48855   0.50740   0.91922   0.00000  Uiso   1.00
C921   C     0.50447   0.36178   0.92191   0.00000  Uiso   1.00
C922   C     0.46946   0.66047   0.91501   0.00000  Uiso   1.00
C923   C     0.47336   0.50486   0.96001   0.00000  Uiso   1.00
C924   C     0.43790   0.52689   0.98141   0.00000  Uiso   1.00
C925   C     0.49367   0.48296   0.98034   0.00000  Uiso   1.00
C926   C     0.48337   0.49035   0.52219   0.00000  Uiso   1.00
C927   C     0.44773   0.51252   0.54241   0.00000  Uiso   1.00
C928   C     0.42484   0.52946   0.52227   0.00000  Uiso   1.00
H929   H     0.39754   0.54594   0.53892   0.00000  Uiso   1.00
H930   H     0.38862   0.56309   0.97791   0.00000  Uiso   1.00
H931   H     0.41159   0.55998   0.90620   0.00000  Uiso   1.00
H932   H     0.51878   0.49649   0.90227   0.00000  Uiso   1.00
H933   H     0.43590   0.51658   0.57398   0.00000  Uiso   1.00
H934   H     0.48584   0.40552   0.89133   0.00000  Uiso   1.00
H935   H     0.46166   0.41098   0.94313   0.00000  Uiso   1.00
H936   H     0.53528   0.35656   0.89913   0.00000  Uiso   1.00
H937   H     0.50915   0.36014   0.95123   0.00000  Uiso   1.00
H938   H     0.43849   0.66458   0.93788   0.00000  Uiso   1.00
H939   H     0.47935   0.62966   0.91655   0.00000  Uiso   1.00
H940   H     0.59388   0.41677   0.52351   0.00000  Uiso   1.00
H941   H     0.46473   0.66077   0.88548   0.00000  Uiso   1.00
H942   H     0.35000   0.52673   0.71496   0.00000  Uiso   1.00
H943   H     0.65143   0.47359   0.78511   0.00000  Uiso   1.00
H944   H     0.54125   0.33614   0.71612   0.00000  Uiso   1.00
H945   H     0.45740   0.66554   0.78426   0.00000  Uiso   1.00
H946   H     0.47946   0.50381   0.60157   0.00000  Uiso   1.00
H947   H     0.58288   0.43431   0.59452   0.00000  Uiso   1.00
H948   H     0.57164   0.41787   0.96480   0.00000  Uiso   1.00
O949   O     0.50000   0.50000   0.75000   0.00000  Uiso   1.00
O950   O     0.49027   0.45726   0.66625   0.00000  Uiso   1.00
O951   O     0.46020   0.53979   0.83749   0.00000  Uiso   1.00
O952   O     0.54421   0.50826   0.65877   0.00000  Uiso   1.00
O953   O     0.50532   0.49468   0.83749   0.00000  Uiso   1.00
O954   O     0.52734   0.43615   0.92221   0.00000  Uiso   1.00
O955   O     0.51182   0.41434   0.77821   0.00000  Uiso   1.00
O956   O     0.47914   0.59469   0.76767   0.00000  Uiso   1.00
O957   O     0.40785   0.46584   0.73607   0.00000  Uiso   1.00
O958   O     0.60119   0.52512   0.71806   0.00000  Uiso   1.00
O959   O     0.40323   0.52293   0.77820   0.00000  Uiso   1.00
O960   O     0.58773   0.48610   0.76768   0.00000  Uiso   1.00
O961   O     0.47133   0.40236   0.73607   0.00000  Uiso   1.00
O962   O     0.53771   0.58860   0.71806   0.00000  Uiso   1.00
Zn963  Zn    0.52577   0.47423   0.78278   0.00000  Uiso   1.00
Zn964  Zn    0.46792   0.45711   0.72258   0.00000  Uiso   1.00
Zn965  Zn    0.54500   0.52997   0.71188   0.00000  Uiso   1.00
Zn966  Zn    0.46131   0.53868   0.78277   0.00000  Uiso   1.00
C967   C     0.71915   0.49324   0.75872   0.00000  Uiso   1.00
C968   C     0.85634   0.45310   0.96077   0.00000  Uiso   1.00
C969   C     0.88133   0.43888   0.98079   0.00000  Uiso   1.00
C970   C     0.94771   0.50689   0.74122   0.00000  Uiso   1.00
C971   C     0.87542   0.45020   0.52086   0.00000  Uiso   1.00
C972   C     0.84221   0.47504   0.54238   0.00000  Uiso   1.00
C973   C     0.90191   0.43587   0.53983   0.00000  Uiso   1.00
C974   C     0.89584   0.44584   0.58010   0.00000  Uiso   1.00
C975   C     0.83669   0.48452   0.58321   0.00000  Uiso   1.00
C976   C     0.99366   0.50952   0.73764   0.00000  Uiso   1.00
C977   C     0.67378   0.49083   0.76214   0.00000  Uiso   1.00
C978   C     0.76293   0.54550   0.92090   0.00000  Uiso   1.00
C979   C     0.84752   0.65550   0.73816   0.00000  Uiso   1.00
C980   C     0.81818   0.34540   0.76212   0.00000  Uiso   1.00
C981   C     0.82254   0.38944   0.75893   0.00000  Uiso   1.00
C982   C     0.84352   0.61100   0.74137   0.00000  Uiso   1.00
C983   C     0.85481   0.47857   0.64407   0.00000  Uiso   1.00
C984   C     0.81200   0.52094   0.85618   0.00000  Uiso   1.00
C985   C     0.79925   0.52573   0.89941   0.00000  Uiso   1.00
C986   C     0.86308   0.46990   0.60168   0.00000  Uiso   1.00
C987   C     0.74951   0.54677   0.96172   0.00000  Uiso   1.00
C988   C     0.82569   0.40510   0.92012   0.00000  Uiso   1.00
C989   C     0.82189   0.50740   0.91922   0.00000  Uiso   1.00
C990   C     0.83780   0.36178   0.92191   0.00000  Uiso   1.00
C991   C     0.80280   0.66047   0.91501   0.00000  Uiso   1.00
C992   C     0.80670   0.50486   0.96001   0.00000  Uiso   1.00
C993   C     0.77123   0.52689   0.98141   0.00000  Uiso   1.00
C994   C     0.82700   0.48296   0.98034   0.00000  Uiso   1.00
C995   C     0.81671   0.49035   0.52219   0.00000  Uiso   1.00
C996   C     0.78107   0.51252   0.54241   0.00000  Uiso   1.00
C997   C     0.75818   0.52946   0.52227   0.00000  Uiso   1.00
H998   H     0.73087   0.54594   0.53892   0.00000  Uiso   1.00
H999   H     0.72196   0.56309   0.97791   0.00000  Uiso   1.00
H1000  H     0.74492   0.55998   0.90620   0.00000  Uiso   1.00
H1001  H     0.85212   0.49649   0.90227   0.00000  Uiso   1.00
H1002  H     0.76924   0.51658   0.57398   0.00000  Uiso   1.00
H1003  H     0.81917   0.40552   0.89133   0.00000  Uiso   1.00
H1004  H     0.79500   0.41098   0.94313   0.00000  Uiso   1.00
H1005  H     0.86861   0.35656   0.89913   0.00000  Uiso   1.00
H1006  H     0.84248   0.36014   0.95123   0.00000  Uiso   1.00
H1007  H     0.77182   0.66458   0.93788   0.00000  Uiso   1.00
H1008  H     0.81269   0.62966   0.91655   0.00000  Uiso   1.00
H1009  H     0.92721   0.41677   0.52351   0.00000  Uiso   1.00
H1010  H     0.79806   0.66077   0.88548   0.00000  Uiso   1.00
H1011  H     0.68333   0.52673   0.71496   0.00000  Uiso   1.00
H1012  H     0.98477   0.47359   0.78511   0.00000  Uiso   1.00
H1013  H     0.87459   0.33614   0.71612   0.00000  Uiso   1.00
H1014  H     0.79074   0.66554   0.78426   0.00000  Uiso   1.00
H1015  H     0.81279   0.50381   0.60157   0.00000  Uiso   1.00
H1016  H     0.91621   0.43431   0.59452   0.00000  Uiso   1.00
H1017  H     0.90498   0.41787   0.96480   0.00000  Uiso   1.00
O1018  O     0.83333   0.50000   0.75000   0.00000  Uiso   1.00
O1019  O     0.82360   0.45726   0.66625   0.00000  Uiso   1.00
O1020  O     0.79354   0.53979   0.83749   0.00000  Uiso   1.00
O1021  O     0.87755   0.50826   0.65877   0.00000  Uiso   1.00
O1022  O     0.83865   0.49468   0.83749   0.00000  Uiso   1.00
O1023  O     0.86068   0.43615   0.92221   0.00000  Uiso   1.00
O1024  O     0.84515   0.41434   0.77821   0.00000  Uiso   1.00
O1025  O     0.81247   0.59469   0.76767   0.00000  Uiso   1.00
O1026  O     0.74119   0.46584   0.73607   0.00000  Uiso   1.00
O1027  O     0.93452   0.52512   0.71806   0.00000  Uiso   1.00
O1028  O     0.73656   0.52293   0.77820   0.00000  Uiso   1.00
O1029  O     0.92106   0.48610   0.76768   0.00000  Uiso   1.00
O1030  O     0.80467   0.40236   0.73607   0.00000  Uiso   1.00
O1031  O     0.87104   0.58860   0.71806   0.00000  Uiso   1.00
Zn1032 Zn    0.85910   0.47423   0.78278   0.00000  Uiso   1.00
Zn1033 Zn    0.80125   0.45711   0.72258   0.00000  Uiso   1.00
Zn1034 Zn    0.87833   0.52997   0.71188   0.00000  Uiso   1.00
Zn1035 Zn    0.79465   0.53868   0.78277   0.00000  Uiso   1.00
C1036  C     0.05248   0.82658   0.75872   0.00000  Uiso   1.00
C1037  C     0.18967   0.78644   0.96077   0.00000  Uiso   1.00
C1038  C     0.21466   0.77222   0.98079   0.00000  Uiso   1.00
C1039  C     0.28104   0.84022   0.74122   0.00000  Uiso   1.00
C1040  C     0.20876   0.78353   0.52086   0.00000  Uiso   1.00
C1041  C     0.17555   0.80838   0.54238   0.00000  Uiso   1.00
C1042  C     0.23524   0.76920   0.53983   0.00000  Uiso   1.00
C1043  C     0.22918   0.77917   0.58010   0.00000  Uiso   1.00
C1044  C     0.17002   0.81785   0.58321   0.00000  Uiso   1.00
C1045  C     0.32700   0.84286   0.73764   0.00000  Uiso   1.00
C1046  C     0.00711   0.82416   0.76214   0.00000  Uiso   1.00
C1047  C     0.09626   0.87883   0.92090   0.00000  Uiso   1.00
C1048  C     0.18085   0.98883   0.73816   0.00000  Uiso   1.00
C1049  C     0.15151   0.67873   0.76212   0.00000  Uiso   1.00
C1050  C     0.15588   0.72278   0.75893   0.00000  Uiso   1.00
C1051  C     0.17685   0.94433   0.74137   0.00000  Uiso   1.00
C1052  C     0.18815   0.81190   0.64407   0.00000  Uiso   1.00
C1053  C     0.14533   0.85427   0.85618   0.00000  Uiso   1.00
C1054  C     0.13259   0.85907   0.89941   0.00000  Uiso   1.00
C1055  C     0.19642   0.80323   0.60168   0.00000  Uiso   1.00
C1056  C     0.08285   0.88011   0.96172   0.00000  Uiso   1.00
C1057  C     0.15903   0.73843   0.92012   0.00000  Uiso   1.00
C1058  C     0.15522   0.84073   0.91922   0.00000  Uiso   1.00
C1059  C     0.17113   0.69511   0.92191   0.00000  Uiso   1.00
C1060  C     0.13613   0.99381   0.91501   0.00000  Uiso   1.00
C1061  C     0.14003   0.83820   0.96001   0.00000  Uiso   1.00
C1062  C     0.10456   0.86022   0.98141   0.00000  Uiso   1.00
C1063  C     0.16034   0.81629   0.98034   0.00000  Uiso   1.00
C1064  C     0.15004   0.82368   0.52219   0.00000  Uiso   1.00
C1065  C     0.11440   0.84585   0.54241   0.00000  Uiso   1.00
C1066  C     0.09151   0.86280   0.52227   0.00000  Uiso   1.00
H1067  H     0.06421   0.87927   0.53892   0.00000  Uiso   1.00
H1068  H     0.05529   0.89643   0.97791   0.00000  Uiso   1.00
H1069  H     0.07826   0.89331   0.90620   0.00000  Uiso   1.00
H1070  H     0.18545   0.82982   0.90227   0.00000  Uiso   1.00
H1071  H     0.10257   0.84991   0.57398   0.00000  Uiso   1.00
H1072  H     0.15251   0.73886   0.89133   0.00000  Uiso   1.00
H1073  H     0.12833   0.74432   0.94313   0.00000  Uiso   1.00
H1074  H     0.20195   0.68990   0.89913   0.00000  Uiso   1.00
H1075  H     0.17581   0.69347   0.95123   0.00000  Uiso   1.00
H1076  H     0.10516   0.99791   0.93788   0.00000  Uiso   1.00
H1077  H     0.14602   0.96299   0.91655   0.00000  Uiso   1.00
H1078  H     0.26054   0.75010   0.52351   0.00000  Uiso   1.00
H1079  H     0.13140   0.99410   0.88548   0.00000  Uiso   1.00
H1080  H     0.01667   0.86007   0.71496   0.00000  Uiso   1.00
H1081  H     0.31810   0.80693   0.78511   0.00000  Uiso   1.00
H1082  H     0.20792   0.66947   0.71612   0.00000  Uiso   1.00
H1083  H     0.12407   0.99888   0.78426   0.00000  Uiso   1.00
H1084  H     0.14613   0.83714   0.60157   0.00000  Uiso   1.00
H1085  H     0.24954   0.76765   0.59452   0.00000  Uiso   1.00
H1086  H     0.23831   0.75120   0.96480   0.00000  Uiso   1.00
O1087  O     0.16667   0.83333   0.75000   0.00000  Uiso   1.00
O1088  O     0.15693   0.79060   0.66625   0.00000  Uiso   1.00
O1089  O     0.12687   0.87313   0.83749   0.00000  Uiso   1.00
O1090  O     0.21088   0.84159   0.65877   0.00000  Uiso   1.00
O1091  O     0.17198   0.82802   0.83749   0.00000  Uiso   1.00
O1092  O     0.19401   0.76948   0.92221   0.00000  Uiso   1.00
O1093  O     0.17849   0.74768   0.77821   0.00000  Uiso   1.00
O1094  O     0.14581   0.92803   0.76767   0.00000  Uiso   1.00
O1095  O     0.07452   0.79917   0.73607   0.00000  Uiso   1.00
O1096  O     0.26785   0.85845   0.71806   0.00000  Uiso   1.00
O1097  O     0.06990   0.85627   0.77820   0.00000  Uiso   1.00
O1098  O     0.25440   0.81944   0.76768   0.00000  Uiso   1.00
O1099  O     0.13800   0.73570   0.73607   0.00000  Uiso   1.00
O1100  O     0.20437   0.92193   0.71806   0.00000  Uiso   1.00
Zn1101 Zn    0.19244   0.80756   0.78278   0.00000  Uiso   1.00
Zn1102 Zn    0.13459   0.79044   0.72258   0.00000  Uiso   1.00
Zn1103 Zn    0.21166   0.86331   0.71188   0.00000  Uiso   1.00
Zn1104 Zn    0.12798   0.87202   0.78277   0.00000  Uiso   1.00
C1105  C     0.38582   0.82658   0.75872   0.00000  Uiso   1.00
C1106  C     0.52300   0.78644   0.96077   0.00000  Uiso   1.00
C1107  C     0.54800   0.77222   0.98079   0.00000  Uiso   1.00
C1108  C     0.61437   0.84022   0.74122   0.00000  Uiso   1.00
C1109  C     0.54209   0.78353   0.52086   0.00000  Uiso   1.00
C1110  C     0.50888   0.80838   0.54238   0.00000  Uiso   1.00
C1111  C     0.56858   0.76920   0.53983   0.00000  Uiso   1.00
C1112  C     0.56251   0.77917   0.58010   0.00000  Uiso   1.00
C1113  C     0.50336   0.81785   0.58321   0.00000  Uiso   1.00
C1114  C     0.66033   0.84286   0.73764   0.00000  Uiso   1.00
C1115  C     0.34045   0.82416   0.76214   0.00000  Uiso   1.00
C1116  C     0.42960   0.87883   0.92090   0.00000  Uiso   1.00
C1117  C     0.51418   0.98883   0.73816   0.00000  Uiso   1.00
C1118  C     0.48484   0.67873   0.76212   0.00000  Uiso   1.00
C1119  C     0.48921   0.72278   0.75893   0.00000  Uiso   1.00
C1120  C     0.51018   0.94433   0.74137   0.00000  Uiso   1.00
C1121  C     0.52148   0.81190   0.64407   0.00000  Uiso   1.00
C1122  C     0.47866   0.85427   0.85618   0.00000  Uiso   1.00
C1123  C     0.46592   0.85907   0.89941   0.00000  Uiso   1.00
C1124  C     0.52975   0.80323   0.60168   0.00000  Uiso   1.00
C1125  C     0.41618   0.88011   0.96172   0.00000  Uiso   1.00
C1126  C     0.49236   0.73843   0.92012   0.00000  Uiso   1.00
C1127  C     0.48855   0.84073   0.91922   0.00000  Uiso   1.00
C1128  C     0.50447   0.69511   0.92191   0.00000  Uiso   1.00
C1129  C     0.46946   0.99381   0.91501   0.00000  Uiso   1.00
C1130  C     0.47336   0.83820   0.96001   0.00000  Uiso   1.00
C1131  C     0.43790   0.86022   0.98141   0.00000  Uiso   1.00
C1132  C     0.49367   0.81629   0.98034   0.00000  Uiso   1.00
C1133  C     0.48337   0.82368   0.52219   0.00000  Uiso   1.00
C1134  C     0.44773   0.84585   0.54241   0.00000  Uiso   1.00
C1135  C     0.42484   0.86280   0.52227   0.00000  Uiso   1.00
H1136  H     0.39754   0.87927   0.53892   0.00000  Uiso   1.00
H1137  H     0.38862   0.89643   0.97791   0.00000  Uiso   1.00
H1138  H     0.41159   0.89331   0.90620   0.00000  Uiso   1.00
H1139  H     0.51878   0.82982   0.90227   0.00000  Uiso   1.00
H1140  H     0.43590   0.84991   0.57398   0.00000  Uiso   1.00
H1141  H     0.48584   0.73886   0.89133   0.00000  Uiso   1.00
H1142  H     0.46166   0.74432   0.94313   0.00000  Uiso   1.00
H1143  H     0.53528   0.68990   0.89913   0.00000  Uiso   1.00
H1144  H     0.50915   0.69347   0.95123   0.00000  Uiso   1.00
H1145  H     0.43849   0.99791   0.93788   0.00000  Uiso   1.00
H1146  H     0.47935   0.96299   0.91655   0.00000  Uiso   1.00
H1147  H     0.59388   0.75010   0.52351   0.00000  Uiso   1.00
H1148  H     0.46473   0.99410   0.88548   0.00000  Uiso   1.00
H1149  H     0.35000   0.86007   0.71496   0.00000  Uiso   1.00
H1150  H     0.65143   0.80693   0.78511   0.00000  Uiso   1.00
H1151  H     0.54125   0.66947   0.71612   0.00000  Uiso   1.00
H1152  H     0.45740   0.99888   0.78426   0.00000  Uiso   1.00
H1153  H     0.47946   0.83714   0.60157   0.00000  Uiso   1.00
H1154  H     0.58288   0.76765   0.59452   0.00000  Uiso   1.00
H1155  H     0.57164   0.75120   0.96480   0.00000  Uiso   1.00
O1156  O     0.50000   0.83333   0.75000   0.00000  Uiso   1.00
O1157  O     0.49027   0.79060   0.66625   0.00000  Uiso   1.00
O1158  O     0.46020   0.87313   0.83749   0.00000  Uiso   1.00
O1159  O     0.54421   0.84159   0.65877   0.00000  Uiso   1.00
O1160  O     0.50532   0.82802   0.83749   0.00000  Uiso   1.00
O1161  O     0.52734   0.76948   0.92221   0.00000  Uiso   1.00
O1162  O     0.51182   0.74768   0.77821   0.00000  Uiso   1.00
O1163  O     0.47914   0.92803   0.76767   0.00000  Uiso   1.00
O1164  O     0.40785   0.79917   0.73607   0.00000  Uiso   1.00
O1165  O     0.60119   0.85845   0.71806   0.00000  Uiso   1.00
O1166  O     0.40323   0.85627   0.77820   0.00000  Uiso   1.00
O1167  O     0.58773   0.81944   0.76768   0.00000  Uiso   1.00
O1168  O     0.47133   0.73570   0.73607   0.00000  Uiso   1.00
O1169  O     0.53771   0.92193   0.71806   0.00000  Uiso   1.00
Zn1170 Zn    0.52577   0.80756   0.78278   0.00000  Uiso   1.00
Zn1171 Zn    0.46792   0.79044   0.72258   0.00000  Uiso   1.00
Zn1172 Zn    0.54500   0.86331   0.71188   0.00000  Uiso   1.00
Zn1173 Zn    0.46131   0.87202   0.78277   0.00000  Uiso   1.00
C1174  C     0.71915   0.82658   0.75872   0.00000  Uiso   1.00
C1175  C     0.85634   0.78644   0.96077   0.00000  Uiso   1.00
C1176  C     0.88133   0.77222   0.98079   0.00000  Uiso   1.00
C1177  C     0.94771   0.84022   0.74122   0.00000  Uiso   1.00
C1178  C     0.87542   0.78353   0.52086   0.00000  Uiso   1.00
C1179  C     0.84221   0.80838   0.54238   0.00000  Uiso   1.00
C1180  C     0.90191   0.76920   0.53983   0.00000  Uiso   1.00
C1181  C     0.89584   0.77917   0.58010   0.00000  Uiso   1.00
C1182  C     0.83669   0.81785   0.58321   0.00000  Uiso   1.00
C1183  C     0.99366   0.84286   0.73764   0.00000  Uiso   1.00
C1184  C     0.67378   0.82416   0.76214   0.00000  Uiso   1.00
C1185  C     0.76293   0.87883   0.92090   0.00000  Uiso   1.00
C1186  C     0.84752   0.98883   0.73816   0.00000  Uiso   1.00
C1187  C     0.81818   0.67873   0.76212   0.00000  Uiso   1.00
C1188  C     0.82254   0.72278   0.75893   0.00000  Uiso   1.00
C1189  C     0.84352   0.94433   0.74137   0.00000  Uiso   1.00
C1190  C     0.85481   0.81190   0.64407   0.00000  Uiso   1.00
C1191  C     0.81200   0.85427   0.85618   0.00000  Uiso   1.00
C1192  C     0.79925   0.85907   0.89941   0.00000  Uiso   1.00
C1193  C     0.86308   0.80323   0.60168   0.00000  Uiso   1.00
C1194  C     0.74951   0.88011   0.96172   0.00000  Uiso   1.00
C1195  C     0.82569   0.73843   0.92012   0.00000  Uiso   1.00
C1196  C     0.82189   0.84073   0.91922   0.00000  Uiso   1.00
C1197  C     0.83780   0.69511   0.92191   0.00000  Uiso   1.00
C1198  C     0.80280   0.99381   0.91501   0.00000  Uiso   1.00
C1199  C     0.80670   0.83820   0.96001   0.00000  Uiso   1.00
C1200  C     0.77123   0.86022   0.98141   0.00000  Uiso   1.00
C1201  C     0.82700   0.81629   0.98034   0.00000  Uiso   1.00
C1202  C     0.81671   0.82368   0.52219   0.00000  Uiso   1.00
C1203  C     0.78107   0.84585   0.54241   0.00000  Uiso   1.00
C1204  C     0.75818   0.86280   0.52227   0.00000  Uiso   1.00
H1205  H     0.73087   0.87927   0.53892   0.00000  Uiso   1.00
H1206  H     0.72196   0.89643   0.97791   0.00000  Uiso   1.00
H1207  H     0.74492   0.89331   0.90620   0.00000  Uiso   1.00
H1208  H     0.85212   0.82982   0.90227   0.00000  Uiso   1.00
H1209  H     0.76924   0.84991   0.57398   0.00000  Uiso   1.00
H1210  H     0.81917   0.73886   0.89133   0.00000  Uiso   1.00
H1211  H     0.79500   0.74432   0.94313   0.00000  Uiso   1.00
H1212  H     0.86861   0.68990   0.89913   0.00000  Uiso   1.00
H1213  H     0.84248   0.69347   0.95123   0.00000  Uiso   1.00
H1214  H     0.77182   0.99791   0.93788   0.00000  Uiso   1.00
H1215  H     0.81269   0.96299   0.91655   0.00000  Uiso   1.00
H1216  H     0.92721   0.75010   0.52351   0.00000  Uiso   1.00
H1217  H     0.79806   0.99410   0.88548   0.00000  Uiso   1.00
H1218  H     0.68333   0.86007   0.71496   0.00000  Uiso   1.00
H1219  H     0.98477   0.80693   0.78511   0.00000  Uiso   1.00
H1220  H     0.87459   0.66947   0.71612   0.00000  Uiso   1.00
H1221  H     0.79074   0.99888   0.78426   0.00000  Uiso   1.00
H1222  H     0.81279   0.83714   0.60157   0.00000  Uiso   1.00
H1223  H     0.91621   0.76765   0.59452   0.00000  Uiso   1.00
H1224  H     0.90498   0.75120   0.96480   0.00000  Uiso   1.00
O1225  O     0.83333   0.83333   0.75000   0.00000  Uiso   1.00
O1226  O     0.82360   0.79060   0.66625   0.00000  Uiso   1.00
O1227  O     0.79354   0.87313   0.83749   0.00000  Uiso   1.00
O1228  O     0.87755   0.84159   0.65877   0.00000  Uiso   1.00
O1229  O     0.83865   0.82802   0.83749   0.00000  Uiso   1.00
O1230  O     0.86068   0.76948   0.92221   0.00000  Uiso   1.00
O1231  O     0.84515   0.74768   0.77821   0.00000  Uiso   1.00
O1232  O     0.81247   0.92803   0.76767   0.00000  Uiso   1.00
O1233  O     0.74119   0.79917   0.73607   0.00000  Uiso   1.00
O1234  O     0.93452   0.85845   0.71806   0.00000  Uiso   1.00
O1235  O     0.73656   0.85627   0.77820   0.00000  Uiso   1.00
O1236  O     0.92106   0.81944   0.76768   0.00000  Uiso   1.00
O1237  O     0.80467   0.73570   0.73607   0.00000  Uiso   1.00
O1238  O     0.87104   0.92193   0.71806   0.00000  Uiso   1.00
Zn1239 Zn    0.85910   0.80756   0.78278   0.00000  Uiso   1.00
Zn1240 Zn    0.80125   0.79044   0.72258   0.00000  Uiso   1.00
Zn1241 Zn    0.87833   0.86331   0.71188   0.00000  Uiso   1.00
Zn1242 Zn    0.79465   0.87202   0.78277   0.00000  Uiso   1.00
loop_
_geom_bond_atom_site_label_1
_geom_bond_atom_site_label_2
_geom_bond_distance
_geom_bond_site_symmetry_2
_ccdc_geom_bond_type
C1     O62     1.269   .     A
C1     O60     1.269   .     A
C1     C11     1.438   .     S
C2     C3      1.390   .     A
C2     C28     1.428   .     A
C2     O57     1.384   .     S
C3     H51     1.085   .     S
C3     C626    1.390   .     S
C4     O61     1.282   .     A
C4     O63     1.278   .     A
C4     C10     1.455   .     S
C5     C6      1.419   .     A
C5     C7      1.404   .     A
C5     C624    1.390   1_554 S
C6     C9      1.411   .     A
C6     C29     1.425   .     A
C7     H43     1.084   .     S
C7     C8      1.391   .     A
C8     C20     1.394   .     A
C8     H50     1.083   .     S
C9     C20     1.393   .     A
C9     H49     1.077   .     S
C10    C80     1.335   .     S
C10    H114    1.088   .     S
C11    C148    1.335   1_455 S
C11    H184    1.086   1_455 S
C12    C19     1.400   .     A
C12    H34     1.083   .     S
C12    C21     1.392   .     A
C13    C16     1.451   .     S
C13    C221    1.331   .     S
C13    H254    1.088   .     S
C14    C15     1.435   .     S
C14    C427    1.331   1_545 S
C14    H462    1.086   1_545 S
C15    O64     1.276   .     A
C15    O58     1.276   .     A
C16    O65     1.271   .     A
C16    O59     1.272   .     A
C17    O53     1.273   .     A
C17    O55     1.274   .     A
C17    C20     1.452   .     S
C18    O56     1.284   .     A
C18    O54     1.282   .     A
C18    C19     1.470   .     S
C19    C23     1.398   .     A
C21    C27     1.403   .     A
C21    H33     1.084   .     S
C22    O57     1.417   .     S
C22    C24     1.532   .     S
C22    H38     1.117   .     S
C22    H37     1.111   .     S
C23    H35     1.077   .     S
C23    C26     1.407   .     A
C24    H39     1.112   .     S
C24    H40     1.111   .     S
C24    C439    1.526   1_545 S
C25    H42     1.110   .     S
C25    H44     1.111   .     S
C25    H41     1.111   .     S
C25    C231    1.526   .     S
C26    C28     1.428   .     A
C26    C27     1.418   .     A
C27    C652    1.391   .     S
C28    C650    1.427   .     S
C29    C30     1.415   .     A
C29    C649    1.427   1_554 S
C30    H36     1.076   .     S
C30    C31     1.387   .     A
C31    H32     1.084   .     S
C31    C648    1.391   1_554 S
H45    C148    1.088   1_455 S
H46    C80     1.086   .     S
H47    C427    1.088   1_545 S
H48    C221    1.086   .     S
O52    Zn69    1.933   .     S
O52    Zn68    1.936   .     S
O52    Zn66    1.959   .     S
O52    Zn67    1.940   .     S
O53    Zn67    1.932   .     S
O54    Zn69    1.940   .     S
O55    Zn68    1.934   .     S
O56    Zn66    1.927   .     S
O58    Zn66    1.926   .     S
O59    Zn69    1.930   .     S
O60    Zn67    1.929   .     S
O61    Zn68    1.937   .     S
O62    Zn69    1.932   .     S
O63    Zn66    1.926   .     S
O64    Zn67    1.936   .     S
O65    Zn68    1.929   .     S
C70    O131    1.269   .     A
C70    O129    1.269   .     A
C70    C80     1.438   .     S
C71    C72     1.390   .     A
C71    C97     1.428   .     A
C71    O126    1.384   .     S
C72    H120    1.085   .     S
C72    C695    1.390   .     S
C73    O130    1.282   .     A
C73    O132    1.278   .     A
C73    C79     1.455   .     S
C74    C75     1.419   .     A
C74    C76     1.404   .     A
C74    C693    1.390   1_554 S
C75    C78     1.411   .     A
C75    C98     1.425   .     A
C76    H112    1.084   .     S
C76    C77     1.391   .     A
C77    C89     1.394   .     A
C77    H119    1.083   .     S
C78    C89     1.393   .     A
C78    H118    1.077   .     S
C79    C149    1.335   .     S
C79    H183    1.088   .     S
C81    C88     1.400   .     A
C81    H103    1.083   .     S
C81    C90     1.392   .     A
C82    C85     1.451   .     S
C82    C290    1.331   .     S
C82    H323    1.088   .     S
C83    C84     1.435   .     S
C83    C496    1.331   1_545 S
C83    H531    1.086   1_545 S
C84    O133    1.276   .     A
C84    O127    1.276   .     A
C85    O134    1.271   .     A
C85    O128    1.272   .     A
C86    O122    1.273   .     A
C86    O124    1.274   .     A
C86    C89     1.452   .     S
C87    O125    1.284   .     A
C87    O123    1.282   .     A
C87    C88     1.470   .     S
C88    C92     1.398   .     A
C90    C96     1.403   .     A
C90    H102    1.084   .     S
C91    O126    1.417   .     S
C91    C93     1.532   .     S
C91    H107    1.117   .     S
C91    H106    1.111   .     S
C92    H104    1.077   .     S
C92    C95     1.407   .     A
C93    H108    1.112   .     S
C93    H109    1.111   .     S
C93    C508    1.526   1_545 S
C94    H111    1.110   .     S
C94    H113    1.111   .     S
C94    H110    1.111   .     S
C94    C300    1.526   .     S
C95    C97     1.428   .     A
C95    C96     1.418   .     A
C96    C721    1.391   .     S
C97    C719    1.427   .     S
C98    C99     1.415   .     A
C98    C718    1.427   1_554 S
C99    H105    1.076   .     S
C99    C100    1.387   .     A
C100   H101    1.084   .     S
C100   C717    1.391   1_554 S
H115   C149    1.086   .     S
H116   C496    1.088   1_545 S
H117   C290    1.086   .     S
O121   Zn138   1.933   .     S
O121   Zn137   1.936   .     S
O121   Zn135   1.959   .     S
O121   Zn136   1.940   .     S
O122   Zn136   1.932   .     S
O123   Zn138   1.940   .     S
O124   Zn137   1.934   .     S
O125   Zn135   1.927   .     S
O127   Zn135   1.926   .     S
O128   Zn138   1.930   .     S
O129   Zn136   1.929   .     S
O130   Zn137   1.937   .     S
O131   Zn138   1.932   .     S
O132   Zn135   1.926   .     S
O133   Zn136   1.936   .     S
O134   Zn137   1.929   .     S
C139   O200    1.269   .     A
C139   O198    1.269   .     A
C139   C149    1.438   .     S
C140   C141    1.390   .     A
C140   C166    1.428   .     A
C140   O195    1.384   .     S
C141   H189    1.085   .     S
C141   C764    1.390   .     S
C142   O199    1.282   .     A
C142   O201    1.278   .     A
C142   C148    1.455   .     S
C143   C144    1.419   .     A
C143   C145    1.404   .     A
C143   C762    1.390   1_554 S
C144   C147    1.411   .     A
C144   C167    1.425   .     A
C145   H181    1.084   .     S
C145   C146    1.391   .     A
C146   C158    1.394   .     A
C146   H188    1.083   .     S
C147   C158    1.393   .     A
C147   H187    1.077   .     S
C148   C11     1.335   1_655 S
C148   H45     1.088   1_655 S
C150   C157    1.400   .     A
C150   H172    1.083   .     S
C150   C159    1.392   .     A
C151   C154    1.451   .     S
C151   C359    1.331   .     S
C151   H392    1.088   .     S
C152   C153    1.435   .     S
C152   C565    1.331   1_545 S
C152   H600    1.086   1_545 S
C153   O202    1.276   .     A
C153   O196    1.276   .     A
C154   O203    1.271   .     A
C154   O197    1.272   .     A
C155   O191    1.273   .     A
C155   O193    1.274   .     A
C155   C158    1.452   .     S
C156   O194    1.284   .     A
C156   O192    1.282   .     A
C156   C157    1.470   .     S
C157   C161    1.398   .     A
C159   C165    1.403   .     A
C159   H171    1.084   .     S
C160   O195    1.417   .     S
C160   C162    1.532   .     S
C160   H176    1.117   .     S
C160   H175    1.111   .     S
C161   H173    1.077   .     S
C161   C164    1.407   .     A
C162   H177    1.112   .     S
C162   H178    1.111   .     S
C162   C577    1.526   1_545 S
C163   H180    1.110   .     S
C163   H182    1.111   .     S
C163   H179    1.111   .     S
C163   C369    1.526   .     S
C164   C166    1.428   .     A
C164   C165    1.418   .     A
C165   C790    1.391   .     S
C166   C788    1.427   .     S
C167   C168    1.415   .     A
C167   C787    1.427   1_554 S
C168   H174    1.076   .     S
C168   C169    1.387   .     A
C169   H170    1.084   .     S
C169   C786    1.391   1_554 S
H184   C11     1.086   1_655 S
H185   C565    1.088   1_545 S
H186   C359    1.086   .     S
O190   Zn207   1.933   .     S
O190   Zn206   1.936   .     S
O190   Zn204   1.959   .     S
O190   Zn205   1.940   .     S
O191   Zn205   1.932   .     S
O192   Zn207   1.940   .     S
O193   Zn206   1.934   .     S
O194   Zn204   1.927   .     S
O196   Zn204   1.926   .     S
O197   Zn207   1.930   .     S
O198   Zn205   1.929   .     S
O199   Zn206   1.937   .     S
O200   Zn207   1.932   .     S
O201   Zn204   1.926   .     S
O202   Zn205   1.936   .     S
O203   Zn206   1.929   .     S
C208   O269    1.269   .     A
C208   O267    1.269   .     A
C208   C218    1.438   .     S
C209   C210    1.390   .     A
C209   C235    1.428   .     A
C209   O264    1.384   .     S
C210   H258    1.085   .     S
C210   C833    1.390   .     S
C211   O268    1.282   .     A
C211   O270    1.278   .     A
C211   C217    1.455   .     S
C212   C213    1.419   .     A
C212   C214    1.404   .     A
C212   C831    1.390   1_554 S
C213   C216    1.411   .     A
C213   C236    1.425   .     A
C214   H250    1.084   .     S
C214   C215    1.391   .     A
C215   C227    1.394   .     A
C215   H257    1.083   .     S
C216   C227    1.393   .     A
C216   H256    1.077   .     S
C217   C287    1.335   .     S
C217   H321    1.088   .     S
C218   C355    1.335   1_455 S
C218   H391    1.086   1_455 S
C219   C226    1.400   .     A
C219   H241    1.083   .     S
C219   C228    1.392   .     A
C220   C223    1.451   .     S
C220   C428    1.331   .     S
C220   H461    1.088   .     S
C221   C222    1.435   .     S
C222   O271    1.276   .     A
C222   O265    1.276   .     A
C223   O272    1.271   .     A
C223   O266    1.272   .     A
C224   O260    1.273   .     A
C224   O262    1.274   .     A
C224   C227    1.452   .     S
C225   O263    1.284   .     A
C225   O261    1.282   .     A
C225   C226    1.470   .     S
C226   C230    1.398   .     A
C228   C234    1.403   .     A
C228   H240    1.084   .     S
C229   O264    1.417   .     S
C229   C231    1.532   .     S
C229   H245    1.117   .     S
C229   H244    1.111   .     S
C230   H242    1.077   .     S
C230   C233    1.407   .     A
C231   H246    1.112   .     S
C231   H247    1.111   .     S
C232   H249    1.110   .     S
C232   H251    1.111   .     S
C232   H248    1.111   .     S
C232   C438    1.526   .     S
C233   C235    1.428   .     A
C233   C234    1.418   .     A
C234   C859    1.391   .     S
C235   C857    1.427   .     S
C236   C237    1.415   .     A
C236   C856    1.427   1_554 S
C237   H243    1.076   .     S
C237   C238    1.387   .     A
C238   H239    1.084   .     S
C238   C855    1.391   1_554 S
H252   C355    1.088   1_455 S
H253   C287    1.086   .     S
H255   C428    1.086   .     S
O259   Zn276   1.933   .     S
O259   Zn275   1.936   .     S
O259   Zn273   1.959   .     S
O259   Zn274   1.940   .     S
O260   Zn274   1.932   .     S
O261   Zn276   1.940   .     S
O262   Zn275   1.934   .     S
O263   Zn273   1.927   .     S
O265   Zn273   1.926   .     S
O266   Zn276   1.930   .     S
O267   Zn274   1.929   .     S
O268   Zn275   1.937   .     S
O269   Zn276   1.932   .     S
O270   Zn273   1.926   .     S
O271   Zn274   1.936   .     S
O272   Zn275   1.929   .     S
C277   O338    1.269   .     A
C277   O336    1.269   .     A
C277   C287    1.438   .     S
C278   C279    1.390   .     A
C278   C304    1.428   .     A
C278   O333    1.384   .     S
C279   H327    1.085   .     S
C279   C902    1.390   .     S
C280   O337    1.282   .     A
C280   O339    1.278   .     A
C280   C286    1.455   .     S
C281   C282    1.419   .     A
C281   C283    1.404   .     A
C281   C900    1.390   1_554 S
C282   C285    1.411   .     A
C282   C305    1.425   .     A
C283   H319    1.084   .     S
C283   C284    1.391   .     A
C284   C296    1.394   .     A
C284   H326    1.083   .     S
C285   C296    1.393   .     A
C285   H325    1.077   .     S
C286   C356    1.335   .     S
C286   H390    1.088   .     S
C288   C295    1.400   .     A
C288   H310    1.083   .     S
C288   C297    1.392   .     A
C289   C292    1.451   .     S
C289   C497    1.331   .     S
C289   H530    1.088   .     S
C290   C291    1.435   .     S
C291   O340    1.276   .     A
C291   O334    1.276   .     A
C292   O341    1.271   .     A
C292   O335    1.272   .     A
C293   O329    1.273   .     A
C293   O331    1.274   .     A
C293   C296    1.452   .     S
C294   O332    1.284   .     A
C294   O330    1.282   .     A
C294   C295    1.470   .     S
C295   C299    1.398   .     A
C297   C303    1.403   .     A
C297   H309    1.084   .     S
C298   O333    1.417   .     S
C298   C300    1.532   .     S
C298   H314    1.117   .     S
C298   H313    1.111   .     S
C299   H311    1.077   .     S
C299   C302    1.407   .     A
C300   H315    1.112   .     S
C300   H316    1.111   .     S
C301   H318    1.110   .     S
C301   H320    1.111   .     S
C301   H317    1.111   .     S
C301   C507    1.526   .     S
C302   C304    1.428   .     A
C302   C303    1.418   .     A
C303   C928    1.391   .     S
C304   C926    1.427   .     S
C305   C306    1.415   .     A
C305   C925    1.427   1_554 S
C306   H312    1.076   .     S
C306   C307    1.387   .     A
C307   H308    1.084   .     S
C307   C924    1.391   1_554 S
H322   C356    1.086   .     S
H324   C497    1.086   .     S
O328   Zn345   1.933   .     S
O328   Zn344   1.936   .     S
O328   Zn342   1.959   .     S
O328   Zn343   1.940   .     S
O329   Zn343   1.932   .     S
O330   Zn345   1.940   .     S
O331   Zn344   1.934   .     S
O332   Zn342   1.927   .     S
O334   Zn342   1.926   .     S
O335   Zn345   1.930   .     S
O336   Zn343   1.929   .     S
O337   Zn344   1.937   .     S
O338   Zn345   1.932   .     S
O339   Zn342   1.926   .     S
O340   Zn343   1.936   .     S
O341   Zn344   1.929   .     S
C346   O407    1.269   .     A
C346   O405    1.269   .     A
C346   C356    1.438   .     S
C347   C348    1.390   .     A
C347   C373    1.428   .     A
C347   O402    1.384   .     S
C348   H396    1.085   .     S
C348   C971    1.390   .     S
C349   O406    1.282   .     A
C349   O408    1.278   .     A
C349   C355    1.455   .     S
C350   C351    1.419   .     A
C350   C352    1.404   .     A
C350   C969    1.390   1_554 S
C351   C354    1.411   .     A
C351   C374    1.425   .     A
C352   H388    1.084   .     S
C352   C353    1.391   .     A
C353   C365    1.394   .     A
C353   H395    1.083   .     S
C354   C365    1.393   .     A
C354   H394    1.077   .     S
C355   C218    1.335   1_655 S
C355   H252    1.088   1_655 S
C357   C364    1.400   .     A
C357   H379    1.083   .     S
C357   C366    1.392   .     A
C358   C361    1.451   .     S
C358   C566    1.331   .     S
C358   H599    1.088   .     S
C359   C360    1.435   .     S
C360   O409    1.276   .     A
C360   O403    1.276   .     A
C361   O410    1.271   .     A
C361   O404    1.272   .     A
C362   O398    1.273   .     A
C362   O400    1.274   .     A
C362   C365    1.452   .     S
C363   O401    1.284   .     A
C363   O399    1.282   .     A
C363   C364    1.470   .     S
C364   C368    1.398   .     A
C366   C372    1.403   .     A
C366   H378    1.084   .     S
C367   O402    1.417   .     S
C367   C369    1.532   .     S
C367   H383    1.117   .     S
C367   H382    1.111   .     S
C368   H380    1.077   .     S
C368   C371    1.407   .     A
C369   H384    1.112   .     S
C369   H385    1.111   .     S
C370   H387    1.110   .     S
C370   H389    1.111   .     S
C370   H386    1.111   .     S
C370   C576    1.526   .     S
C371   C373    1.428   .     A
C371   C372    1.418   .     A
C372   C997    1.391   .     S
C373   C995    1.427   .     S
C374   C375    1.415   .     A
C374   C994    1.427   1_554 S
C375   H381    1.076   .     S
C375   C376    1.387   .     A
C376   H377    1.084   .     S
C376   C993    1.391   1_554 S
H391   C218    1.086   1_655 S
H393   C566    1.086   .     S
O397   Zn414   1.933   .     S
O397   Zn413   1.936   .     S
O397   Zn411   1.959   .     S
O397   Zn412   1.940   .     S
O398   Zn412   1.932   .     S
O399   Zn414   1.940   .     S
O400   Zn413   1.934   .     S
O401   Zn411   1.927   .     S
O403   Zn411   1.926   .     S
O404   Zn414   1.930   .     S
O405   Zn412   1.929   .     S
O406   Zn413   1.937   .     S
O407   Zn414   1.932   .     S
O408   Zn411   1.926   .     S
O409   Zn412   1.936   .     S
O410   Zn413   1.929   .     S
C415   O476    1.269   .     A
C415   O474    1.269   .     A
C415   C425    1.438   .     S
C416   C417    1.390   .     A
C416   C442    1.428   .     A
C416   O471    1.384   .     S
C417   H465    1.085   .     S
C417   C1040   1.390   .     S
C418   O475    1.282   .     A
C418   O477    1.278   .     A
C418   C424    1.455   .     S
C419   C420    1.419   .     A
C419   C421    1.404   .     A
C419   C1038   1.390   1_554 S
C420   C423    1.411   .     A
C420   C443    1.425   .     A
C421   H457    1.084   .     S
C421   C422    1.391   .     A
C422   C434    1.394   .     A
C422   H464    1.083   .     S
C423   C434    1.393   .     A
C423   H463    1.077   .     S
C424   C494    1.335   .     S
C424   H528    1.088   .     S
C425   C562    1.335   1_455 S
C425   H598    1.086   1_455 S
C426   C433    1.400   .     A
C426   H448    1.083   .     S
C426   C435    1.392   .     A
C427   C430    1.451   .     S
C427   C14     1.331   1_565 S
C427   H47     1.088   1_565 S
C428   C429    1.435   .     S
C429   O478    1.276   .     A
C429   O472    1.276   .     A
C430   O479    1.271   .     A
C430   O473    1.272   .     A
C431   O467    1.273   .     A
C431   O469    1.274   .     A
C431   C434    1.452   .     S
C432   O470    1.284   .     A
C432   O468    1.282   .     A
C432   C433    1.470   .     S
C433   C437    1.398   .     A
C435   C441    1.403   .     A
C435   H447    1.084   .     S
C436   O471    1.417   .     S
C436   C438    1.532   .     S
C436   H452    1.117   .     S
C436   H451    1.111   .     S
C437   H449    1.077   .     S
C437   C440    1.407   .     A
C438   H453    1.112   .     S
C438   H454    1.111   .     S
C439   H456    1.110   .     S
C439   H458    1.111   .     S
C439   H455    1.111   .     S
C439   C24     1.526   1_565 S
C440   C442    1.428   .     A
C440   C441    1.418   .     A
C441   C1066   1.391   .     S
C442   C1064   1.427   .     S
C443   C444    1.415   .     A
C443   C1063   1.427   1_554 S
C444   H450    1.076   .     S
C444   C445    1.387   .     A
C445   H446    1.084   .     S
C445   C1062   1.391   1_554 S
H459   C562    1.088   1_455 S
H460   C494    1.086   .     S
H462   C14     1.086   1_565 S
O466   Zn483   1.933   .     S
O466   Zn482   1.936   .     S
O466   Zn480   1.959   .     S
O466   Zn481   1.940   .     S
O467   Zn481   1.932   .     S
O468   Zn483   1.940   .     S
O469   Zn482   1.934   .     S
O470   Zn480   1.927   .     S
O472   Zn480   1.926   .     S
O473   Zn483   1.930   .     S
O474   Zn481   1.929   .     S
O475   Zn482   1.937   .     S
O476   Zn483   1.932   .     S
O477   Zn480   1.926   .     S
O478   Zn481   1.936   .     S
O479   Zn482   1.929   .     S
C484   O545    1.269   .     A
C484   O543    1.269   .     A
C484   C494    1.438   .     S
C485   C486    1.390   .     A
C485   C511    1.428   .     A
C485   O540    1.384   .     S
C486   H534    1.085   .     S
C486   C1109   1.390   .     S
C487   O544    1.282   .     A
C487   O546    1.278   .     A
C487   C493    1.455   .     S
C488   C489    1.419   .     A
C488   C490    1.404   .     A
C488   C1107   1.390   1_554 S
C489   C492    1.411   .     A
C489   C512    1.425   .     A
C490   H526    1.084   .     S
C490   C491    1.391   .     A
C491   C503    1.394   .     A
C491   H533    1.083   .     S
C492   C503    1.393   .     A
C492   H532    1.077   .     S
C493   C563    1.335   .     S
C493   H597    1.088   .     S
C495   C502    1.400   .     A
C495   H517    1.083   .     S
C495   C504    1.392   .     A
C496   C499    1.451   .     S
C496   C83     1.331   1_565 S
C496   H116    1.088   1_565 S
C497   C498    1.435   .     S
C498   O547    1.276   .     A
C498   O541    1.276   .     A
C499   O548    1.271   .     A
C499   O542    1.272   .     A
C500   O536    1.273   .     A
C500   O538    1.274   .     A
C500   C503    1.452   .     S
C501   O539    1.284   .     A
C501   O537    1.282   .     A
C501   C502    1.470   .     S
C502   C506    1.398   .     A
C504   C510    1.403   .     A
C504   H516    1.084   .     S
C505   O540    1.417   .     S
C505   C507    1.532   .     S
C505   H521    1.117   .     S
C505   H520    1.111   .     S
C506   H518    1.077   .     S
C506   C509    1.407   .     A
C507   H522    1.112   .     S
C507   H523    1.111   .     S
C508   H525    1.110   .     S
C508   H527    1.111   .     S
C508   H524    1.111   .     S
C508   C93     1.526   1_565 S
C509   C511    1.428   .     A
C509   C510    1.418   .     A
C510   C1135   1.391   .     S
C511   C1133   1.427   .     S
C512   C513    1.415   .     A
C512   C1132   1.427   1_554 S
C513   H519    1.076   .     S
C513   C514    1.387   .     A
C514   H515    1.084   .     S
C514   C1131   1.391   1_554 S
H529   C563    1.086   .     S
H531   C83     1.086   1_565 S
O535   Zn552   1.933   .     S
O535   Zn551   1.936   .     S
O535   Zn549   1.959   .     S
O535   Zn550   1.940   .     S
O536   Zn550   1.932   .     S
O537   Zn552   1.940   .     S
O538   Zn551   1.934   .     S
O539   Zn549   1.927   .     S
O541   Zn549   1.926   .     S
O542   Zn552   1.930   .     S
O543   Zn550   1.929   .     S
O544   Zn551   1.937   .     S
O545   Zn552   1.932   .     S
O546   Zn549   1.926   .     S
O547   Zn550   1.936   .     S
O548   Zn551   1.929   .     S
C553   O614    1.269   .     A
C553   O612    1.269   .     A
C553   C563    1.438   .     S
C554   C555    1.390   .     A
C554   C580    1.428   .     A
C554   O609    1.384   .     S
C555   H603    1.085   .     S
C555   C1178   1.390   .     S
C556   O613    1.282   .     A
C556   O615    1.278   .     A
C556   C562    1.455   .     S
C557   C558    1.419   .     A
C557   C559    1.404   .     A
C557   C1176   1.390   1_554 S
C558   C561    1.411   .     A
C558   C581    1.425   .     A
C559   H595    1.084   .     S
C559   C560    1.391   .     A
C560   C572    1.394   .     A
C560   H602    1.083   .     S
C561   C572    1.393   .     A
C561   H601    1.077   .     S
C562   C425    1.335   1_655 S
C562   H459    1.088   1_655 S
C564   C571    1.400   .     A
C564   H586    1.083   .     S
C564   C573    1.392   .     A
C565   C568    1.451   .     S
C565   C152    1.331   1_565 S
C565   H185    1.088   1_565 S
C566   C567    1.435   .     S
C567   O616    1.276   .     A
C567   O610    1.276   .     A
C568   O617    1.271   .     A
C568   O611    1.272   .     A
C569   O605    1.273   .     A
C569   O607    1.274   .     A
C569   C572    1.452   .     S
C570   O608    1.284   .     A
C570   O606    1.282   .     A
C570   C571    1.470   .     S
C571   C575    1.398   .     A
C573   C579    1.403   .     A
C573   H585    1.084   .     S
C574   O609    1.417   .     S
C574   C576    1.532   .     S
C574   H590    1.117   .     S
C574   H589    1.111   .     S
C575   H587    1.077   .     S
C575   C578    1.407   .     A
C576   H591    1.112   .     S
C576   H592    1.111   .     S
C577   H594    1.110   .     S
C577   H596    1.111   .     S
C577   H593    1.111   .     S
C577   C162    1.526   1_565 S
C578   C580    1.428   .     A
C578   C579    1.418   .     A
C579   C1204   1.391   .     S
C580   C1202   1.427   .     S
C581   C582    1.415   .     A
C581   C1201   1.427   1_554 S
C582   H588    1.076   .     S
C582   C583    1.387   .     A
C583   H584    1.084   .     S
C583   C1200   1.391   1_554 S
H598   C425    1.086   1_655 S
H600   C152    1.086   1_565 S
O604   Zn621   1.933   .     S
O604   Zn620   1.936   .     S
O604   Zn618   1.959   .     S
O604   Zn619   1.940   .     S
O605   Zn619   1.932   .     S
O606   Zn621   1.940   .     S
O607   Zn620   1.934   .     S
O608   Zn618   1.927   .     S
O610   Zn618   1.926   .     S
O611   Zn621   1.930   .     S
O612   Zn619   1.929   .     S
O613   Zn620   1.937   .     S
O614   Zn621   1.932   .     S
O615   Zn618   1.926   .     S
O616   Zn619   1.936   .     S
O617   Zn620   1.929   .     S
C622   O683    1.269   .     A
C622   O681    1.269   .     A
C622   C632    1.438   .     S
C623   C624    1.390   .     A
C623   C649    1.428   .     A
C623   O678    1.384   .     S
C624   H672    1.085   .     S
C624   C5      1.390   1_556 S
C625   O682    1.282   .     A
C625   O684    1.278   .     A
C625   C631    1.455   .     S
C626   C627    1.419   .     A
C626   C628    1.404   .     A
C627   C630    1.411   .     A
C627   C650    1.425   .     A
C628   H664    1.084   .     S
C628   C629    1.391   .     A
C629   C641    1.394   .     A
C629   H671    1.083   .     S
C630   C641    1.393   .     A
C630   H670    1.077   .     S
C631   C701    1.335   .     S
C631   H735    1.088   .     S
C632   C769    1.335   1_455 S
C632   H805    1.086   1_455 S
C633   C640    1.400   .     A
C633   H655    1.083   .     S
C633   C642    1.392   .     A
C634   C637    1.451   .     S
C634   C842    1.331   .     S
C634   H875    1.088   .     S
C635   C636    1.435   .     S
C635   C1048   1.331   1_545 S
C635   H1083   1.086   1_545 S
C636   O685    1.276   .     A
C636   O679    1.276   .     A
C637   O686    1.271   .     A
C637   O680    1.272   .     A
C638   O674    1.273   .     A
C638   O676    1.274   .     A
C638   C641    1.452   .     S
C639   O677    1.284   .     A
C639   O675    1.282   .     A
C639   C640    1.470   .     S
C640   C644    1.398   .     A
C642   C648    1.403   .     A
C642   H654    1.084   .     S
C643   O678    1.417   .     S
C643   C645    1.532   .     S
C643   H659    1.117   .     S
C643   H658    1.111   .     S
C644   H656    1.077   .     S
C644   C647    1.407   .     A
C645   H660    1.112   .     S
C645   H661    1.111   .     S
C645   C1060   1.526   1_545 S
C646   H663    1.110   .     S
C646   H665    1.111   .     S
C646   H662    1.111   .     S
C646   C852    1.526   .     S
C647   C649    1.428   .     A
C647   C648    1.418   .     A
C648   C31     1.391   1_556 S
C649   C29     1.427   1_556 S
C650   C651    1.415   .     A
C651   H657    1.076   .     S
C651   C652    1.387   .     A
C652   H653    1.084   .     S
H666   C769    1.088   1_455 S
H667   C701    1.086   .     S
H668   C1048   1.088   1_545 S
H669   C842    1.086   .     S
O673   Zn690   1.933   .     S
O673   Zn689   1.936   .     S
O673   Zn687   1.959   .     S
O673   Zn688   1.940   .     S
O674   Zn688   1.932   .     S
O675   Zn690   1.940   .     S
O676   Zn689   1.934   .     S
O677   Zn687   1.927   .     S
O679   Zn687   1.926   .     S
O680   Zn690   1.930   .     S
O681   Zn688   1.929   .     S
O682   Zn689   1.937   .     S
O683   Zn690   1.932   .     S
O684   Zn687   1.926   .     S
O685   Zn688   1.936   .     S
O686   Zn689   1.929   .     S
C691   O752    1.269   .     A
C691   O750    1.269   .     A
C691   C701    1.438   .     S
C692   C693    1.390   .     A
C692   C718    1.428   .     A
C692   O747    1.384   .     S
C693   H741    1.085   .     S
C693   C74     1.390   1_556 S
C694   O751    1.282   .     A
C694   O753    1.278   .     A
C694   C700    1.455   .     S
C695   C696    1.419   .     A
C695   C697    1.404   .     A
C696   C699    1.411   .     A
C696   C719    1.425   .     A
C697   H733    1.084   .     S
C697   C698    1.391   .     A
C698   C710    1.394   .     A
C698   H740    1.083   .     S
C699   C710    1.393   .     A
C699   H739    1.077   .     S
C700   C770    1.335   .     S
C700   H804    1.088   .     S
C702   C709    1.400   .     A
C702   H724    1.083   .     S
C702   C711    1.392   .     A
C703   C706    1.451   .     S
C703   C911    1.331   .     S
C703   H944    1.088   .     S
C704   C705    1.435   .     S
C704   C1117   1.331   1_545 S
C704   H1152   1.086   1_545 S
C705   O754    1.276   .     A
C705   O748    1.276   .     A
C706   O755    1.271   .     A
C706   O749    1.272   .     A
C707   O743    1.273   .     A
C707   O745    1.274   .     A
C707   C710    1.452   .     S
C708   O746    1.284   .     A
C708   O744    1.282   .     A
C708   C709    1.470   .     S
C709   C713    1.398   .     A
C711   C717    1.403   .     A
C711   H723    1.084   .     S
C712   O747    1.417   .     S
C712   C714    1.532   .     S
C712   H728    1.117   .     S
C712   H727    1.111   .     S
C713   H725    1.077   .     S
C713   C716    1.407   .     A
C714   H729    1.112   .     S
C714   H730    1.111   .     S
C714   C1129   1.526   1_545 S
C715   H732    1.110   .     S
C715   H734    1.111   .     S
C715   H731    1.111   .     S
C715   C921    1.526   .     S
C716   C718    1.428   .     A
C716   C717    1.418   .     A
C717   C100    1.391   1_556 S
C718   C98     1.427   1_556 S
C719   C720    1.415   .     A
C720   H726    1.076   .     S
C720   C721    1.387   .     A
C721   H722    1.084   .     S
H736   C770    1.086   .     S
H737   C1117   1.088   1_545 S
H738   C911    1.086   .     S
O742   Zn759   1.933   .     S
O742   Zn758   1.936   .     S
O742   Zn756   1.959   .     S
O742   Zn757   1.940   .     S
O743   Zn757   1.932   .     S
O744   Zn759   1.940   .     S
O745   Zn758   1.934   .     S
O746   Zn756   1.927   .     S
O748   Zn756   1.926   .     S
O749   Zn759   1.930   .     S
O750   Zn757   1.929   .     S
O751   Zn758   1.937   .     S
O752   Zn759   1.932   .     S
O753   Zn756   1.926   .     S
O754   Zn757   1.936   .     S
O755   Zn758   1.929   .     S
C760   O821    1.269   .     A
C760   O819    1.269   .     A
C760   C770    1.438   .     S
C761   C762    1.390   .     A
C761   C787    1.428   .     A
C761   O816    1.384   .     S
C762   H810    1.085   .     S
C762   C143    1.390   1_556 S
C763   O820    1.282   .     A
C763   O822    1.278   .     A
C763   C769    1.455   .     S
C764   C765    1.419   .     A
C764   C766    1.404   .     A
C765   C768    1.411   .     A
C765   C788    1.425   .     A
C766   H802    1.084   .     S
C766   C767    1.391   .     A
C767   C779    1.394   .     A
C767   H809    1.083   .     S
C768   C779    1.393   .     A
C768   H808    1.077   .     S
C769   C632    1.335   1_655 S
C769   H666    1.088   1_655 S
C771   C778    1.400   .     A
C771   H793    1.083   .     S
C771   C780    1.392   .     A
C772   C775    1.451   .     S
C772   C980    1.331   .     S
C772   H1013   1.088   .     S
C773   C774    1.435   .     S
C773   C1186   1.331   1_545 S
C773   H1221   1.086   1_545 S
C774   O823    1.276   .     A
C774   O817    1.276   .     A
C775   O824    1.271   .     A
C775   O818    1.272   .     A
C776   O812    1.273   .     A
C776   O814    1.274   .     A
C776   C779    1.452   .     S
C777   O815    1.284   .     A
C777   O813    1.282   .     A
C777   C778    1.470   .     S
C778   C782    1.398   .     A
C780   C786    1.403   .     A
C780   H792    1.084   .     S
C781   O816    1.417   .     S
C781   C783    1.532   .     S
C781   H797    1.117   .     S
C781   H796    1.111   .     S
C782   H794    1.077   .     S
C782   C785    1.407   .     A
C783   H798    1.112   .     S
C783   H799    1.111   .     S
C783   C1198   1.526   1_545 S
C784   H801    1.110   .     S
C784   H803    1.111   .     S
C784   H800    1.111   .     S
C784   C990    1.526   .     S
C785   C787    1.428   .     A
C785   C786    1.418   .     A
C786   C169    1.391   1_556 S
C787   C167    1.427   1_556 S
C788   C789    1.415   .     A
C789   H795    1.076   .     S
C789   C790    1.387   .     A
C790   H791    1.084   .     S
H805   C632    1.086   1_655 S
H806   C1186   1.088   1_545 S
H807   C980    1.086   .     S
O811   Zn828   1.933   .     S
O811   Zn827   1.936   .     S
O811   Zn825   1.959   .     S
O811   Zn826   1.940   .     S
O812   Zn826   1.932   .     S
O813   Zn828   1.940   .     S
O814   Zn827   1.934   .     S
O815   Zn825   1.927   .     S
O817   Zn825   1.926   .     S
O818   Zn828   1.930   .     S
O819   Zn826   1.929   .     S
O820   Zn827   1.937   .     S
O821   Zn828   1.932   .     S
O822   Zn825   1.926   .     S
O823   Zn826   1.936   .     S
O824   Zn827   1.929   .     S
C829   O890    1.269   .     A
C829   O888    1.269   .     A
C829   C839    1.438   .     S
C830   C831    1.390   .     A
C830   C856    1.428   .     A
C830   O885    1.384   .     S
C831   H879    1.085   .     S
C831   C212    1.390   1_556 S
C832   O889    1.282   .     A
C832   O891    1.278   .     A
C832   C838    1.455   .     S
C833   C834    1.419   .     A
C833   C835    1.404   .     A
C834   C837    1.411   .     A
C834   C857    1.425   .     A
C835   H871    1.084   .     S
C835   C836    1.391   .     A
C836   C848    1.394   .     A
C836   H878    1.083   .     S
C837   C848    1.393   .     A
C837   H877    1.077   .     S
C838   C908    1.335   .     S
C838   H942    1.088   .     S
C839   C976    1.335   1_455 S
C839   H1012   1.086   1_455 S
C840   C847    1.400   .     A
C840   H862    1.083   .     S
C840   C849    1.392   .     A
C841   C844    1.451   .     S
C841   C1049   1.331   .     S
C841   H1082   1.088   .     S
C842   C843    1.435   .     S
C843   O892    1.276   .     A
C843   O886    1.276   .     A
C844   O893    1.271   .     A
C844   O887    1.272   .     A
C845   O881    1.273   .     A
C845   O883    1.274   .     A
C845   C848    1.452   .     S
C846   O884    1.284   .     A
C846   O882    1.282   .     A
C846   C847    1.470   .     S
C847   C851    1.398   .     A
C849   C855    1.403   .     A
C849   H861    1.084   .     S
C850   O885    1.417   .     S
C850   C852    1.532   .     S
C850   H866    1.117   .     S
C850   H865    1.111   .     S
C851   H863    1.077   .     S
C851   C854    1.407   .     A
C852   H867    1.112   .     S
C852   H868    1.111   .     S
C853   H870    1.110   .     S
C853   H872    1.111   .     S
C853   H869    1.111   .     S
C853   C1059   1.526   .     S
C854   C856    1.428   .     A
C854   C855    1.418   .     A
C855   C238    1.391   1_556 S
C856   C236    1.427   1_556 S
C857   C858    1.415   .     A
C858   H864    1.076   .     S
C858   C859    1.387   .     A
C859   H860    1.084   .     S
H873   C976    1.088   1_455 S
H874   C908    1.086   .     S
H876   C1049   1.086   .     S
O880   Zn897   1.933   .     S
O880   Zn896   1.936   .     S
O880   Zn894   1.959   .     S
O880   Zn895   1.940   .     S
O881   Zn895   1.932   .     S
O882   Zn897   1.940   .     S
O883   Zn896   1.934   .     S
O884   Zn894   1.927   .     S
O886   Zn894   1.926   .     S
O887   Zn897   1.930   .     S
O888   Zn895   1.929   .     S
O889   Zn896   1.937   .     S
O890   Zn897   1.932   .     S
O891   Zn894   1.926   .     S
O892   Zn895   1.936   .     S
O893   Zn896   1.929   .     S
C898   O959    1.269   .     A
C898   O957    1.269   .     A
C898   C908    1.438   .     S
C899   C900    1.390   .     A
C899   C925    1.428   .     A
C899   O954    1.384   .     S
C900   H948    1.085   .     S
C900   C281    1.390   1_556 S
C901   O958    1.282   .     A
C901   O960    1.278   .     A
C901   C907    1.455   .     S
C902   C903    1.419   .     A
C902   C904    1.404   .     A
C903   C906    1.411   .     A
C903   C926    1.425   .     A
C904   H940    1.084   .     S
C904   C905    1.391   .     A
C905   C917    1.394   .     A
C905   H947    1.083   .     S
C906   C917    1.393   .     A
C906   H946    1.077   .     S
C907   C977    1.335   .     S
C907   H1011   1.088   .     S
C909   C916    1.400   .     A
C909   H931    1.083   .     S
C909   C918    1.392   .     A
C910   C913    1.451   .     S
C910   C1118   1.331   .     S
C910   H1151   1.088   .     S
C911   C912    1.435   .     S
C912   O961    1.276   .     A
C912   O955    1.276   .     A
C913   O962    1.271   .     A
C913   O956    1.272   .     A
C914   O950    1.273   .     A
C914   O952    1.274   .     A
C914   C917    1.452   .     S
C915   O953    1.284   .     A
C915   O951    1.282   .     A
C915   C916    1.470   .     S
C916   C920    1.398   .     A
C918   C924    1.403   .     A
C918   H930    1.084   .     S
C919   O954    1.417   .     S
C919   C921    1.532   .     S
C919   H935    1.117   .     S
C919   H934    1.111   .     S
C920   H932    1.077   .     S
C920   C923    1.407   .     A
C921   H936    1.112   .     S
C921   H937    1.111   .     S
C922   H939    1.110   .     S
C922   H941    1.111   .     S
C922   H938    1.111   .     S
C922   C1128   1.526   .     S
C923   C925    1.428   .     A
C923   C924    1.418   .     A
C924   C307    1.391   1_556 S
C925   C305    1.427   1_556 S
C926   C927    1.415   .     A
C927   H933    1.076   .     S
C927   C928    1.387   .     A
C928   H929    1.084   .     S
H943   C977    1.086   .     S
H945   C1118   1.086   .     S
O949   Zn966   1.933   .     S
O949   Zn965   1.936   .     S
O949   Zn963   1.959   .     S
O949   Zn964   1.940   .     S
O950   Zn964   1.932   .     S
O951   Zn966   1.940   .     S
O952   Zn965   1.934   .     S
O953   Zn963   1.927   .     S
O955   Zn963   1.926   .     S
O956   Zn966   1.930   .     S
O957   Zn964   1.929   .     S
O958   Zn965   1.937   .     S
O959   Zn966   1.932   .     S
O960   Zn963   1.926   .     S
O961   Zn964   1.936   .     S
O962   Zn965   1.929   .     S
C967   O1028   1.269   .     A
C967   O1026   1.269   .     A
C967   C977    1.438   .     S
C968   C969    1.390   .     A
C968   C994    1.428   .     A
C968   O1023   1.384   .     S
C969   H1017   1.085   .     S
C969   C350    1.390   1_556 S
C970   O1027   1.282   .     A
C970   O1029   1.278   .     A
C970   C976    1.455   .     S
C971   C972    1.419   .     A
C971   C973    1.404   .     A
C972   C975    1.411   .     A
C972   C995    1.425   .     A
C973   H1009   1.084   .     S
C973   C974    1.391   .     A
C974   C986    1.394   .     A
C974   H1016   1.083   .     S
C975   C986    1.393   .     A
C975   H1015   1.077   .     S
C976   C839    1.335   1_655 S
C976   H873    1.088   1_655 S
C978   C985    1.400   .     A
C978   H1000   1.083   .     S
C978   C987    1.392   .     A
C979   C982    1.451   .     S
C979   C1187   1.331   .     S
C979   H1220   1.088   .     S
C980   C981    1.435   .     S
C981   O1030   1.276   .     A
C981   O1024   1.276   .     A
C982   O1031   1.271   .     A
C982   O1025   1.272   .     A
C983   O1019   1.273   .     A
C983   O1021   1.274   .     A
C983   C986    1.452   .     S
C984   O1022   1.284   .     A
C984   O1020   1.282   .     A
C984   C985    1.470   .     S
C985   C989    1.398   .     A
C987   C993    1.403   .     A
C987   H999    1.084   .     S
C988   O1023   1.417   .     S
C988   C990    1.532   .     S
C988   H1004   1.117   .     S
C988   H1003   1.111   .     S
C989   H1001   1.077   .     S
C989   C992    1.407   .     A
C990   H1005   1.112   .     S
C990   H1006   1.111   .     S
C991   H1008   1.110   .     S
C991   H1010   1.111   .     S
C991   H1007   1.111   .     S
C991   C1197   1.526   .     S
C992   C994    1.428   .     A
C992   C993    1.418   .     A
C993   C376    1.391   1_556 S
C994   C374    1.427   1_556 S
C995   C996    1.415   .     A
C996   H1002   1.076   .     S
C996   C997    1.387   .     A
C997   H998    1.084   .     S
H1012  C839    1.086   1_655 S
H1014  C1187   1.086   .     S
O1018  Zn1035  1.933   .     S
O1018  Zn1034  1.936   .     S
O1018  Zn1032  1.959   .     S
O1018  Zn1033  1.940   .     S
O1019  Zn1033  1.932   .     S
O1020  Zn1035  1.940   .     S
O1021  Zn1034  1.934   .     S
O1022  Zn1032  1.927   .     S
O1024  Zn1032  1.926   .     S
O1025  Zn1035  1.930   .     S
O1026  Zn1033  1.929   .     S
O1027  Zn1034  1.937   .     S
O1028  Zn1035  1.932   .     S
O1029  Zn1032  1.926   .     S
O1030  Zn1033  1.936   .     S
O1031  Zn1034  1.929   .     S
C1036  O1097   1.269   .     A
C1036  O1095   1.269   .     A
C1036  C1046   1.438   .     S
C1037  C1038   1.390   .     A
C1037  C1063   1.428   .     A
C1037  O1092   1.384   .     S
C1038  H1086   1.085   .     S
C1038  C419    1.390   1_556 S
C1039  O1096   1.282   .     A
C1039  O1098   1.278   .     A
C1039  C1045   1.455   .     S
C1040  C1041   1.419   .     A
C1040  C1042   1.404   .     A
C1041  C1044   1.411   .     A
C1041  C1064   1.425   .     A
C1042  H1078   1.084   .     S
C1042  C1043   1.391   .     A
C1043  C1055   1.394   .     A
C1043  H1085   1.083   .     S
C1044  C1055   1.393   .     A
C1044  H1084   1.077   .     S
C1045  C1115   1.335   .     S
C1045  H1149   1.088   .     S
C1046  C1183   1.335   1_455 S
C1046  H1219   1.086   1_455 S
C1047  C1054   1.400   .     A
C1047  H1069   1.083   .     S
C1047  C1056   1.392   .     A
C1048  C1051   1.451   .     S
C1048  C635    1.331   1_565 S
C1048  H668    1.088   1_565 S
C1049  C1050   1.435   .     S
C1050  O1099   1.276   .     A
C1050  O1093   1.276   .     A
C1051  O1100   1.271   .     A
C1051  O1094   1.272   .     A
C1052  O1088   1.273   .     A
C1052  O1090   1.274   .     A
C1052  C1055   1.452   .     S
C1053  O1091   1.284   .     A
C1053  O1089   1.282   .     A
C1053  C1054   1.470   .     S
C1054  C1058   1.398   .     A
C1056  C1062   1.403   .     A
C1056  H1068   1.084   .     S
C1057  O1092   1.417   .     S
C1057  C1059   1.532   .     S
C1057  H1073   1.117   .     S
C1057  H1072   1.111   .     S
C1058  H1070   1.077   .     S
C1058  C1061   1.407   .     A
C1059  H1074   1.112   .     S
C1059  H1075   1.111   .     S
C1060  H1077   1.110   .     S
C1060  H1079   1.111   .     S
C1060  H1076   1.111   .     S
C1060  C645    1.526   1_565 S
C1061  C1063   1.428   .     A
C1061  C1062   1.418   .     A
C1062  C445    1.391   1_556 S
C1063  C443    1.427   1_556 S
C1064  C1065   1.415   .     A
C1065  H1071   1.076   .     S
C1065  C1066   1.387   .     A
C1066  H1067   1.084   .     S
H1080  C1183   1.088   1_455 S
H1081  C1115   1.086   .     S
H1083  C635    1.086   1_565 S
O1087  Zn1104  1.933   .     S
O1087  Zn1103  1.936   .     S
O1087  Zn1101  1.959   .     S
O1087  Zn1102  1.940   .     S
O1088  Zn1102  1.932   .     S
O1089  Zn1104  1.940   .     S
O1090  Zn1103  1.934   .     S
O1091  Zn1101  1.927   .     S
O1093  Zn1101  1.926   .     S
O1094  Zn1104  1.930   .     S
O1095  Zn1102  1.929   .     S
O1096  Zn1103  1.937   .     S
O1097  Zn1104  1.932   .     S
O1098  Zn1101  1.926   .     S
O1099  Zn1102  1.936   .     S
O1100  Zn1103  1.929   .     S
C1105  O1166   1.269   .     A
C1105  O1164   1.269   .     A
C1105  C1115   1.438   .     S
C1106  C1107   1.390   .     A
C1106  C1132   1.428   .     A
C1106  O1161   1.384   .     S
C1107  H1155   1.085   .     S
C1107  C488    1.390   1_556 S
C1108  O1165   1.282   .     A
C1108  O1167   1.278   .     A
C1108  C1114   1.455   .     S
C1109  C1110   1.419   .     A
C1109  C1111   1.404   .     A
C1110  C1113   1.411   .     A
C1110  C1133   1.425   .     A
C1111  H1147   1.084   .     S
C1111  C1112   1.391   .     A
C1112  C1124   1.394   .     A
C1112  H1154   1.083   .     S
C1113  C1124   1.393   .     A
C1113  H1153   1.077   .     S
C1114  C1184   1.335   .     S
C1114  H1218   1.088   .     S
C1116  C1123   1.400   .     A
C1116  H1138   1.083   .     S
C1116  C1125   1.392   .     A
C1117  C1120   1.451   .     S
C1117  C704    1.331   1_565 S
C1117  H737    1.088   1_565 S
C1118  C1119   1.435   .     S
C1119  O1168   1.276   .     A
C1119  O1162   1.276   .     A
C1120  O1169   1.271   .     A
C1120  O1163   1.272   .     A
C1121  O1157   1.273   .     A
C1121  O1159   1.274   .     A
C1121  C1124   1.452   .     S
C1122  O1160   1.284   .     A
C1122  O1158   1.282   .     A
C1122  C1123   1.470   .     S
C1123  C1127   1.398   .     A
C1125  C1131   1.403   .     A
C1125  H1137   1.084   .     S
C1126  O1161   1.417   .     S
C1126  C1128   1.532   .     S
C1126  H1142   1.117   .     S
C1126  H1141   1.111   .     S
C1127  H1139   1.077   .     S
C1127  C1130   1.407   .     A
C1128  H1143   1.112   .     S
C1128  H1144   1.111   .     S
C1129  H1146   1.110   .     S
C1129  H1148   1.111   .     S
C1129  H1145   1.111   .     S
C1129  C714    1.526   1_565 S
C1130  C1132   1.428   .     A
C1130  C1131   1.418   .     A
C1131  C514    1.391   1_556 S
C1132  C512    1.427   1_556 S
C1133  C1134   1.415   .     A
C1134  H1140   1.076   .     S
C1134  C1135   1.387   .     A
C1135  H1136   1.084   .     S
H1150  C1184   1.086   .     S
H1152  C704    1.086   1_565 S
O1156  Zn1173  1.933   .     S
O1156  Zn1172  1.936   .     S
O1156  Zn1170  1.959   .     S
O1156  Zn1171  1.940   .     S
O1157  Zn1171  1.932   .     S
O1158  Zn1173  1.940   .     S
O1159  Zn1172  1.934   .     S
O1160  Zn1170  1.927   .     S
O1162  Zn1170  1.926   .     S
O1163  Zn1173  1.930   .     S
O1164  Zn1171  1.929   .     S
O1165  Zn1172  1.937   .     S
O1166  Zn1173  1.932   .     S
O1167  Zn1170  1.926   .     S
O1168  Zn1171  1.936   .     S
O1169  Zn1172  1.929   .     S
C1174  O1235   1.269   .     A
C1174  O1233   1.269   .     A
C1174  C1184   1.438   .     S
C1175  C1176   1.390   .     A
C1175  C1201   1.428   .     A
C1175  O1230   1.384   .     S
C1176  H1224   1.085   .     S
C1176  C557    1.390   1_556 S
C1177  O1234   1.282   .     A
C1177  O1236   1.278   .     A
C1177  C1183   1.455   .     S
C1178  C1179   1.419   .     A
C1178  C1180   1.404   .     A
C1179  C1182   1.411   .     A
C1179  C1202   1.425   .     A
C1180  H1216   1.084   .     S
C1180  C1181   1.391   .     A
C1181  C1193   1.394   .     A
C1181  H1223   1.083   .     S
C1182  C1193   1.393   .     A
C1182  H1222   1.077   .     S
C1183  C1046   1.335   1_655 S
C1183  H1080   1.088   1_655 S
C1185  C1192   1.400   .     A
C1185  H1207   1.083   .     S
C1185  C1194   1.392   .     A
C1186  C1189   1.451   .     S
C1186  C773    1.331   1_565 S
C1186  H806    1.088   1_565 S
C1187  C1188   1.435   .     S
C1188  O1237   1.276   .     A
C1188  O1231   1.276   .     A
C1189  O1238   1.271   .     A
C1189  O1232   1.272   .     A
C1190  O1226   1.273   .     A
C1190  O1228   1.274   .     A
C1190  C1193   1.452   .     S
C1191  O1229   1.284   .     A
C1191  O1227   1.282   .     A
C1191  C1192   1.470   .     S
C1192  C1196   1.398   .     A
C1194  C1200   1.403   .     A
C1194  H1206   1.084   .     S
C1195  O1230   1.417   .     S
C1195  C1197   1.532   .     S
C1195  H1211   1.117   .     S
C1195  H1210   1.111   .     S
C1196  H1208   1.077   .     S
C1196  C1199   1.407   .     A
C1197  H1212   1.112   .     S
C1197  H1213   1.111   .     S
C1198  H1215   1.110   .     S
C1198  H1217   1.111   .     S
C1198  H1214   1.111   .     S
C1198  C783    1.526   1_565 S
C1199  C1201   1.428   .     A
C1199  C1200   1.418   .     A
C1200  C583    1.391   1_556 S
C1201  C581    1.427   1_556 S
C1202  C1203   1.415   .     A
C1203  H1209   1.076   .     S
C1203  C1204   1.387   .     A
C1204  H1205   1.084   .     S
H1219  C1046   1.086   1_655 S
H1221  C773    1.086   1_565 S
O1225  Zn1242  1.933   .     S
O1225  Zn1241  1.936   .     S
O1225  Zn1239  1.959   .     S
O1225  Zn1240  1.940   .     S
O1226  Zn1240  1.932   .     S
O1227  Zn1242  1.940   .     S
O1228  Zn1241  1.934   .     S
O1229  Zn1239  1.927   .     S
O1231  Zn1239  1.926   .     S
O1232  Zn1242  1.930   .     S
O1233  Zn1240  1.929   .     S
O1234  Zn1241  1.937   .     S
O1235  Zn1242  1.932   .     S
O1236  Zn1239  1.926   .     S
O1237  Zn1240  1.936   .     S
O1238  Zn1241  1.929   .     S
