data_str_m1_o10_o16_pcu_sym.186
_audit_creation_date              2020-01-03
_audit_creation_method            'Materials Studio'
_symmetry_space_group_name_H-M    'P1'
_symmetry_Int_Tables_number       1
_symmetry_cell_setting            triclinic
loop_
_symmetry_equiv_pos_as_xyz
  x,y,z
_cell_length_a                    32.4523
_cell_length_b                    32.6626
_cell_length_c                    31.0159
_cell_angle_alpha                 96.3214
_cell_angle_beta                  74.1395
_cell_angle_gamma                 97.7311
loop_
_atom_site_label
_atom_site_type_symbol
_atom_site_fract_x
_atom_site_fract_y
_atom_site_fract_z
_atom_site_U_iso_or_equiv
_atom_site_adp_type
_atom_site_occupancy
C1     C     0.05266   0.15973   0.26075   0.00000  Uiso   1.00
C2     C     0.16546   0.14998   0.05887   0.00000  Uiso   1.00
C3     C     0.23775   0.13516   0.05572   0.00000  Uiso   1.00
C4     C     0.28086   0.17322   0.23944   0.00000  Uiso   1.00
C5     C     0.13448   0.18690   0.42163   0.00000  Uiso   1.00
C6     C     0.32708   0.17303   0.23296   0.00000  Uiso   1.00
C7     C     0.00739   0.15906   0.26503   0.00000  Uiso   1.00
C8     C     0.17725   0.32194   0.23669   0.00000  Uiso   1.00
C9     C     0.15137   0.01323   0.26698   0.00000  Uiso   1.00
C10    C     0.15698   0.05620   0.25982   0.00000  Uiso   1.00
C11    C     0.17618   0.27794   0.24059   0.00000  Uiso   1.00
C12    C     0.07536   0.17870   0.48962   0.00000  Uiso   1.00
C13    C     0.18561   0.14848   0.12929   0.00000  Uiso   1.00
C14    C     0.14784   0.18451   0.37143   0.00000  Uiso   1.00
C15    C     0.25004   0.14022   0.00951   0.00000  Uiso   1.00
C16    C     0.19569   0.14202   0.08044   0.00000  Uiso   1.00
C17    C     0.09119   0.19277   0.44622   0.00000  Uiso   1.00
C18    C     0.28695   0.09303   0.06124   0.00000  Uiso   1.00
C19    C     0.07769   0.09429   0.02897   0.00000  Uiso   1.00
C20    C     0.02682   0.20891   0.04748   0.00000  Uiso   1.00
C21    C     0.02407   0.15903   0.15850   0.00000  Uiso   1.00
C22    C     0.10183   0.15950   0.00831   0.00000  Uiso   1.00
C23    C     0.14706   0.16299   0.48916   0.00000  Uiso   1.00
C24    C     0.16314   0.17586   0.44478   0.00000  Uiso   1.00
C25    C     0.17673   0.15319   0.01206   0.00000  Uiso   1.00
C26    C     0.22049   0.15076   0.48817   0.00000  Uiso   1.00
C27    C     0.23531   0.16227   0.44424   0.00000  Uiso   1.00
C28    C     0.20776   0.17703   0.42402   0.00000  Uiso   1.00
H29    H     0.31855   0.14911   0.29614   0.00000  Uiso   1.00
H30    H     0.07992   0.03309   0.37897   0.00000  Uiso   1.00
H31    H     0.32123   0.20495   0.45888   0.00000  Uiso   1.00
H32    H     0.10967   0.08254   0.01482   0.00000  Uiso   1.00
H33    H     0.05865   0.08903   0.00357   0.00000  Uiso   1.00
H34    H     0.06002   0.07601   0.05780   0.00000  Uiso   1.00
H35    H     0.03963   0.24021   0.03555   0.00000  Uiso   1.00
H36    H     0.04249   0.20252   0.07327   0.00000  Uiso   1.00
H37    H     0.32522   0.20929   0.06387   0.00000  Uiso   1.00
H38    H     0.32854   0.15875   0.14567   0.00000  Uiso   1.00
H39    H     0.02691   0.12733   0.16674   0.00000  Uiso   1.00
H40    H     0.19994   0.00165   0.20739   0.00000  Uiso   1.00
H41    H     0.05306   0.16768   0.13123   0.00000  Uiso   1.00
H42    H     0.26900   0.16214   0.42621   0.00000  Uiso   1.00
H43    H     0.28337   0.13870   0.49085   0.00000  Uiso   1.00
H44    H     0.13496   0.15831   0.08008   0.00000  Uiso   1.00
H45    H     0.22220   0.18978   0.39191   0.00000  Uiso   1.00
H46    H     0.31102   0.09724   0.02843   0.00000  Uiso   1.00
H47    H     0.26247   0.06622   0.05826   0.00000  Uiso   1.00
H48    H     0.30446   0.08551   0.08497   0.00000  Uiso   1.00
O49    O     0.16667   0.16667   0.25000   0.00000  Uiso   1.00
O50    O     0.15451   0.12637   0.15458   0.00000  Uiso   1.00
O51    O     0.12940   0.20391   0.34968   0.00000  Uiso   1.00
O52    O     0.20824   0.17759   0.14606   0.00000  Uiso   1.00
O53    O     0.17451   0.15880   0.34968   0.00000  Uiso   1.00
O54    O     0.26780   0.12978   0.07842   0.00000  Uiso   1.00
O55    O     0.07914   0.30311   0.31279   0.00000  Uiso   1.00
O56    O     0.14110   0.31397   0.34562   0.00000  Uiso   1.00
O57    O     0.09754   0.04267   0.34967   0.00000  Uiso   1.00
O58    O     0.07795   0.25472   0.40273   0.00000  Uiso   1.00
O59    O     0.04285   0.18562   0.38725   0.00000  Uiso   1.00
O60    O     0.17930   0.08019   0.28213   0.00000  Uiso   1.00
O61    O     0.01046   0.22782   0.46192   0.00000  Uiso   1.00
O62    O     0.08211   0.13642   0.04464   0.00000  Uiso   1.00
O63    O     0.03199   0.17802   0.01140   0.00000  Uiso   1.00
O64    O     0.02307   0.18868   0.19534   0.00000  Uiso   1.00
O65    O     0.14632   0.26085   0.27013   0.00000  Uiso   1.00
O66    O     0.07412   0.13291   0.23413   0.00000  Uiso   1.00
O67    O     0.26693   0.19272   0.21360   0.00000  Uiso   1.00
O68    O     0.07071   0.18878   0.28213   0.00000  Uiso   1.00
O69    O     0.25491   0.15226   0.27013   0.00000  Uiso   1.00
O70    O     0.13760   0.06944   0.23413   0.00000  Uiso   1.00
O71    O     0.20345   0.25620   0.21360   0.00000  Uiso   1.00
S72    S     0.11655   0.33315   0.31982   0.00000  Uiso   1.00
S73    S     0.05545   0.21544   0.42320   0.00000  Uiso   1.00
Zn74   Zn    0.19338   0.13994   0.28734   0.00000  Uiso   1.00
Zn75   Zn    0.13379   0.12458   0.21875   0.00000  Uiso   1.00
Zn76   Zn    0.21056   0.19775   0.20657   0.00000  Uiso   1.00
Zn77   Zn    0.12893   0.20439   0.28733   0.00000  Uiso   1.00
C78    C     0.38600   0.15973   0.26075   0.00000  Uiso   1.00
C79    C     0.49879   0.14998   0.05887   0.00000  Uiso   1.00
C80    C     0.57108   0.13516   0.05572   0.00000  Uiso   1.00
C81    C     0.61420   0.17322   0.23944   0.00000  Uiso   1.00
C82    C     0.46781   0.18690   0.42163   0.00000  Uiso   1.00
C83    C     0.66042   0.17303   0.23296   0.00000  Uiso   1.00
C84    C     0.34073   0.15906   0.26503   0.00000  Uiso   1.00
C85    C     0.51058   0.32194   0.23669   0.00000  Uiso   1.00
C86    C     0.48470   0.01323   0.26698   0.00000  Uiso   1.00
C87    C     0.49031   0.05620   0.25982   0.00000  Uiso   1.00
C88    C     0.50951   0.27794   0.24059   0.00000  Uiso   1.00
C89    C     0.40869   0.17870   0.48962   0.00000  Uiso   1.00
C90    C     0.51895   0.14848   0.12929   0.00000  Uiso   1.00
C91    C     0.48118   0.18451   0.37143   0.00000  Uiso   1.00
C92    C     0.58338   0.14022   0.00951   0.00000  Uiso   1.00
C93    C     0.52903   0.14202   0.08044   0.00000  Uiso   1.00
C94    C     0.42452   0.19277   0.44622   0.00000  Uiso   1.00
C95    C     0.62028   0.09303   0.06124   0.00000  Uiso   1.00
C96    C     0.41102   0.09429   0.02897   0.00000  Uiso   1.00
C97    C     0.36015   0.20891   0.04748   0.00000  Uiso   1.00
C98    C     0.35740   0.15903   0.15850   0.00000  Uiso   1.00
C99    C     0.43517   0.15950   0.00831   0.00000  Uiso   1.00
C100   C     0.48039   0.16299   0.48916   0.00000  Uiso   1.00
C101   C     0.49648   0.17586   0.44478   0.00000  Uiso   1.00
C102   C     0.51007   0.15319   0.01206   0.00000  Uiso   1.00
C103   C     0.55383   0.15076   0.48817   0.00000  Uiso   1.00
C104   C     0.56865   0.16227   0.44424   0.00000  Uiso   1.00
C105   C     0.54110   0.17703   0.42402   0.00000  Uiso   1.00
H106   H     0.65188   0.14911   0.29614   0.00000  Uiso   1.00
H107   H     0.41325   0.03309   0.37897   0.00000  Uiso   1.00
H108   H     0.65457   0.20495   0.45888   0.00000  Uiso   1.00
H109   H     0.44300   0.08254   0.01482   0.00000  Uiso   1.00
H110   H     0.39198   0.08903   0.00357   0.00000  Uiso   1.00
H111   H     0.39336   0.07601   0.05780   0.00000  Uiso   1.00
H112   H     0.37296   0.24021   0.03555   0.00000  Uiso   1.00
H113   H     0.37583   0.20252   0.07327   0.00000  Uiso   1.00
H114   H     0.65856   0.20929   0.06387   0.00000  Uiso   1.00
H115   H     0.66187   0.15875   0.14567   0.00000  Uiso   1.00
H116   H     0.36025   0.12733   0.16674   0.00000  Uiso   1.00
H117   H     0.53327   0.00165   0.20739   0.00000  Uiso   1.00
H118   H     0.38639   0.16768   0.13123   0.00000  Uiso   1.00
H119   H     0.60233   0.16214   0.42621   0.00000  Uiso   1.00
H120   H     0.61670   0.13870   0.49085   0.00000  Uiso   1.00
H121   H     0.46829   0.15831   0.08008   0.00000  Uiso   1.00
H122   H     0.55553   0.18978   0.39191   0.00000  Uiso   1.00
H123   H     0.64436   0.09724   0.02843   0.00000  Uiso   1.00
H124   H     0.59580   0.06622   0.05826   0.00000  Uiso   1.00
H125   H     0.63780   0.08551   0.08497   0.00000  Uiso   1.00
O126   O     0.50000   0.16667   0.25000   0.00000  Uiso   1.00
O127   O     0.48784   0.12637   0.15458   0.00000  Uiso   1.00
O128   O     0.46274   0.20391   0.34968   0.00000  Uiso   1.00
O129   O     0.54157   0.17759   0.14606   0.00000  Uiso   1.00
O130   O     0.50785   0.15880   0.34968   0.00000  Uiso   1.00
O131   O     0.60114   0.12978   0.07842   0.00000  Uiso   1.00
O132   O     0.41247   0.30311   0.31279   0.00000  Uiso   1.00
O133   O     0.47444   0.31397   0.34562   0.00000  Uiso   1.00
O134   O     0.43087   0.04267   0.34967   0.00000  Uiso   1.00
O135   O     0.41128   0.25472   0.40273   0.00000  Uiso   1.00
O136   O     0.37618   0.18562   0.38725   0.00000  Uiso   1.00
O137   O     0.51264   0.08019   0.28213   0.00000  Uiso   1.00
O138   O     0.34379   0.22782   0.46192   0.00000  Uiso   1.00
O139   O     0.41544   0.13642   0.04464   0.00000  Uiso   1.00
O140   O     0.36533   0.17802   0.01140   0.00000  Uiso   1.00
O141   O     0.35640   0.18868   0.19534   0.00000  Uiso   1.00
O142   O     0.47965   0.26085   0.27013   0.00000  Uiso   1.00
O143   O     0.40745   0.13291   0.23413   0.00000  Uiso   1.00
O144   O     0.60026   0.19272   0.21360   0.00000  Uiso   1.00
O145   O     0.40405   0.18878   0.28213   0.00000  Uiso   1.00
O146   O     0.58824   0.15226   0.27013   0.00000  Uiso   1.00
O147   O     0.47093   0.06944   0.23413   0.00000  Uiso   1.00
O148   O     0.53678   0.25620   0.21360   0.00000  Uiso   1.00
S149   S     0.44988   0.33315   0.31982   0.00000  Uiso   1.00
S150   S     0.38879   0.21544   0.42320   0.00000  Uiso   1.00
Zn151  Zn    0.52672   0.13994   0.28734   0.00000  Uiso   1.00
Zn152  Zn    0.46713   0.12458   0.21875   0.00000  Uiso   1.00
Zn153  Zn    0.54389   0.19775   0.20657   0.00000  Uiso   1.00
Zn154  Zn    0.46226   0.20439   0.28733   0.00000  Uiso   1.00
C155   C     0.71933   0.15973   0.26075   0.00000  Uiso   1.00
C156   C     0.83212   0.14998   0.05887   0.00000  Uiso   1.00
C157   C     0.90442   0.13516   0.05572   0.00000  Uiso   1.00
C158   C     0.94753   0.17322   0.23944   0.00000  Uiso   1.00
C159   C     0.80115   0.18690   0.42163   0.00000  Uiso   1.00
C160   C     0.99375   0.17303   0.23296   0.00000  Uiso   1.00
C161   C     0.67406   0.15906   0.26503   0.00000  Uiso   1.00
C162   C     0.84392   0.32194   0.23669   0.00000  Uiso   1.00
C163   C     0.81803   0.01323   0.26698   0.00000  Uiso   1.00
C164   C     0.82365   0.05620   0.25982   0.00000  Uiso   1.00
C165   C     0.84285   0.27794   0.24059   0.00000  Uiso   1.00
C166   C     0.74202   0.17870   0.48962   0.00000  Uiso   1.00
C167   C     0.85228   0.14848   0.12929   0.00000  Uiso   1.00
C168   C     0.81451   0.18451   0.37143   0.00000  Uiso   1.00
C169   C     0.91671   0.14022   0.00951   0.00000  Uiso   1.00
C170   C     0.86236   0.14202   0.08044   0.00000  Uiso   1.00
C171   C     0.75786   0.19277   0.44622   0.00000  Uiso   1.00
C172   C     0.95362   0.09303   0.06124   0.00000  Uiso   1.00
C173   C     0.74436   0.09429   0.02897   0.00000  Uiso   1.00
C174   C     0.69348   0.20891   0.04748   0.00000  Uiso   1.00
C175   C     0.69073   0.15903   0.15850   0.00000  Uiso   1.00
C176   C     0.76850   0.15950   0.00831   0.00000  Uiso   1.00
C177   C     0.81373   0.16299   0.48916   0.00000  Uiso   1.00
C178   C     0.82981   0.17586   0.44478   0.00000  Uiso   1.00
C179   C     0.84340   0.15319   0.01206   0.00000  Uiso   1.00
C180   C     0.88716   0.15076   0.48817   0.00000  Uiso   1.00
C181   C     0.90198   0.16227   0.44424   0.00000  Uiso   1.00
C182   C     0.87443   0.17703   0.42402   0.00000  Uiso   1.00
H183   H     0.98522   0.14911   0.29614   0.00000  Uiso   1.00
H184   H     0.74659   0.03309   0.37897   0.00000  Uiso   1.00
H185   H     0.98790   0.20495   0.45888   0.00000  Uiso   1.00
H186   H     0.77634   0.08254   0.01482   0.00000  Uiso   1.00
H187   H     0.72531   0.08903   0.00357   0.00000  Uiso   1.00
H188   H     0.72669   0.07601   0.05780   0.00000  Uiso   1.00
H189   H     0.70630   0.24021   0.03555   0.00000  Uiso   1.00
H190   H     0.70916   0.20252   0.07327   0.00000  Uiso   1.00
H191   H     0.99189   0.20929   0.06387   0.00000  Uiso   1.00
H192   H     0.99521   0.15875   0.14567   0.00000  Uiso   1.00
H193   H     0.69358   0.12733   0.16674   0.00000  Uiso   1.00
H194   H     0.86660   0.00165   0.20739   0.00000  Uiso   1.00
H195   H     0.71972   0.16768   0.13123   0.00000  Uiso   1.00
H196   H     0.93567   0.16214   0.42621   0.00000  Uiso   1.00
H197   H     0.95004   0.13870   0.49085   0.00000  Uiso   1.00
H198   H     0.80162   0.15831   0.08008   0.00000  Uiso   1.00
H199   H     0.88887   0.18978   0.39191   0.00000  Uiso   1.00
H200   H     0.97769   0.09724   0.02843   0.00000  Uiso   1.00
H201   H     0.92913   0.06622   0.05826   0.00000  Uiso   1.00
H202   H     0.97113   0.08551   0.08497   0.00000  Uiso   1.00
O203   O     0.83333   0.16667   0.25000   0.00000  Uiso   1.00
O204   O     0.82118   0.12637   0.15458   0.00000  Uiso   1.00
O205   O     0.79607   0.20391   0.34968   0.00000  Uiso   1.00
O206   O     0.87491   0.17759   0.14606   0.00000  Uiso   1.00
O207   O     0.84118   0.15880   0.34968   0.00000  Uiso   1.00
O208   O     0.93447   0.12978   0.07842   0.00000  Uiso   1.00
O209   O     0.74581   0.30311   0.31279   0.00000  Uiso   1.00
O210   O     0.80777   0.31397   0.34562   0.00000  Uiso   1.00
O211   O     0.76421   0.04267   0.34967   0.00000  Uiso   1.00
O212   O     0.74462   0.25472   0.40273   0.00000  Uiso   1.00
O213   O     0.70952   0.18562   0.38725   0.00000  Uiso   1.00
O214   O     0.84597   0.08019   0.28213   0.00000  Uiso   1.00
O215   O     0.67712   0.22782   0.46192   0.00000  Uiso   1.00
O216   O     0.74878   0.13642   0.04464   0.00000  Uiso   1.00
O217   O     0.69866   0.17802   0.01140   0.00000  Uiso   1.00
O218   O     0.68973   0.18868   0.19534   0.00000  Uiso   1.00
O219   O     0.81298   0.26085   0.27013   0.00000  Uiso   1.00
O220   O     0.74078   0.13291   0.23413   0.00000  Uiso   1.00
O221   O     0.93360   0.19272   0.21360   0.00000  Uiso   1.00
O222   O     0.73738   0.18878   0.28213   0.00000  Uiso   1.00
O223   O     0.92158   0.15226   0.27013   0.00000  Uiso   1.00
O224   O     0.80426   0.06944   0.23413   0.00000  Uiso   1.00
O225   O     0.87012   0.25620   0.21360   0.00000  Uiso   1.00
S226   S     0.78321   0.33315   0.31982   0.00000  Uiso   1.00
S227   S     0.72212   0.21544   0.42320   0.00000  Uiso   1.00
Zn228  Zn    0.86005   0.13994   0.28734   0.00000  Uiso   1.00
Zn229  Zn    0.80046   0.12458   0.21875   0.00000  Uiso   1.00
Zn230  Zn    0.87723   0.19775   0.20657   0.00000  Uiso   1.00
Zn231  Zn    0.79560   0.20439   0.28733   0.00000  Uiso   1.00
C232   C     0.05266   0.49307   0.26075   0.00000  Uiso   1.00
C233   C     0.16546   0.48331   0.05887   0.00000  Uiso   1.00
C234   C     0.23775   0.46850   0.05572   0.00000  Uiso   1.00
C235   C     0.28086   0.50655   0.23944   0.00000  Uiso   1.00
C236   C     0.13448   0.52024   0.42163   0.00000  Uiso   1.00
C237   C     0.32708   0.50636   0.23296   0.00000  Uiso   1.00
C238   C     0.00739   0.49239   0.26503   0.00000  Uiso   1.00
C239   C     0.17725   0.65527   0.23669   0.00000  Uiso   1.00
C240   C     0.15137   0.34656   0.26698   0.00000  Uiso   1.00
C241   C     0.15698   0.38954   0.25982   0.00000  Uiso   1.00
C242   C     0.17618   0.61128   0.24059   0.00000  Uiso   1.00
C243   C     0.07536   0.51203   0.48962   0.00000  Uiso   1.00
C244   C     0.18561   0.48181   0.12929   0.00000  Uiso   1.00
C245   C     0.14784   0.51784   0.37143   0.00000  Uiso   1.00
C246   C     0.25004   0.47355   0.00951   0.00000  Uiso   1.00
C247   C     0.19569   0.47536   0.08044   0.00000  Uiso   1.00
C248   C     0.09119   0.52610   0.44622   0.00000  Uiso   1.00
C249   C     0.28695   0.42636   0.06124   0.00000  Uiso   1.00
C250   C     0.07769   0.42762   0.02897   0.00000  Uiso   1.00
C251   C     0.02682   0.54225   0.04748   0.00000  Uiso   1.00
C252   C     0.02407   0.49236   0.15850   0.00000  Uiso   1.00
C253   C     0.10183   0.49284   0.00831   0.00000  Uiso   1.00
C254   C     0.14706   0.49632   0.48916   0.00000  Uiso   1.00
C255   C     0.16314   0.50920   0.44478   0.00000  Uiso   1.00
C256   C     0.17673   0.48652   0.01206   0.00000  Uiso   1.00
C257   C     0.22049   0.48410   0.48817   0.00000  Uiso   1.00
C258   C     0.23531   0.49560   0.44424   0.00000  Uiso   1.00
C259   C     0.20776   0.51036   0.42402   0.00000  Uiso   1.00
H260   H     0.31855   0.48244   0.29614   0.00000  Uiso   1.00
H261   H     0.07992   0.36643   0.37897   0.00000  Uiso   1.00
H262   H     0.32123   0.53828   0.45888   0.00000  Uiso   1.00
H263   H     0.10967   0.41587   0.01482   0.00000  Uiso   1.00
H264   H     0.05865   0.42237   0.00357   0.00000  Uiso   1.00
H265   H     0.06002   0.40934   0.05780   0.00000  Uiso   1.00
H266   H     0.03963   0.57354   0.03555   0.00000  Uiso   1.00
H267   H     0.04249   0.53585   0.07327   0.00000  Uiso   1.00
H268   H     0.32522   0.54263   0.06387   0.00000  Uiso   1.00
H269   H     0.32854   0.49208   0.14567   0.00000  Uiso   1.00
H270   H     0.02691   0.46066   0.16674   0.00000  Uiso   1.00
H271   H     0.19994   0.33498   0.20739   0.00000  Uiso   1.00
H272   H     0.05306   0.50101   0.13123   0.00000  Uiso   1.00
H273   H     0.26900   0.49547   0.42621   0.00000  Uiso   1.00
H274   H     0.28337   0.47203   0.49085   0.00000  Uiso   1.00
H275   H     0.13496   0.49164   0.08008   0.00000  Uiso   1.00
H276   H     0.22220   0.52312   0.39191   0.00000  Uiso   1.00
H277   H     0.31102   0.43058   0.02843   0.00000  Uiso   1.00
H278   H     0.26247   0.39955   0.05826   0.00000  Uiso   1.00
H279   H     0.30446   0.41884   0.08497   0.00000  Uiso   1.00
O280   O     0.16667   0.50000   0.25000   0.00000  Uiso   1.00
O281   O     0.15451   0.45970   0.15458   0.00000  Uiso   1.00
O282   O     0.12940   0.53724   0.34968   0.00000  Uiso   1.00
O283   O     0.20824   0.51092   0.14606   0.00000  Uiso   1.00
O284   O     0.17451   0.49213   0.34968   0.00000  Uiso   1.00
O285   O     0.26780   0.46311   0.07842   0.00000  Uiso   1.00
O286   O     0.07914   0.63644   0.31279   0.00000  Uiso   1.00
O287   O     0.14110   0.64730   0.34562   0.00000  Uiso   1.00
O288   O     0.09754   0.37601   0.34967   0.00000  Uiso   1.00
O289   O     0.07795   0.58806   0.40273   0.00000  Uiso   1.00
O290   O     0.04285   0.51895   0.38725   0.00000  Uiso   1.00
O291   O     0.17930   0.41352   0.28213   0.00000  Uiso   1.00
O292   O     0.01046   0.56116   0.46192   0.00000  Uiso   1.00
O293   O     0.08211   0.46975   0.04464   0.00000  Uiso   1.00
O294   O     0.03199   0.51135   0.01140   0.00000  Uiso   1.00
O295   O     0.02307   0.52201   0.19534   0.00000  Uiso   1.00
O296   O     0.14632   0.59418   0.27013   0.00000  Uiso   1.00
O297   O     0.07412   0.46625   0.23413   0.00000  Uiso   1.00
O298   O     0.26693   0.52605   0.21360   0.00000  Uiso   1.00
O299   O     0.07071   0.52211   0.28213   0.00000  Uiso   1.00
O300   O     0.25491   0.48559   0.27013   0.00000  Uiso   1.00
O301   O     0.13760   0.40277   0.23413   0.00000  Uiso   1.00
O302   O     0.20345   0.58953   0.21360   0.00000  Uiso   1.00
S303   S     0.11655   0.66648   0.31982   0.00000  Uiso   1.00
S304   S     0.05545   0.54877   0.42320   0.00000  Uiso   1.00
Zn305  Zn    0.19338   0.47327   0.28734   0.00000  Uiso   1.00
Zn306  Zn    0.13379   0.45791   0.21875   0.00000  Uiso   1.00
Zn307  Zn    0.21056   0.53109   0.20657   0.00000  Uiso   1.00
Zn308  Zn    0.12893   0.53773   0.28733   0.00000  Uiso   1.00
C309   C     0.38600   0.49307   0.26075   0.00000  Uiso   1.00
C310   C     0.49879   0.48331   0.05887   0.00000  Uiso   1.00
C311   C     0.57108   0.46850   0.05572   0.00000  Uiso   1.00
C312   C     0.61420   0.50655   0.23944   0.00000  Uiso   1.00
C313   C     0.46781   0.52024   0.42163   0.00000  Uiso   1.00
C314   C     0.66042   0.50636   0.23296   0.00000  Uiso   1.00
C315   C     0.34073   0.49239   0.26503   0.00000  Uiso   1.00
C316   C     0.51058   0.65527   0.23669   0.00000  Uiso   1.00
C317   C     0.48470   0.34656   0.26698   0.00000  Uiso   1.00
C318   C     0.49031   0.38954   0.25982   0.00000  Uiso   1.00
C319   C     0.50951   0.61128   0.24059   0.00000  Uiso   1.00
C320   C     0.40869   0.51203   0.48962   0.00000  Uiso   1.00
C321   C     0.51895   0.48181   0.12929   0.00000  Uiso   1.00
C322   C     0.48118   0.51784   0.37143   0.00000  Uiso   1.00
C323   C     0.58338   0.47355   0.00951   0.00000  Uiso   1.00
C324   C     0.52903   0.47536   0.08044   0.00000  Uiso   1.00
C325   C     0.42452   0.52610   0.44622   0.00000  Uiso   1.00
C326   C     0.62028   0.42636   0.06124   0.00000  Uiso   1.00
C327   C     0.41102   0.42762   0.02897   0.00000  Uiso   1.00
C328   C     0.36015   0.54225   0.04748   0.00000  Uiso   1.00
C329   C     0.35740   0.49236   0.15850   0.00000  Uiso   1.00
C330   C     0.43517   0.49284   0.00831   0.00000  Uiso   1.00
C331   C     0.48039   0.49632   0.48916   0.00000  Uiso   1.00
C332   C     0.49648   0.50920   0.44478   0.00000  Uiso   1.00
C333   C     0.51007   0.48652   0.01206   0.00000  Uiso   1.00
C334   C     0.55383   0.48410   0.48817   0.00000  Uiso   1.00
C335   C     0.56865   0.49560   0.44424   0.00000  Uiso   1.00
C336   C     0.54110   0.51036   0.42402   0.00000  Uiso   1.00
H337   H     0.65188   0.48244   0.29614   0.00000  Uiso   1.00
H338   H     0.41325   0.36643   0.37897   0.00000  Uiso   1.00
H339   H     0.65457   0.53828   0.45888   0.00000  Uiso   1.00
H340   H     0.44300   0.41587   0.01482   0.00000  Uiso   1.00
H341   H     0.39198   0.42237   0.00357   0.00000  Uiso   1.00
H342   H     0.39336   0.40934   0.05780   0.00000  Uiso   1.00
H343   H     0.37296   0.57354   0.03555   0.00000  Uiso   1.00
H344   H     0.37583   0.53585   0.07327   0.00000  Uiso   1.00
H345   H     0.65856   0.54263   0.06387   0.00000  Uiso   1.00
H346   H     0.66187   0.49208   0.14567   0.00000  Uiso   1.00
H347   H     0.36025   0.46066   0.16674   0.00000  Uiso   1.00
H348   H     0.53327   0.33498   0.20739   0.00000  Uiso   1.00
H349   H     0.38639   0.50101   0.13123   0.00000  Uiso   1.00
H350   H     0.60233   0.49547   0.42621   0.00000  Uiso   1.00
H351   H     0.61670   0.47203   0.49085   0.00000  Uiso   1.00
H352   H     0.46829   0.49164   0.08008   0.00000  Uiso   1.00
H353   H     0.55553   0.52312   0.39191   0.00000  Uiso   1.00
H354   H     0.64436   0.43058   0.02843   0.00000  Uiso   1.00
H355   H     0.59580   0.39955   0.05826   0.00000  Uiso   1.00
H356   H     0.63780   0.41884   0.08497   0.00000  Uiso   1.00
O357   O     0.50000   0.50000   0.25000   0.00000  Uiso   1.00
O358   O     0.48784   0.45970   0.15458   0.00000  Uiso   1.00
O359   O     0.46274   0.53724   0.34968   0.00000  Uiso   1.00
O360   O     0.54157   0.51092   0.14606   0.00000  Uiso   1.00
O361   O     0.50785   0.49213   0.34968   0.00000  Uiso   1.00
O362   O     0.60114   0.46311   0.07842   0.00000  Uiso   1.00
O363   O     0.41247   0.63644   0.31279   0.00000  Uiso   1.00
O364   O     0.47444   0.64730   0.34562   0.00000  Uiso   1.00
O365   O     0.43087   0.37601   0.34967   0.00000  Uiso   1.00
O366   O     0.41128   0.58806   0.40273   0.00000  Uiso   1.00
O367   O     0.37618   0.51895   0.38725   0.00000  Uiso   1.00
O368   O     0.51264   0.41352   0.28213   0.00000  Uiso   1.00
O369   O     0.34379   0.56116   0.46192   0.00000  Uiso   1.00
O370   O     0.41544   0.46975   0.04464   0.00000  Uiso   1.00
O371   O     0.36533   0.51135   0.01140   0.00000  Uiso   1.00
O372   O     0.35640   0.52201   0.19534   0.00000  Uiso   1.00
O373   O     0.47965   0.59418   0.27013   0.00000  Uiso   1.00
O374   O     0.40745   0.46625   0.23413   0.00000  Uiso   1.00
O375   O     0.60026   0.52605   0.21360   0.00000  Uiso   1.00
O376   O     0.40405   0.52211   0.28213   0.00000  Uiso   1.00
O377   O     0.58824   0.48559   0.27013   0.00000  Uiso   1.00
O378   O     0.47093   0.40277   0.23413   0.00000  Uiso   1.00
O379   O     0.53678   0.58953   0.21360   0.00000  Uiso   1.00
S380   S     0.44988   0.66648   0.31982   0.00000  Uiso   1.00
S381   S     0.38879   0.54877   0.42320   0.00000  Uiso   1.00
Zn382  Zn    0.52672   0.47327   0.28734   0.00000  Uiso   1.00
Zn383  Zn    0.46713   0.45791   0.21875   0.00000  Uiso   1.00
Zn384  Zn    0.54389   0.53109   0.20657   0.00000  Uiso   1.00
Zn385  Zn    0.46226   0.53773   0.28733   0.00000  Uiso   1.00
C386   C     0.71933   0.49307   0.26075   0.00000  Uiso   1.00
C387   C     0.83212   0.48331   0.05887   0.00000  Uiso   1.00
C388   C     0.90442   0.46850   0.05572   0.00000  Uiso   1.00
C389   C     0.94753   0.50655   0.23944   0.00000  Uiso   1.00
C390   C     0.80115   0.52024   0.42163   0.00000  Uiso   1.00
C391   C     0.99375   0.50636   0.23296   0.00000  Uiso   1.00
C392   C     0.67406   0.49239   0.26503   0.00000  Uiso   1.00
C393   C     0.84392   0.65527   0.23669   0.00000  Uiso   1.00
C394   C     0.81803   0.34656   0.26698   0.00000  Uiso   1.00
C395   C     0.82365   0.38954   0.25982   0.00000  Uiso   1.00
C396   C     0.84285   0.61128   0.24059   0.00000  Uiso   1.00
C397   C     0.74202   0.51203   0.48962   0.00000  Uiso   1.00
C398   C     0.85228   0.48181   0.12929   0.00000  Uiso   1.00
C399   C     0.81451   0.51784   0.37143   0.00000  Uiso   1.00
C400   C     0.91671   0.47355   0.00951   0.00000  Uiso   1.00
C401   C     0.86236   0.47536   0.08044   0.00000  Uiso   1.00
C402   C     0.75786   0.52610   0.44622   0.00000  Uiso   1.00
C403   C     0.95362   0.42636   0.06124   0.00000  Uiso   1.00
C404   C     0.74436   0.42762   0.02897   0.00000  Uiso   1.00
C405   C     0.69348   0.54225   0.04748   0.00000  Uiso   1.00
C406   C     0.69073   0.49236   0.15850   0.00000  Uiso   1.00
C407   C     0.76850   0.49284   0.00831   0.00000  Uiso   1.00
C408   C     0.81373   0.49632   0.48916   0.00000  Uiso   1.00
C409   C     0.82981   0.50920   0.44478   0.00000  Uiso   1.00
C410   C     0.84340   0.48652   0.01206   0.00000  Uiso   1.00
C411   C     0.88716   0.48410   0.48817   0.00000  Uiso   1.00
C412   C     0.90198   0.49560   0.44424   0.00000  Uiso   1.00
C413   C     0.87443   0.51036   0.42402   0.00000  Uiso   1.00
H414   H     0.98522   0.48244   0.29614   0.00000  Uiso   1.00
H415   H     0.74659   0.36643   0.37897   0.00000  Uiso   1.00
H416   H     0.98790   0.53828   0.45888   0.00000  Uiso   1.00
H417   H     0.77634   0.41587   0.01482   0.00000  Uiso   1.00
H418   H     0.72531   0.42237   0.00357   0.00000  Uiso   1.00
H419   H     0.72669   0.40934   0.05780   0.00000  Uiso   1.00
H420   H     0.70630   0.57354   0.03555   0.00000  Uiso   1.00
H421   H     0.70916   0.53585   0.07327   0.00000  Uiso   1.00
H422   H     0.99189   0.54263   0.06387   0.00000  Uiso   1.00
H423   H     0.99521   0.49208   0.14567   0.00000  Uiso   1.00
H424   H     0.69358   0.46066   0.16674   0.00000  Uiso   1.00
H425   H     0.86660   0.33498   0.20739   0.00000  Uiso   1.00
H426   H     0.71972   0.50101   0.13123   0.00000  Uiso   1.00
H427   H     0.93567   0.49547   0.42621   0.00000  Uiso   1.00
H428   H     0.95004   0.47203   0.49085   0.00000  Uiso   1.00
H429   H     0.80162   0.49164   0.08008   0.00000  Uiso   1.00
H430   H     0.88887   0.52312   0.39191   0.00000  Uiso   1.00
H431   H     0.97769   0.43058   0.02843   0.00000  Uiso   1.00
H432   H     0.92913   0.39955   0.05826   0.00000  Uiso   1.00
H433   H     0.97113   0.41884   0.08497   0.00000  Uiso   1.00
O434   O     0.83333   0.50000   0.25000   0.00000  Uiso   1.00
O435   O     0.82118   0.45970   0.15458   0.00000  Uiso   1.00
O436   O     0.79607   0.53724   0.34968   0.00000  Uiso   1.00
O437   O     0.87491   0.51092   0.14606   0.00000  Uiso   1.00
O438   O     0.84118   0.49213   0.34968   0.00000  Uiso   1.00
O439   O     0.93447   0.46311   0.07842   0.00000  Uiso   1.00
O440   O     0.74581   0.63644   0.31279   0.00000  Uiso   1.00
O441   O     0.80777   0.64730   0.34562   0.00000  Uiso   1.00
O442   O     0.76421   0.37601   0.34967   0.00000  Uiso   1.00
O443   O     0.74462   0.58806   0.40273   0.00000  Uiso   1.00
O444   O     0.70952   0.51895   0.38725   0.00000  Uiso   1.00
O445   O     0.84597   0.41352   0.28213   0.00000  Uiso   1.00
O446   O     0.67712   0.56116   0.46192   0.00000  Uiso   1.00
O447   O     0.74878   0.46975   0.04464   0.00000  Uiso   1.00
O448   O     0.69866   0.51135   0.01140   0.00000  Uiso   1.00
O449   O     0.68973   0.52201   0.19534   0.00000  Uiso   1.00
O450   O     0.81298   0.59418   0.27013   0.00000  Uiso   1.00
O451   O     0.74078   0.46625   0.23413   0.00000  Uiso   1.00
O452   O     0.93360   0.52605   0.21360   0.00000  Uiso   1.00
O453   O     0.73738   0.52211   0.28213   0.00000  Uiso   1.00
O454   O     0.92158   0.48559   0.27013   0.00000  Uiso   1.00
O455   O     0.80426   0.40277   0.23413   0.00000  Uiso   1.00
O456   O     0.87012   0.58953   0.21360   0.00000  Uiso   1.00
S457   S     0.78321   0.66648   0.31982   0.00000  Uiso   1.00
S458   S     0.72212   0.54877   0.42320   0.00000  Uiso   1.00
Zn459  Zn    0.86005   0.47327   0.28734   0.00000  Uiso   1.00
Zn460  Zn    0.80046   0.45791   0.21875   0.00000  Uiso   1.00
Zn461  Zn    0.87723   0.53109   0.20657   0.00000  Uiso   1.00
Zn462  Zn    0.79560   0.53773   0.28733   0.00000  Uiso   1.00
C463   C     0.05266   0.82640   0.26075   0.00000  Uiso   1.00
C464   C     0.16546   0.81665   0.05887   0.00000  Uiso   1.00
C465   C     0.23775   0.80183   0.05572   0.00000  Uiso   1.00
C466   C     0.28086   0.83988   0.23944   0.00000  Uiso   1.00
C467   C     0.13448   0.85357   0.42163   0.00000  Uiso   1.00
C468   C     0.32708   0.83969   0.23296   0.00000  Uiso   1.00
C469   C     0.00739   0.82572   0.26503   0.00000  Uiso   1.00
C470   C     0.17725   0.98860   0.23669   0.00000  Uiso   1.00
C471   C     0.15137   0.67989   0.26698   0.00000  Uiso   1.00
C472   C     0.15698   0.72287   0.25982   0.00000  Uiso   1.00
C473   C     0.17618   0.94461   0.24059   0.00000  Uiso   1.00
C474   C     0.07536   0.84537   0.48962   0.00000  Uiso   1.00
C475   C     0.18561   0.81515   0.12929   0.00000  Uiso   1.00
C476   C     0.14784   0.85117   0.37143   0.00000  Uiso   1.00
C477   C     0.25004   0.80689   0.00951   0.00000  Uiso   1.00
C478   C     0.19569   0.80869   0.08044   0.00000  Uiso   1.00
C479   C     0.09119   0.85943   0.44622   0.00000  Uiso   1.00
C480   C     0.28695   0.75969   0.06124   0.00000  Uiso   1.00
C481   C     0.07769   0.76096   0.02897   0.00000  Uiso   1.00
C482   C     0.02682   0.87558   0.04748   0.00000  Uiso   1.00
C483   C     0.02407   0.82569   0.15850   0.00000  Uiso   1.00
C484   C     0.10183   0.82617   0.00831   0.00000  Uiso   1.00
C485   C     0.14706   0.82966   0.48916   0.00000  Uiso   1.00
C486   C     0.16314   0.84253   0.44478   0.00000  Uiso   1.00
C487   C     0.17673   0.81986   0.01206   0.00000  Uiso   1.00
C488   C     0.22049   0.81743   0.48817   0.00000  Uiso   1.00
C489   C     0.23531   0.82894   0.44424   0.00000  Uiso   1.00
C490   C     0.20776   0.84370   0.42402   0.00000  Uiso   1.00
H491   H     0.31855   0.81577   0.29614   0.00000  Uiso   1.00
H492   H     0.07992   0.69976   0.37897   0.00000  Uiso   1.00
H493   H     0.32123   0.87162   0.45888   0.00000  Uiso   1.00
H494   H     0.10967   0.74921   0.01482   0.00000  Uiso   1.00
H495   H     0.05865   0.75570   0.00357   0.00000  Uiso   1.00
H496   H     0.06002   0.74268   0.05780   0.00000  Uiso   1.00
H497   H     0.03963   0.90688   0.03555   0.00000  Uiso   1.00
H498   H     0.04249   0.86918   0.07327   0.00000  Uiso   1.00
H499   H     0.32522   0.87596   0.06387   0.00000  Uiso   1.00
H500   H     0.32854   0.82541   0.14567   0.00000  Uiso   1.00
H501   H     0.02691   0.79399   0.16674   0.00000  Uiso   1.00
H502   H     0.19994   0.66832   0.20739   0.00000  Uiso   1.00
H503   H     0.05306   0.83434   0.13123   0.00000  Uiso   1.00
H504   H     0.26900   0.82880   0.42621   0.00000  Uiso   1.00
H505   H     0.28337   0.80536   0.49085   0.00000  Uiso   1.00
H506   H     0.13496   0.82497   0.08008   0.00000  Uiso   1.00
H507   H     0.22220   0.85645   0.39191   0.00000  Uiso   1.00
H508   H     0.31102   0.76391   0.02843   0.00000  Uiso   1.00
H509   H     0.26247   0.73289   0.05826   0.00000  Uiso   1.00
H510   H     0.30446   0.75218   0.08497   0.00000  Uiso   1.00
O511   O     0.16667   0.83333   0.25000   0.00000  Uiso   1.00
O512   O     0.15451   0.79304   0.15458   0.00000  Uiso   1.00
O513   O     0.12940   0.87058   0.34968   0.00000  Uiso   1.00
O514   O     0.20824   0.84425   0.14606   0.00000  Uiso   1.00
O515   O     0.17451   0.82546   0.34968   0.00000  Uiso   1.00
O516   O     0.26780   0.79645   0.07842   0.00000  Uiso   1.00
O517   O     0.07914   0.96978   0.31279   0.00000  Uiso   1.00
O518   O     0.14110   0.98063   0.34562   0.00000  Uiso   1.00
O519   O     0.09754   0.70934   0.34967   0.00000  Uiso   1.00
O520   O     0.07795   0.92139   0.40273   0.00000  Uiso   1.00
O521   O     0.04285   0.85228   0.38725   0.00000  Uiso   1.00
O522   O     0.17930   0.74686   0.28213   0.00000  Uiso   1.00
O523   O     0.01046   0.89449   0.46192   0.00000  Uiso   1.00
O524   O     0.08211   0.80308   0.04464   0.00000  Uiso   1.00
O525   O     0.03199   0.84469   0.01140   0.00000  Uiso   1.00
O526   O     0.02307   0.85534   0.19534   0.00000  Uiso   1.00
O527   O     0.14632   0.92751   0.27013   0.00000  Uiso   1.00
O528   O     0.07412   0.79958   0.23413   0.00000  Uiso   1.00
O529   O     0.26693   0.85939   0.21360   0.00000  Uiso   1.00
O530   O     0.07071   0.85544   0.28213   0.00000  Uiso   1.00
O531   O     0.25491   0.81892   0.27013   0.00000  Uiso   1.00
O532   O     0.13760   0.73610   0.23413   0.00000  Uiso   1.00
O533   O     0.20345   0.92286   0.21360   0.00000  Uiso   1.00
S534   S     0.11655   0.99981   0.31982   0.00000  Uiso   1.00
S535   S     0.05545   0.88210   0.42320   0.00000  Uiso   1.00
Zn536  Zn    0.19338   0.80661   0.28734   0.00000  Uiso   1.00
Zn537  Zn    0.13379   0.79124   0.21875   0.00000  Uiso   1.00
Zn538  Zn    0.21056   0.86442   0.20657   0.00000  Uiso   1.00
Zn539  Zn    0.12893   0.87106   0.28733   0.00000  Uiso   1.00
C540   C     0.38600   0.82640   0.26075   0.00000  Uiso   1.00
C541   C     0.49879   0.81665   0.05887   0.00000  Uiso   1.00
C542   C     0.57108   0.80183   0.05572   0.00000  Uiso   1.00
C543   C     0.61420   0.83988   0.23944   0.00000  Uiso   1.00
C544   C     0.46781   0.85357   0.42163   0.00000  Uiso   1.00
C545   C     0.66042   0.83969   0.23296   0.00000  Uiso   1.00
C546   C     0.34073   0.82572   0.26503   0.00000  Uiso   1.00
C547   C     0.51058   0.98860   0.23669   0.00000  Uiso   1.00
C548   C     0.48470   0.67989   0.26698   0.00000  Uiso   1.00
C549   C     0.49031   0.72287   0.25982   0.00000  Uiso   1.00
C550   C     0.50951   0.94461   0.24059   0.00000  Uiso   1.00
C551   C     0.40869   0.84537   0.48962   0.00000  Uiso   1.00
C552   C     0.51895   0.81515   0.12929   0.00000  Uiso   1.00
C553   C     0.48118   0.85117   0.37143   0.00000  Uiso   1.00
C554   C     0.58338   0.80689   0.00951   0.00000  Uiso   1.00
C555   C     0.52903   0.80869   0.08044   0.00000  Uiso   1.00
C556   C     0.42452   0.85943   0.44622   0.00000  Uiso   1.00
C557   C     0.62028   0.75969   0.06124   0.00000  Uiso   1.00
C558   C     0.41102   0.76096   0.02897   0.00000  Uiso   1.00
C559   C     0.36015   0.87558   0.04748   0.00000  Uiso   1.00
C560   C     0.35740   0.82569   0.15850   0.00000  Uiso   1.00
C561   C     0.43517   0.82617   0.00831   0.00000  Uiso   1.00
C562   C     0.48039   0.82966   0.48916   0.00000  Uiso   1.00
C563   C     0.49648   0.84253   0.44478   0.00000  Uiso   1.00
C564   C     0.51007   0.81986   0.01206   0.00000  Uiso   1.00
C565   C     0.55383   0.81743   0.48817   0.00000  Uiso   1.00
C566   C     0.56865   0.82894   0.44424   0.00000  Uiso   1.00
C567   C     0.54110   0.84370   0.42402   0.00000  Uiso   1.00
H568   H     0.65188   0.81577   0.29614   0.00000  Uiso   1.00
H569   H     0.41325   0.69976   0.37897   0.00000  Uiso   1.00
H570   H     0.65457   0.87162   0.45888   0.00000  Uiso   1.00
H571   H     0.44300   0.74921   0.01482   0.00000  Uiso   1.00
H572   H     0.39198   0.75570   0.00357   0.00000  Uiso   1.00
H573   H     0.39336   0.74268   0.05780   0.00000  Uiso   1.00
H574   H     0.37296   0.90688   0.03555   0.00000  Uiso   1.00
H575   H     0.37583   0.86918   0.07327   0.00000  Uiso   1.00
H576   H     0.65856   0.87596   0.06387   0.00000  Uiso   1.00
H577   H     0.66187   0.82541   0.14567   0.00000  Uiso   1.00
H578   H     0.36025   0.79399   0.16674   0.00000  Uiso   1.00
H579   H     0.53327   0.66832   0.20739   0.00000  Uiso   1.00
H580   H     0.38639   0.83434   0.13123   0.00000  Uiso   1.00
H581   H     0.60233   0.82880   0.42621   0.00000  Uiso   1.00
H582   H     0.61670   0.80536   0.49085   0.00000  Uiso   1.00
H583   H     0.46829   0.82497   0.08008   0.00000  Uiso   1.00
H584   H     0.55553   0.85645   0.39191   0.00000  Uiso   1.00
H585   H     0.64436   0.76391   0.02843   0.00000  Uiso   1.00
H586   H     0.59580   0.73289   0.05826   0.00000  Uiso   1.00
H587   H     0.63780   0.75218   0.08497   0.00000  Uiso   1.00
O588   O     0.50000   0.83333   0.25000   0.00000  Uiso   1.00
O589   O     0.48784   0.79304   0.15458   0.00000  Uiso   1.00
O590   O     0.46274   0.87058   0.34968   0.00000  Uiso   1.00
O591   O     0.54157   0.84425   0.14606   0.00000  Uiso   1.00
O592   O     0.50785   0.82546   0.34968   0.00000  Uiso   1.00
O593   O     0.60114   0.79645   0.07842   0.00000  Uiso   1.00
O594   O     0.41247   0.96978   0.31279   0.00000  Uiso   1.00
O595   O     0.47444   0.98063   0.34562   0.00000  Uiso   1.00
O596   O     0.43087   0.70934   0.34967   0.00000  Uiso   1.00
O597   O     0.41128   0.92139   0.40273   0.00000  Uiso   1.00
O598   O     0.37618   0.85228   0.38725   0.00000  Uiso   1.00
O599   O     0.51264   0.74686   0.28213   0.00000  Uiso   1.00
O600   O     0.34379   0.89449   0.46192   0.00000  Uiso   1.00
O601   O     0.41544   0.80308   0.04464   0.00000  Uiso   1.00
O602   O     0.36533   0.84469   0.01140   0.00000  Uiso   1.00
O603   O     0.35640   0.85534   0.19534   0.00000  Uiso   1.00
O604   O     0.47965   0.92751   0.27013   0.00000  Uiso   1.00
O605   O     0.40745   0.79958   0.23413   0.00000  Uiso   1.00
O606   O     0.60026   0.85939   0.21360   0.00000  Uiso   1.00
O607   O     0.40405   0.85544   0.28213   0.00000  Uiso   1.00
O608   O     0.58824   0.81892   0.27013   0.00000  Uiso   1.00
O609   O     0.47093   0.73610   0.23413   0.00000  Uiso   1.00
O610   O     0.53678   0.92286   0.21360   0.00000  Uiso   1.00
S611   S     0.44988   0.99981   0.31982   0.00000  Uiso   1.00
S612   S     0.38879   0.88210   0.42320   0.00000  Uiso   1.00
Zn613  Zn    0.52672   0.80661   0.28734   0.00000  Uiso   1.00
Zn614  Zn    0.46713   0.79124   0.21875   0.00000  Uiso   1.00
Zn615  Zn    0.54389   0.86442   0.20657   0.00000  Uiso   1.00
Zn616  Zn    0.46226   0.87106   0.28733   0.00000  Uiso   1.00
C617   C     0.71933   0.82640   0.26075   0.00000  Uiso   1.00
C618   C     0.83212   0.81665   0.05887   0.00000  Uiso   1.00
C619   C     0.90442   0.80183   0.05572   0.00000  Uiso   1.00
C620   C     0.94753   0.83988   0.23944   0.00000  Uiso   1.00
C621   C     0.80115   0.85357   0.42163   0.00000  Uiso   1.00
C622   C     0.99375   0.83969   0.23296   0.00000  Uiso   1.00
C623   C     0.67406   0.82572   0.26503   0.00000  Uiso   1.00
C624   C     0.84392   0.98860   0.23669   0.00000  Uiso   1.00
C625   C     0.81803   0.67989   0.26698   0.00000  Uiso   1.00
C626   C     0.82365   0.72287   0.25982   0.00000  Uiso   1.00
C627   C     0.84285   0.94461   0.24059   0.00000  Uiso   1.00
C628   C     0.74202   0.84537   0.48962   0.00000  Uiso   1.00
C629   C     0.85228   0.81515   0.12929   0.00000  Uiso   1.00
C630   C     0.81451   0.85117   0.37143   0.00000  Uiso   1.00
C631   C     0.91671   0.80689   0.00951   0.00000  Uiso   1.00
C632   C     0.86236   0.80869   0.08044   0.00000  Uiso   1.00
C633   C     0.75786   0.85943   0.44622   0.00000  Uiso   1.00
C634   C     0.95362   0.75969   0.06124   0.00000  Uiso   1.00
C635   C     0.74436   0.76096   0.02897   0.00000  Uiso   1.00
C636   C     0.69348   0.87558   0.04748   0.00000  Uiso   1.00
C637   C     0.69073   0.82569   0.15850   0.00000  Uiso   1.00
C638   C     0.76850   0.82617   0.00831   0.00000  Uiso   1.00
C639   C     0.81373   0.82966   0.48916   0.00000  Uiso   1.00
C640   C     0.82981   0.84253   0.44478   0.00000  Uiso   1.00
C641   C     0.84340   0.81986   0.01206   0.00000  Uiso   1.00
C642   C     0.88716   0.81743   0.48817   0.00000  Uiso   1.00
C643   C     0.90198   0.82894   0.44424   0.00000  Uiso   1.00
C644   C     0.87443   0.84370   0.42402   0.00000  Uiso   1.00
H645   H     0.98522   0.81577   0.29614   0.00000  Uiso   1.00
H646   H     0.74659   0.69976   0.37897   0.00000  Uiso   1.00
H647   H     0.98790   0.87162   0.45888   0.00000  Uiso   1.00
H648   H     0.77634   0.74921   0.01482   0.00000  Uiso   1.00
H649   H     0.72531   0.75570   0.00357   0.00000  Uiso   1.00
H650   H     0.72669   0.74268   0.05780   0.00000  Uiso   1.00
H651   H     0.70630   0.90688   0.03555   0.00000  Uiso   1.00
H652   H     0.70916   0.86918   0.07327   0.00000  Uiso   1.00
H653   H     0.99189   0.87596   0.06387   0.00000  Uiso   1.00
H654   H     0.99521   0.82541   0.14567   0.00000  Uiso   1.00
H655   H     0.69358   0.79399   0.16674   0.00000  Uiso   1.00
H656   H     0.86660   0.66832   0.20739   0.00000  Uiso   1.00
H657   H     0.71972   0.83434   0.13123   0.00000  Uiso   1.00
H658   H     0.93567   0.82880   0.42621   0.00000  Uiso   1.00
H659   H     0.95004   0.80536   0.49085   0.00000  Uiso   1.00
H660   H     0.80162   0.82497   0.08008   0.00000  Uiso   1.00
H661   H     0.88887   0.85645   0.39191   0.00000  Uiso   1.00
H662   H     0.97769   0.76391   0.02843   0.00000  Uiso   1.00
H663   H     0.92913   0.73289   0.05826   0.00000  Uiso   1.00
H664   H     0.97113   0.75218   0.08497   0.00000  Uiso   1.00
O665   O     0.83333   0.83333   0.25000   0.00000  Uiso   1.00
O666   O     0.82118   0.79304   0.15458   0.00000  Uiso   1.00
O667   O     0.79607   0.87058   0.34968   0.00000  Uiso   1.00
O668   O     0.87491   0.84425   0.14606   0.00000  Uiso   1.00
O669   O     0.84118   0.82546   0.34968   0.00000  Uiso   1.00
O670   O     0.93447   0.79645   0.07842   0.00000  Uiso   1.00
O671   O     0.74581   0.96978   0.31279   0.00000  Uiso   1.00
O672   O     0.80777   0.98063   0.34562   0.00000  Uiso   1.00
O673   O     0.76421   0.70934   0.34967   0.00000  Uiso   1.00
O674   O     0.74462   0.92139   0.40273   0.00000  Uiso   1.00
O675   O     0.70952   0.85228   0.38725   0.00000  Uiso   1.00
O676   O     0.84597   0.74686   0.28213   0.00000  Uiso   1.00
O677   O     0.67712   0.89449   0.46192   0.00000  Uiso   1.00
O678   O     0.74878   0.80308   0.04464   0.00000  Uiso   1.00
O679   O     0.69866   0.84469   0.01140   0.00000  Uiso   1.00
O680   O     0.68973   0.85534   0.19534   0.00000  Uiso   1.00
O681   O     0.81298   0.92751   0.27013   0.00000  Uiso   1.00
O682   O     0.74078   0.79958   0.23413   0.00000  Uiso   1.00
O683   O     0.93360   0.85939   0.21360   0.00000  Uiso   1.00
O684   O     0.73738   0.85544   0.28213   0.00000  Uiso   1.00
O685   O     0.92158   0.81892   0.27013   0.00000  Uiso   1.00
O686   O     0.80426   0.73610   0.23413   0.00000  Uiso   1.00
O687   O     0.87012   0.92286   0.21360   0.00000  Uiso   1.00
S688   S     0.78321   0.99981   0.31982   0.00000  Uiso   1.00
S689   S     0.72212   0.88210   0.42320   0.00000  Uiso   1.00
Zn690  Zn    0.86005   0.80661   0.28734   0.00000  Uiso   1.00
Zn691  Zn    0.80046   0.79124   0.21875   0.00000  Uiso   1.00
Zn692  Zn    0.87723   0.86442   0.20657   0.00000  Uiso   1.00
Zn693  Zn    0.79560   0.87106   0.28733   0.00000  Uiso   1.00
C694   C     0.05266   0.15973   0.76075   0.00000  Uiso   1.00
C695   C     0.16546   0.14998   0.55887   0.00000  Uiso   1.00
C696   C     0.23775   0.13516   0.55572   0.00000  Uiso   1.00
C697   C     0.28086   0.17322   0.73944   0.00000  Uiso   1.00
C698   C     0.13448   0.18690   0.92163   0.00000  Uiso   1.00
C699   C     0.32708   0.17303   0.73296   0.00000  Uiso   1.00
C700   C     0.00739   0.15906   0.76503   0.00000  Uiso   1.00
C701   C     0.17725   0.32194   0.73669   0.00000  Uiso   1.00
C702   C     0.15137   0.01323   0.76698   0.00000  Uiso   1.00
C703   C     0.15698   0.05620   0.75982   0.00000  Uiso   1.00
C704   C     0.17618   0.27794   0.74059   0.00000  Uiso   1.00
C705   C     0.07536   0.17870   0.98962   0.00000  Uiso   1.00
C706   C     0.18561   0.14848   0.62929   0.00000  Uiso   1.00
C707   C     0.14784   0.18451   0.87143   0.00000  Uiso   1.00
C708   C     0.25004   0.14022   0.50951   0.00000  Uiso   1.00
C709   C     0.19569   0.14202   0.58044   0.00000  Uiso   1.00
C710   C     0.09119   0.19277   0.94622   0.00000  Uiso   1.00
C711   C     0.28695   0.09303   0.56124   0.00000  Uiso   1.00
C712   C     0.07769   0.09429   0.52897   0.00000  Uiso   1.00
C713   C     0.02682   0.20891   0.54748   0.00000  Uiso   1.00
C714   C     0.02407   0.15903   0.65850   0.00000  Uiso   1.00
C715   C     0.10183   0.15950   0.50831   0.00000  Uiso   1.00
C716   C     0.14706   0.16299   0.98916   0.00000  Uiso   1.00
C717   C     0.16314   0.17586   0.94478   0.00000  Uiso   1.00
C718   C     0.17673   0.15319   0.51206   0.00000  Uiso   1.00
C719   C     0.22049   0.15076   0.98817   0.00000  Uiso   1.00
C720   C     0.23531   0.16227   0.94424   0.00000  Uiso   1.00
C721   C     0.20776   0.17703   0.92402   0.00000  Uiso   1.00
H722   H     0.31855   0.14911   0.79614   0.00000  Uiso   1.00
H723   H     0.07992   0.03309   0.87897   0.00000  Uiso   1.00
H724   H     0.32123   0.20495   0.95888   0.00000  Uiso   1.00
H725   H     0.10967   0.08254   0.51482   0.00000  Uiso   1.00
H726   H     0.05865   0.08903   0.50357   0.00000  Uiso   1.00
H727   H     0.06002   0.07601   0.55780   0.00000  Uiso   1.00
H728   H     0.03963   0.24021   0.53555   0.00000  Uiso   1.00
H729   H     0.04249   0.20252   0.57327   0.00000  Uiso   1.00
H730   H     0.32522   0.20929   0.56387   0.00000  Uiso   1.00
H731   H     0.32854   0.15875   0.64567   0.00000  Uiso   1.00
H732   H     0.02691   0.12733   0.66674   0.00000  Uiso   1.00
H733   H     0.19994   0.00165   0.70739   0.00000  Uiso   1.00
H734   H     0.05306   0.16768   0.63123   0.00000  Uiso   1.00
H735   H     0.26900   0.16214   0.92621   0.00000  Uiso   1.00
H736   H     0.28337   0.13870   0.99085   0.00000  Uiso   1.00
H737   H     0.13496   0.15831   0.58008   0.00000  Uiso   1.00
H738   H     0.22220   0.18978   0.89191   0.00000  Uiso   1.00
H739   H     0.31102   0.09724   0.52843   0.00000  Uiso   1.00
H740   H     0.26247   0.06622   0.55826   0.00000  Uiso   1.00
H741   H     0.30446   0.08551   0.58497   0.00000  Uiso   1.00
O742   O     0.16667   0.16667   0.75000   0.00000  Uiso   1.00
O743   O     0.15451   0.12637   0.65458   0.00000  Uiso   1.00
O744   O     0.12940   0.20391   0.84968   0.00000  Uiso   1.00
O745   O     0.20824   0.17759   0.64606   0.00000  Uiso   1.00
O746   O     0.17451   0.15880   0.84968   0.00000  Uiso   1.00
O747   O     0.26780   0.12978   0.57842   0.00000  Uiso   1.00
O748   O     0.07914   0.30311   0.81279   0.00000  Uiso   1.00
O749   O     0.14110   0.31397   0.84562   0.00000  Uiso   1.00
O750   O     0.09754   0.04267   0.84967   0.00000  Uiso   1.00
O751   O     0.07795   0.25472   0.90273   0.00000  Uiso   1.00
O752   O     0.04285   0.18562   0.88725   0.00000  Uiso   1.00
O753   O     0.17930   0.08019   0.78213   0.00000  Uiso   1.00
O754   O     0.01046   0.22782   0.96192   0.00000  Uiso   1.00
O755   O     0.08211   0.13642   0.54464   0.00000  Uiso   1.00
O756   O     0.03199   0.17802   0.51140   0.00000  Uiso   1.00
O757   O     0.02307   0.18868   0.69534   0.00000  Uiso   1.00
O758   O     0.14632   0.26085   0.77013   0.00000  Uiso   1.00
O759   O     0.07412   0.13291   0.73413   0.00000  Uiso   1.00
O760   O     0.26693   0.19272   0.71360   0.00000  Uiso   1.00
O761   O     0.07071   0.18878   0.78213   0.00000  Uiso   1.00
O762   O     0.25491   0.15226   0.77013   0.00000  Uiso   1.00
O763   O     0.13760   0.06944   0.73413   0.00000  Uiso   1.00
O764   O     0.20345   0.25620   0.71360   0.00000  Uiso   1.00
S765   S     0.11655   0.33315   0.81982   0.00000  Uiso   1.00
S766   S     0.05545   0.21544   0.92320   0.00000  Uiso   1.00
Zn767  Zn    0.19338   0.13994   0.78734   0.00000  Uiso   1.00
Zn768  Zn    0.13379   0.12458   0.71875   0.00000  Uiso   1.00
Zn769  Zn    0.21056   0.19775   0.70657   0.00000  Uiso   1.00
Zn770  Zn    0.12893   0.20439   0.78733   0.00000  Uiso   1.00
C771   C     0.38600   0.15973   0.76075   0.00000  Uiso   1.00
C772   C     0.49879   0.14998   0.55887   0.00000  Uiso   1.00
C773   C     0.57108   0.13516   0.55572   0.00000  Uiso   1.00
C774   C     0.61420   0.17322   0.73944   0.00000  Uiso   1.00
C775   C     0.46781   0.18690   0.92163   0.00000  Uiso   1.00
C776   C     0.66042   0.17303   0.73296   0.00000  Uiso   1.00
C777   C     0.34073   0.15906   0.76503   0.00000  Uiso   1.00
C778   C     0.51058   0.32194   0.73669   0.00000  Uiso   1.00
C779   C     0.48470   0.01323   0.76698   0.00000  Uiso   1.00
C780   C     0.49031   0.05620   0.75982   0.00000  Uiso   1.00
C781   C     0.50951   0.27794   0.74059   0.00000  Uiso   1.00
C782   C     0.40869   0.17870   0.98962   0.00000  Uiso   1.00
C783   C     0.51895   0.14848   0.62929   0.00000  Uiso   1.00
C784   C     0.48118   0.18451   0.87143   0.00000  Uiso   1.00
C785   C     0.58338   0.14022   0.50951   0.00000  Uiso   1.00
C786   C     0.52903   0.14202   0.58044   0.00000  Uiso   1.00
C787   C     0.42452   0.19277   0.94622   0.00000  Uiso   1.00
C788   C     0.62028   0.09303   0.56124   0.00000  Uiso   1.00
C789   C     0.41102   0.09429   0.52897   0.00000  Uiso   1.00
C790   C     0.36015   0.20891   0.54748   0.00000  Uiso   1.00
C791   C     0.35740   0.15903   0.65850   0.00000  Uiso   1.00
C792   C     0.43517   0.15950   0.50831   0.00000  Uiso   1.00
C793   C     0.48039   0.16299   0.98916   0.00000  Uiso   1.00
C794   C     0.49648   0.17586   0.94478   0.00000  Uiso   1.00
C795   C     0.51007   0.15319   0.51206   0.00000  Uiso   1.00
C796   C     0.55383   0.15076   0.98817   0.00000  Uiso   1.00
C797   C     0.56865   0.16227   0.94424   0.00000  Uiso   1.00
C798   C     0.54110   0.17703   0.92402   0.00000  Uiso   1.00
H799   H     0.65188   0.14911   0.79614   0.00000  Uiso   1.00
H800   H     0.41325   0.03309   0.87897   0.00000  Uiso   1.00
H801   H     0.65457   0.20495   0.95888   0.00000  Uiso   1.00
H802   H     0.44300   0.08254   0.51482   0.00000  Uiso   1.00
H803   H     0.39198   0.08903   0.50357   0.00000  Uiso   1.00
H804   H     0.39336   0.07601   0.55780   0.00000  Uiso   1.00
H805   H     0.37296   0.24021   0.53555   0.00000  Uiso   1.00
H806   H     0.37583   0.20252   0.57327   0.00000  Uiso   1.00
H807   H     0.65856   0.20929   0.56387   0.00000  Uiso   1.00
H808   H     0.66187   0.15875   0.64567   0.00000  Uiso   1.00
H809   H     0.36025   0.12733   0.66674   0.00000  Uiso   1.00
H810   H     0.53327   0.00165   0.70739   0.00000  Uiso   1.00
H811   H     0.38639   0.16768   0.63123   0.00000  Uiso   1.00
H812   H     0.60233   0.16214   0.92621   0.00000  Uiso   1.00
H813   H     0.61670   0.13870   0.99085   0.00000  Uiso   1.00
H814   H     0.46829   0.15831   0.58008   0.00000  Uiso   1.00
H815   H     0.55553   0.18978   0.89191   0.00000  Uiso   1.00
H816   H     0.64436   0.09724   0.52843   0.00000  Uiso   1.00
H817   H     0.59580   0.06622   0.55826   0.00000  Uiso   1.00
H818   H     0.63780   0.08551   0.58497   0.00000  Uiso   1.00
O819   O     0.50000   0.16667   0.75000   0.00000  Uiso   1.00
O820   O     0.48784   0.12637   0.65458   0.00000  Uiso   1.00
O821   O     0.46274   0.20391   0.84968   0.00000  Uiso   1.00
O822   O     0.54157   0.17759   0.64606   0.00000  Uiso   1.00
O823   O     0.50785   0.15880   0.84968   0.00000  Uiso   1.00
O824   O     0.60114   0.12978   0.57842   0.00000  Uiso   1.00
O825   O     0.41247   0.30311   0.81279   0.00000  Uiso   1.00
O826   O     0.47444   0.31397   0.84562   0.00000  Uiso   1.00
O827   O     0.43087   0.04267   0.84967   0.00000  Uiso   1.00
O828   O     0.41128   0.25472   0.90273   0.00000  Uiso   1.00
O829   O     0.37618   0.18562   0.88725   0.00000  Uiso   1.00
O830   O     0.51264   0.08019   0.78213   0.00000  Uiso   1.00
O831   O     0.34379   0.22782   0.96192   0.00000  Uiso   1.00
O832   O     0.41544   0.13642   0.54464   0.00000  Uiso   1.00
O833   O     0.36533   0.17802   0.51140   0.00000  Uiso   1.00
O834   O     0.35640   0.18868   0.69534   0.00000  Uiso   1.00
O835   O     0.47965   0.26085   0.77013   0.00000  Uiso   1.00
O836   O     0.40745   0.13291   0.73413   0.00000  Uiso   1.00
O837   O     0.60026   0.19272   0.71360   0.00000  Uiso   1.00
O838   O     0.40405   0.18878   0.78213   0.00000  Uiso   1.00
O839   O     0.58824   0.15226   0.77013   0.00000  Uiso   1.00
O840   O     0.47093   0.06944   0.73413   0.00000  Uiso   1.00
O841   O     0.53678   0.25620   0.71360   0.00000  Uiso   1.00
S842   S     0.44988   0.33315   0.81982   0.00000  Uiso   1.00
S843   S     0.38879   0.21544   0.92320   0.00000  Uiso   1.00
Zn844  Zn    0.52672   0.13994   0.78734   0.00000  Uiso   1.00
Zn845  Zn    0.46713   0.12458   0.71875   0.00000  Uiso   1.00
Zn846  Zn    0.54389   0.19775   0.70657   0.00000  Uiso   1.00
Zn847  Zn    0.46226   0.20439   0.78733   0.00000  Uiso   1.00
C848   C     0.71933   0.15973   0.76075   0.00000  Uiso   1.00
C849   C     0.83212   0.14998   0.55887   0.00000  Uiso   1.00
C850   C     0.90442   0.13516   0.55572   0.00000  Uiso   1.00
C851   C     0.94753   0.17322   0.73944   0.00000  Uiso   1.00
C852   C     0.80115   0.18690   0.92163   0.00000  Uiso   1.00
C853   C     0.99375   0.17303   0.73296   0.00000  Uiso   1.00
C854   C     0.67406   0.15906   0.76503   0.00000  Uiso   1.00
C855   C     0.84392   0.32194   0.73669   0.00000  Uiso   1.00
C856   C     0.81803   0.01323   0.76698   0.00000  Uiso   1.00
C857   C     0.82365   0.05620   0.75982   0.00000  Uiso   1.00
C858   C     0.84285   0.27794   0.74059   0.00000  Uiso   1.00
C859   C     0.74202   0.17870   0.98962   0.00000  Uiso   1.00
C860   C     0.85228   0.14848   0.62929   0.00000  Uiso   1.00
C861   C     0.81451   0.18451   0.87143   0.00000  Uiso   1.00
C862   C     0.91671   0.14022   0.50951   0.00000  Uiso   1.00
C863   C     0.86236   0.14202   0.58044   0.00000  Uiso   1.00
C864   C     0.75786   0.19277   0.94622   0.00000  Uiso   1.00
C865   C     0.95362   0.09303   0.56124   0.00000  Uiso   1.00
C866   C     0.74436   0.09429   0.52897   0.00000  Uiso   1.00
C867   C     0.69348   0.20891   0.54748   0.00000  Uiso   1.00
C868   C     0.69073   0.15903   0.65850   0.00000  Uiso   1.00
C869   C     0.76850   0.15950   0.50831   0.00000  Uiso   1.00
C870   C     0.81373   0.16299   0.98916   0.00000  Uiso   1.00
C871   C     0.82981   0.17586   0.94478   0.00000  Uiso   1.00
C872   C     0.84340   0.15319   0.51206   0.00000  Uiso   1.00
C873   C     0.88716   0.15076   0.98817   0.00000  Uiso   1.00
C874   C     0.90198   0.16227   0.94424   0.00000  Uiso   1.00
C875   C     0.87443   0.17703   0.92402   0.00000  Uiso   1.00
H876   H     0.98522   0.14911   0.79614   0.00000  Uiso   1.00
H877   H     0.74659   0.03309   0.87897   0.00000  Uiso   1.00
H878   H     0.98790   0.20495   0.95888   0.00000  Uiso   1.00
H879   H     0.77634   0.08254   0.51482   0.00000  Uiso   1.00
H880   H     0.72531   0.08903   0.50357   0.00000  Uiso   1.00
H881   H     0.72669   0.07601   0.55780   0.00000  Uiso   1.00
H882   H     0.70630   0.24021   0.53555   0.00000  Uiso   1.00
H883   H     0.70916   0.20252   0.57327   0.00000  Uiso   1.00
H884   H     0.99189   0.20929   0.56387   0.00000  Uiso   1.00
H885   H     0.99521   0.15875   0.64567   0.00000  Uiso   1.00
H886   H     0.69358   0.12733   0.66674   0.00000  Uiso   1.00
H887   H     0.86660   0.00165   0.70739   0.00000  Uiso   1.00
H888   H     0.71972   0.16768   0.63123   0.00000  Uiso   1.00
H889   H     0.93567   0.16214   0.92621   0.00000  Uiso   1.00
H890   H     0.95004   0.13870   0.99085   0.00000  Uiso   1.00
H891   H     0.80162   0.15831   0.58008   0.00000  Uiso   1.00
H892   H     0.88887   0.18978   0.89191   0.00000  Uiso   1.00
H893   H     0.97769   0.09724   0.52843   0.00000  Uiso   1.00
H894   H     0.92913   0.06622   0.55826   0.00000  Uiso   1.00
H895   H     0.97113   0.08551   0.58497   0.00000  Uiso   1.00
O896   O     0.83333   0.16667   0.75000   0.00000  Uiso   1.00
O897   O     0.82118   0.12637   0.65458   0.00000  Uiso   1.00
O898   O     0.79607   0.20391   0.84968   0.00000  Uiso   1.00
O899   O     0.87491   0.17759   0.64606   0.00000  Uiso   1.00
O900   O     0.84118   0.15880   0.84968   0.00000  Uiso   1.00
O901   O     0.93447   0.12978   0.57842   0.00000  Uiso   1.00
O902   O     0.74581   0.30311   0.81279   0.00000  Uiso   1.00
O903   O     0.80777   0.31397   0.84562   0.00000  Uiso   1.00
O904   O     0.76421   0.04267   0.84967   0.00000  Uiso   1.00
O905   O     0.74462   0.25472   0.90273   0.00000  Uiso   1.00
O906   O     0.70952   0.18562   0.88725   0.00000  Uiso   1.00
O907   O     0.84597   0.08019   0.78213   0.00000  Uiso   1.00
O908   O     0.67712   0.22782   0.96192   0.00000  Uiso   1.00
O909   O     0.74878   0.13642   0.54464   0.00000  Uiso   1.00
O910   O     0.69866   0.17802   0.51140   0.00000  Uiso   1.00
O911   O     0.68973   0.18868   0.69534   0.00000  Uiso   1.00
O912   O     0.81298   0.26085   0.77013   0.00000  Uiso   1.00
O913   O     0.74078   0.13291   0.73413   0.00000  Uiso   1.00
O914   O     0.93360   0.19272   0.71360   0.00000  Uiso   1.00
O915   O     0.73738   0.18878   0.78213   0.00000  Uiso   1.00
O916   O     0.92158   0.15226   0.77013   0.00000  Uiso   1.00
O917   O     0.80426   0.06944   0.73413   0.00000  Uiso   1.00
O918   O     0.87012   0.25620   0.71360   0.00000  Uiso   1.00
S919   S     0.78321   0.33315   0.81982   0.00000  Uiso   1.00
S920   S     0.72212   0.21544   0.92320   0.00000  Uiso   1.00
Zn921  Zn    0.86005   0.13994   0.78734   0.00000  Uiso   1.00
Zn922  Zn    0.80046   0.12458   0.71875   0.00000  Uiso   1.00
Zn923  Zn    0.87723   0.19775   0.70657   0.00000  Uiso   1.00
Zn924  Zn    0.79560   0.20439   0.78733   0.00000  Uiso   1.00
C925   C     0.05266   0.49307   0.76075   0.00000  Uiso   1.00
C926   C     0.16546   0.48331   0.55887   0.00000  Uiso   1.00
C927   C     0.23775   0.46850   0.55572   0.00000  Uiso   1.00
C928   C     0.28086   0.50655   0.73944   0.00000  Uiso   1.00
C929   C     0.13448   0.52024   0.92163   0.00000  Uiso   1.00
C930   C     0.32708   0.50636   0.73296   0.00000  Uiso   1.00
C931   C     0.00739   0.49239   0.76503   0.00000  Uiso   1.00
C932   C     0.17725   0.65527   0.73669   0.00000  Uiso   1.00
C933   C     0.15137   0.34656   0.76698   0.00000  Uiso   1.00
C934   C     0.15698   0.38954   0.75982   0.00000  Uiso   1.00
C935   C     0.17618   0.61128   0.74059   0.00000  Uiso   1.00
C936   C     0.07536   0.51203   0.98962   0.00000  Uiso   1.00
C937   C     0.18561   0.48181   0.62929   0.00000  Uiso   1.00
C938   C     0.14784   0.51784   0.87143   0.00000  Uiso   1.00
C939   C     0.25004   0.47355   0.50951   0.00000  Uiso   1.00
C940   C     0.19569   0.47536   0.58044   0.00000  Uiso   1.00
C941   C     0.09119   0.52610   0.94622   0.00000  Uiso   1.00
C942   C     0.28695   0.42636   0.56124   0.00000  Uiso   1.00
C943   C     0.07769   0.42762   0.52897   0.00000  Uiso   1.00
C944   C     0.02682   0.54225   0.54748   0.00000  Uiso   1.00
C945   C     0.02407   0.49236   0.65850   0.00000  Uiso   1.00
C946   C     0.10183   0.49284   0.50831   0.00000  Uiso   1.00
C947   C     0.14706   0.49632   0.98916   0.00000  Uiso   1.00
C948   C     0.16314   0.50920   0.94478   0.00000  Uiso   1.00
C949   C     0.17673   0.48652   0.51206   0.00000  Uiso   1.00
C950   C     0.22049   0.48410   0.98817   0.00000  Uiso   1.00
C951   C     0.23531   0.49560   0.94424   0.00000  Uiso   1.00
C952   C     0.20776   0.51036   0.92402   0.00000  Uiso   1.00
H953   H     0.31855   0.48244   0.79614   0.00000  Uiso   1.00
H954   H     0.07992   0.36643   0.87897   0.00000  Uiso   1.00
H955   H     0.32123   0.53828   0.95888   0.00000  Uiso   1.00
H956   H     0.10967   0.41587   0.51482   0.00000  Uiso   1.00
H957   H     0.05865   0.42237   0.50357   0.00000  Uiso   1.00
H958   H     0.06002   0.40934   0.55780   0.00000  Uiso   1.00
H959   H     0.03963   0.57354   0.53555   0.00000  Uiso   1.00
H960   H     0.04249   0.53585   0.57327   0.00000  Uiso   1.00
H961   H     0.32522   0.54263   0.56387   0.00000  Uiso   1.00
H962   H     0.32854   0.49208   0.64567   0.00000  Uiso   1.00
H963   H     0.02691   0.46066   0.66674   0.00000  Uiso   1.00
H964   H     0.19994   0.33498   0.70739   0.00000  Uiso   1.00
H965   H     0.05306   0.50101   0.63123   0.00000  Uiso   1.00
H966   H     0.26900   0.49547   0.92621   0.00000  Uiso   1.00
H967   H     0.28337   0.47203   0.99085   0.00000  Uiso   1.00
H968   H     0.13496   0.49164   0.58008   0.00000  Uiso   1.00
H969   H     0.22220   0.52312   0.89191   0.00000  Uiso   1.00
H970   H     0.31102   0.43058   0.52843   0.00000  Uiso   1.00
H971   H     0.26247   0.39955   0.55826   0.00000  Uiso   1.00
H972   H     0.30446   0.41884   0.58497   0.00000  Uiso   1.00
O973   O     0.16667   0.50000   0.75000   0.00000  Uiso   1.00
O974   O     0.15451   0.45970   0.65458   0.00000  Uiso   1.00
O975   O     0.12940   0.53724   0.84968   0.00000  Uiso   1.00
O976   O     0.20824   0.51092   0.64606   0.00000  Uiso   1.00
O977   O     0.17451   0.49213   0.84968   0.00000  Uiso   1.00
O978   O     0.26780   0.46311   0.57842   0.00000  Uiso   1.00
O979   O     0.07914   0.63644   0.81279   0.00000  Uiso   1.00
O980   O     0.14110   0.64730   0.84562   0.00000  Uiso   1.00
O981   O     0.09754   0.37601   0.84967   0.00000  Uiso   1.00
O982   O     0.07795   0.58806   0.90273   0.00000  Uiso   1.00
O983   O     0.04285   0.51895   0.88725   0.00000  Uiso   1.00
O984   O     0.17930   0.41352   0.78213   0.00000  Uiso   1.00
O985   O     0.01046   0.56116   0.96192   0.00000  Uiso   1.00
O986   O     0.08211   0.46975   0.54464   0.00000  Uiso   1.00
O987   O     0.03199   0.51135   0.51140   0.00000  Uiso   1.00
O988   O     0.02307   0.52201   0.69534   0.00000  Uiso   1.00
O989   O     0.14632   0.59418   0.77013   0.00000  Uiso   1.00
O990   O     0.07412   0.46625   0.73413   0.00000  Uiso   1.00
O991   O     0.26693   0.52605   0.71360   0.00000  Uiso   1.00
O992   O     0.07071   0.52211   0.78213   0.00000  Uiso   1.00
O993   O     0.25491   0.48559   0.77013   0.00000  Uiso   1.00
O994   O     0.13760   0.40277   0.73413   0.00000  Uiso   1.00
O995   O     0.20345   0.58953   0.71360   0.00000  Uiso   1.00
S996   S     0.11655   0.66648   0.81982   0.00000  Uiso   1.00
S997   S     0.05545   0.54877   0.92320   0.00000  Uiso   1.00
Zn998  Zn    0.19338   0.47327   0.78734   0.00000  Uiso   1.00
Zn999  Zn    0.13379   0.45791   0.71875   0.00000  Uiso   1.00
Zn1000 Zn    0.21056   0.53109   0.70657   0.00000  Uiso   1.00
Zn1001 Zn    0.12893   0.53773   0.78733   0.00000  Uiso   1.00
C1002  C     0.38600   0.49307   0.76075   0.00000  Uiso   1.00
C1003  C     0.49879   0.48331   0.55887   0.00000  Uiso   1.00
C1004  C     0.57108   0.46850   0.55572   0.00000  Uiso   1.00
C1005  C     0.61420   0.50655   0.73944   0.00000  Uiso   1.00
C1006  C     0.46781   0.52024   0.92163   0.00000  Uiso   1.00
C1007  C     0.66042   0.50636   0.73296   0.00000  Uiso   1.00
C1008  C     0.34073   0.49239   0.76503   0.00000  Uiso   1.00
C1009  C     0.51058   0.65527   0.73669   0.00000  Uiso   1.00
C1010  C     0.48470   0.34656   0.76698   0.00000  Uiso   1.00
C1011  C     0.49031   0.38954   0.75982   0.00000  Uiso   1.00
C1012  C     0.50951   0.61128   0.74059   0.00000  Uiso   1.00
C1013  C     0.40869   0.51203   0.98962   0.00000  Uiso   1.00
C1014  C     0.51895   0.48181   0.62929   0.00000  Uiso   1.00
C1015  C     0.48118   0.51784   0.87143   0.00000  Uiso   1.00
C1016  C     0.58338   0.47355   0.50951   0.00000  Uiso   1.00
C1017  C     0.52903   0.47536   0.58044   0.00000  Uiso   1.00
C1018  C     0.42452   0.52610   0.94622   0.00000  Uiso   1.00
C1019  C     0.62028   0.42636   0.56124   0.00000  Uiso   1.00
C1020  C     0.41102   0.42762   0.52897   0.00000  Uiso   1.00
C1021  C     0.36015   0.54225   0.54748   0.00000  Uiso   1.00
C1022  C     0.35740   0.49236   0.65850   0.00000  Uiso   1.00
C1023  C     0.43517   0.49284   0.50831   0.00000  Uiso   1.00
C1024  C     0.48039   0.49632   0.98916   0.00000  Uiso   1.00
C1025  C     0.49648   0.50920   0.94478   0.00000  Uiso   1.00
C1026  C     0.51007   0.48652   0.51206   0.00000  Uiso   1.00
C1027  C     0.55383   0.48410   0.98817   0.00000  Uiso   1.00
C1028  C     0.56865   0.49560   0.94424   0.00000  Uiso   1.00
C1029  C     0.54110   0.51036   0.92402   0.00000  Uiso   1.00
H1030  H     0.65188   0.48244   0.79614   0.00000  Uiso   1.00
H1031  H     0.41325   0.36643   0.87897   0.00000  Uiso   1.00
H1032  H     0.65457   0.53828   0.95888   0.00000  Uiso   1.00
H1033  H     0.44300   0.41587   0.51482   0.00000  Uiso   1.00
H1034  H     0.39198   0.42237   0.50357   0.00000  Uiso   1.00
H1035  H     0.39336   0.40934   0.55780   0.00000  Uiso   1.00
H1036  H     0.37296   0.57354   0.53555   0.00000  Uiso   1.00
H1037  H     0.37583   0.53585   0.57327   0.00000  Uiso   1.00
H1038  H     0.65856   0.54263   0.56387   0.00000  Uiso   1.00
H1039  H     0.66187   0.49208   0.64567   0.00000  Uiso   1.00
H1040  H     0.36025   0.46066   0.66674   0.00000  Uiso   1.00
H1041  H     0.53327   0.33498   0.70739   0.00000  Uiso   1.00
H1042  H     0.38639   0.50101   0.63123   0.00000  Uiso   1.00
H1043  H     0.60233   0.49547   0.92621   0.00000  Uiso   1.00
H1044  H     0.61670   0.47203   0.99085   0.00000  Uiso   1.00
H1045  H     0.46829   0.49164   0.58008   0.00000  Uiso   1.00
H1046  H     0.55553   0.52312   0.89191   0.00000  Uiso   1.00
H1047  H     0.64436   0.43058   0.52843   0.00000  Uiso   1.00
H1048  H     0.59580   0.39955   0.55826   0.00000  Uiso   1.00
H1049  H     0.63780   0.41884   0.58497   0.00000  Uiso   1.00
O1050  O     0.50000   0.50000   0.75000   0.00000  Uiso   1.00
O1051  O     0.48784   0.45970   0.65458   0.00000  Uiso   1.00
O1052  O     0.46274   0.53724   0.84968   0.00000  Uiso   1.00
O1053  O     0.54157   0.51092   0.64606   0.00000  Uiso   1.00
O1054  O     0.50785   0.49213   0.84968   0.00000  Uiso   1.00
O1055  O     0.60114   0.46311   0.57842   0.00000  Uiso   1.00
O1056  O     0.41247   0.63644   0.81279   0.00000  Uiso   1.00
O1057  O     0.47444   0.64730   0.84562   0.00000  Uiso   1.00
O1058  O     0.43087   0.37601   0.84967   0.00000  Uiso   1.00
O1059  O     0.41128   0.58806   0.90273   0.00000  Uiso   1.00
O1060  O     0.37618   0.51895   0.88725   0.00000  Uiso   1.00
O1061  O     0.51264   0.41352   0.78213   0.00000  Uiso   1.00
O1062  O     0.34379   0.56116   0.96192   0.00000  Uiso   1.00
O1063  O     0.41544   0.46975   0.54464   0.00000  Uiso   1.00
O1064  O     0.36533   0.51135   0.51140   0.00000  Uiso   1.00
O1065  O     0.35640   0.52201   0.69534   0.00000  Uiso   1.00
O1066  O     0.47965   0.59418   0.77013   0.00000  Uiso   1.00
O1067  O     0.40745   0.46625   0.73413   0.00000  Uiso   1.00
O1068  O     0.60026   0.52605   0.71360   0.00000  Uiso   1.00
O1069  O     0.40405   0.52211   0.78213   0.00000  Uiso   1.00
O1070  O     0.58824   0.48559   0.77013   0.00000  Uiso   1.00
O1071  O     0.47093   0.40277   0.73413   0.00000  Uiso   1.00
O1072  O     0.53678   0.58953   0.71360   0.00000  Uiso   1.00
S1073  S     0.44988   0.66648   0.81982   0.00000  Uiso   1.00
S1074  S     0.38879   0.54877   0.92320   0.00000  Uiso   1.00
Zn1075 Zn    0.52672   0.47327   0.78734   0.00000  Uiso   1.00
Zn1076 Zn    0.46713   0.45791   0.71875   0.00000  Uiso   1.00
Zn1077 Zn    0.54389   0.53109   0.70657   0.00000  Uiso   1.00
Zn1078 Zn    0.46226   0.53773   0.78733   0.00000  Uiso   1.00
C1079  C     0.71933   0.49307   0.76075   0.00000  Uiso   1.00
C1080  C     0.83212   0.48331   0.55887   0.00000  Uiso   1.00
C1081  C     0.90442   0.46850   0.55572   0.00000  Uiso   1.00
C1082  C     0.94753   0.50655   0.73944   0.00000  Uiso   1.00
C1083  C     0.80115   0.52024   0.92163   0.00000  Uiso   1.00
C1084  C     0.99375   0.50636   0.73296   0.00000  Uiso   1.00
C1085  C     0.67406   0.49239   0.76503   0.00000  Uiso   1.00
C1086  C     0.84392   0.65527   0.73669   0.00000  Uiso   1.00
C1087  C     0.81803   0.34656   0.76698   0.00000  Uiso   1.00
C1088  C     0.82365   0.38954   0.75982   0.00000  Uiso   1.00
C1089  C     0.84285   0.61128   0.74059   0.00000  Uiso   1.00
C1090  C     0.74202   0.51203   0.98962   0.00000  Uiso   1.00
C1091  C     0.85228   0.48181   0.62929   0.00000  Uiso   1.00
C1092  C     0.81451   0.51784   0.87143   0.00000  Uiso   1.00
C1093  C     0.91671   0.47355   0.50951   0.00000  Uiso   1.00
C1094  C     0.86236   0.47536   0.58044   0.00000  Uiso   1.00
C1095  C     0.75786   0.52610   0.94622   0.00000  Uiso   1.00
C1096  C     0.95362   0.42636   0.56124   0.00000  Uiso   1.00
C1097  C     0.74436   0.42762   0.52897   0.00000  Uiso   1.00
C1098  C     0.69348   0.54225   0.54748   0.00000  Uiso   1.00
C1099  C     0.69073   0.49236   0.65850   0.00000  Uiso   1.00
C1100  C     0.76850   0.49284   0.50831   0.00000  Uiso   1.00
C1101  C     0.81373   0.49632   0.98916   0.00000  Uiso   1.00
C1102  C     0.82981   0.50920   0.94478   0.00000  Uiso   1.00
C1103  C     0.84340   0.48652   0.51206   0.00000  Uiso   1.00
C1104  C     0.88716   0.48410   0.98817   0.00000  Uiso   1.00
C1105  C     0.90198   0.49560   0.94424   0.00000  Uiso   1.00
C1106  C     0.87443   0.51036   0.92402   0.00000  Uiso   1.00
H1107  H     0.98522   0.48244   0.79614   0.00000  Uiso   1.00
H1108  H     0.74659   0.36643   0.87897   0.00000  Uiso   1.00
H1109  H     0.98790   0.53828   0.95888   0.00000  Uiso   1.00
H1110  H     0.77634   0.41587   0.51482   0.00000  Uiso   1.00
H1111  H     0.72531   0.42237   0.50357   0.00000  Uiso   1.00
H1112  H     0.72669   0.40934   0.55780   0.00000  Uiso   1.00
H1113  H     0.70630   0.57354   0.53555   0.00000  Uiso   1.00
H1114  H     0.70916   0.53585   0.57327   0.00000  Uiso   1.00
H1115  H     0.99189   0.54263   0.56387   0.00000  Uiso   1.00
H1116  H     0.99521   0.49208   0.64567   0.00000  Uiso   1.00
H1117  H     0.69358   0.46066   0.66674   0.00000  Uiso   1.00
H1118  H     0.86660   0.33498   0.70739   0.00000  Uiso   1.00
H1119  H     0.71972   0.50101   0.63123   0.00000  Uiso   1.00
H1120  H     0.93567   0.49547   0.92621   0.00000  Uiso   1.00
H1121  H     0.95004   0.47203   0.99085   0.00000  Uiso   1.00
H1122  H     0.80162   0.49164   0.58008   0.00000  Uiso   1.00
H1123  H     0.88887   0.52312   0.89191   0.00000  Uiso   1.00
H1124  H     0.97769   0.43058   0.52843   0.00000  Uiso   1.00
H1125  H     0.92913   0.39955   0.55826   0.00000  Uiso   1.00
H1126  H     0.97113   0.41884   0.58497   0.00000  Uiso   1.00
O1127  O     0.83333   0.50000   0.75000   0.00000  Uiso   1.00
O1128  O     0.82118   0.45970   0.65458   0.00000  Uiso   1.00
O1129  O     0.79607   0.53724   0.84968   0.00000  Uiso   1.00
O1130  O     0.87491   0.51092   0.64606   0.00000  Uiso   1.00
O1131  O     0.84118   0.49213   0.84968   0.00000  Uiso   1.00
O1132  O     0.93447   0.46311   0.57842   0.00000  Uiso   1.00
O1133  O     0.74581   0.63644   0.81279   0.00000  Uiso   1.00
O1134  O     0.80777   0.64730   0.84562   0.00000  Uiso   1.00
O1135  O     0.76421   0.37601   0.84967   0.00000  Uiso   1.00
O1136  O     0.74462   0.58806   0.90273   0.00000  Uiso   1.00
O1137  O     0.70952   0.51895   0.88725   0.00000  Uiso   1.00
O1138  O     0.84597   0.41352   0.78213   0.00000  Uiso   1.00
O1139  O     0.67712   0.56116   0.96192   0.00000  Uiso   1.00
O1140  O     0.74878   0.46975   0.54464   0.00000  Uiso   1.00
O1141  O     0.69866   0.51135   0.51140   0.00000  Uiso   1.00
O1142  O     0.68973   0.52201   0.69534   0.00000  Uiso   1.00
O1143  O     0.81298   0.59418   0.77013   0.00000  Uiso   1.00
O1144  O     0.74078   0.46625   0.73413   0.00000  Uiso   1.00
O1145  O     0.93360   0.52605   0.71360   0.00000  Uiso   1.00
O1146  O     0.73738   0.52211   0.78213   0.00000  Uiso   1.00
O1147  O     0.92158   0.48559   0.77013   0.00000  Uiso   1.00
O1148  O     0.80426   0.40277   0.73413   0.00000  Uiso   1.00
O1149  O     0.87012   0.58953   0.71360   0.00000  Uiso   1.00
S1150  S     0.78321   0.66648   0.81982   0.00000  Uiso   1.00
S1151  S     0.72212   0.54877   0.92320   0.00000  Uiso   1.00
Zn1152 Zn    0.86005   0.47327   0.78734   0.00000  Uiso   1.00
Zn1153 Zn    0.80046   0.45791   0.71875   0.00000  Uiso   1.00
Zn1154 Zn    0.87723   0.53109   0.70657   0.00000  Uiso   1.00
Zn1155 Zn    0.79560   0.53773   0.78733   0.00000  Uiso   1.00
C1156  C     0.05266   0.82640   0.76075   0.00000  Uiso   1.00
C1157  C     0.16546   0.81665   0.55887   0.00000  Uiso   1.00
C1158  C     0.23775   0.80183   0.55572   0.00000  Uiso   1.00
C1159  C     0.28086   0.83988   0.73944   0.00000  Uiso   1.00
C1160  C     0.13448   0.85357   0.92163   0.00000  Uiso   1.00
C1161  C     0.32708   0.83969   0.73296   0.00000  Uiso   1.00
C1162  C     0.00739   0.82572   0.76503   0.00000  Uiso   1.00
C1163  C     0.17725   0.98860   0.73669   0.00000  Uiso   1.00
C1164  C     0.15137   0.67989   0.76698   0.00000  Uiso   1.00
C1165  C     0.15698   0.72287   0.75982   0.00000  Uiso   1.00
C1166  C     0.17618   0.94461   0.74059   0.00000  Uiso   1.00
C1167  C     0.07536   0.84537   0.98962   0.00000  Uiso   1.00
C1168  C     0.18561   0.81515   0.62929   0.00000  Uiso   1.00
C1169  C     0.14784   0.85117   0.87143   0.00000  Uiso   1.00
C1170  C     0.25004   0.80689   0.50951   0.00000  Uiso   1.00
C1171  C     0.19569   0.80869   0.58044   0.00000  Uiso   1.00
C1172  C     0.09119   0.85943   0.94622   0.00000  Uiso   1.00
C1173  C     0.28695   0.75969   0.56124   0.00000  Uiso   1.00
C1174  C     0.07769   0.76096   0.52897   0.00000  Uiso   1.00
C1175  C     0.02682   0.87558   0.54748   0.00000  Uiso   1.00
C1176  C     0.02407   0.82569   0.65850   0.00000  Uiso   1.00
C1177  C     0.10183   0.82617   0.50831   0.00000  Uiso   1.00
C1178  C     0.14706   0.82966   0.98916   0.00000  Uiso   1.00
C1179  C     0.16314   0.84253   0.94478   0.00000  Uiso   1.00
C1180  C     0.17673   0.81986   0.51206   0.00000  Uiso   1.00
C1181  C     0.22049   0.81743   0.98817   0.00000  Uiso   1.00
C1182  C     0.23531   0.82894   0.94424   0.00000  Uiso   1.00
C1183  C     0.20776   0.84370   0.92402   0.00000  Uiso   1.00
H1184  H     0.31855   0.81577   0.79614   0.00000  Uiso   1.00
H1185  H     0.07992   0.69976   0.87897   0.00000  Uiso   1.00
H1186  H     0.32123   0.87162   0.95888   0.00000  Uiso   1.00
H1187  H     0.10967   0.74921   0.51482   0.00000  Uiso   1.00
H1188  H     0.05865   0.75570   0.50357   0.00000  Uiso   1.00
H1189  H     0.06002   0.74268   0.55780   0.00000  Uiso   1.00
H1190  H     0.03963   0.90688   0.53555   0.00000  Uiso   1.00
H1191  H     0.04249   0.86918   0.57327   0.00000  Uiso   1.00
H1192  H     0.32522   0.87596   0.56387   0.00000  Uiso   1.00
H1193  H     0.32854   0.82541   0.64567   0.00000  Uiso   1.00
H1194  H     0.02691   0.79399   0.66674   0.00000  Uiso   1.00
H1195  H     0.19994   0.66832   0.70739   0.00000  Uiso   1.00
H1196  H     0.05306   0.83434   0.63123   0.00000  Uiso   1.00
H1197  H     0.26900   0.82880   0.92621   0.00000  Uiso   1.00
H1198  H     0.28337   0.80536   0.99085   0.00000  Uiso   1.00
H1199  H     0.13496   0.82497   0.58008   0.00000  Uiso   1.00
H1200  H     0.22220   0.85645   0.89191   0.00000  Uiso   1.00
H1201  H     0.31102   0.76391   0.52843   0.00000  Uiso   1.00
H1202  H     0.26247   0.73289   0.55826   0.00000  Uiso   1.00
H1203  H     0.30446   0.75218   0.58497   0.00000  Uiso   1.00
O1204  O     0.16667   0.83333   0.75000   0.00000  Uiso   1.00
O1205  O     0.15451   0.79304   0.65458   0.00000  Uiso   1.00
O1206  O     0.12940   0.87058   0.84968   0.00000  Uiso   1.00
O1207  O     0.20824   0.84425   0.64606   0.00000  Uiso   1.00
O1208  O     0.17451   0.82546   0.84968   0.00000  Uiso   1.00
O1209  O     0.26780   0.79645   0.57842   0.00000  Uiso   1.00
O1210  O     0.07914   0.96978   0.81279   0.00000  Uiso   1.00
O1211  O     0.14110   0.98063   0.84562   0.00000  Uiso   1.00
O1212  O     0.09754   0.70934   0.84967   0.00000  Uiso   1.00
O1213  O     0.07795   0.92139   0.90273   0.00000  Uiso   1.00
O1214  O     0.04285   0.85228   0.88725   0.00000  Uiso   1.00
O1215  O     0.17930   0.74686   0.78213   0.00000  Uiso   1.00
O1216  O     0.01046   0.89449   0.96192   0.00000  Uiso   1.00
O1217  O     0.08211   0.80308   0.54464   0.00000  Uiso   1.00
O1218  O     0.03199   0.84469   0.51140   0.00000  Uiso   1.00
O1219  O     0.02307   0.85534   0.69534   0.00000  Uiso   1.00
O1220  O     0.14632   0.92751   0.77013   0.00000  Uiso   1.00
O1221  O     0.07412   0.79958   0.73413   0.00000  Uiso   1.00
O1222  O     0.26693   0.85939   0.71360   0.00000  Uiso   1.00
O1223  O     0.07071   0.85544   0.78213   0.00000  Uiso   1.00
O1224  O     0.25491   0.81892   0.77013   0.00000  Uiso   1.00
O1225  O     0.13760   0.73610   0.73413   0.00000  Uiso   1.00
O1226  O     0.20345   0.92286   0.71360   0.00000  Uiso   1.00
S1227  S     0.11655   0.99981   0.81982   0.00000  Uiso   1.00
S1228  S     0.05545   0.88210   0.92320   0.00000  Uiso   1.00
Zn1229 Zn    0.19338   0.80661   0.78734   0.00000  Uiso   1.00
Zn1230 Zn    0.13379   0.79124   0.71875   0.00000  Uiso   1.00
Zn1231 Zn    0.21056   0.86442   0.70657   0.00000  Uiso   1.00
Zn1232 Zn    0.12893   0.87106   0.78733   0.00000  Uiso   1.00
C1233  C     0.38600   0.82640   0.76075   0.00000  Uiso   1.00
C1234  C     0.49879   0.81665   0.55887   0.00000  Uiso   1.00
C1235  C     0.57108   0.80183   0.55572   0.00000  Uiso   1.00
C1236  C     0.61420   0.83988   0.73944   0.00000  Uiso   1.00
C1237  C     0.46781   0.85357   0.92163   0.00000  Uiso   1.00
C1238  C     0.66042   0.83969   0.73296   0.00000  Uiso   1.00
C1239  C     0.34073   0.82572   0.76503   0.00000  Uiso   1.00
C1240  C     0.51058   0.98860   0.73669   0.00000  Uiso   1.00
C1241  C     0.48470   0.67989   0.76698   0.00000  Uiso   1.00
C1242  C     0.49031   0.72287   0.75982   0.00000  Uiso   1.00
C1243  C     0.50951   0.94461   0.74059   0.00000  Uiso   1.00
C1244  C     0.40869   0.84537   0.98962   0.00000  Uiso   1.00
C1245  C     0.51895   0.81515   0.62929   0.00000  Uiso   1.00
C1246  C     0.48118   0.85117   0.87143   0.00000  Uiso   1.00
C1247  C     0.58338   0.80689   0.50951   0.00000  Uiso   1.00
C1248  C     0.52903   0.80869   0.58044   0.00000  Uiso   1.00
C1249  C     0.42452   0.85943   0.94622   0.00000  Uiso   1.00
C1250  C     0.62028   0.75969   0.56124   0.00000  Uiso   1.00
C1251  C     0.41102   0.76096   0.52897   0.00000  Uiso   1.00
C1252  C     0.36015   0.87558   0.54748   0.00000  Uiso   1.00
C1253  C     0.35740   0.82569   0.65850   0.00000  Uiso   1.00
C1254  C     0.43517   0.82617   0.50831   0.00000  Uiso   1.00
C1255  C     0.48039   0.82966   0.98916   0.00000  Uiso   1.00
C1256  C     0.49648   0.84253   0.94478   0.00000  Uiso   1.00
C1257  C     0.51007   0.81986   0.51206   0.00000  Uiso   1.00
C1258  C     0.55383   0.81743   0.98817   0.00000  Uiso   1.00
C1259  C     0.56865   0.82894   0.94424   0.00000  Uiso   1.00
C1260  C     0.54110   0.84370   0.92402   0.00000  Uiso   1.00
H1261  H     0.65188   0.81577   0.79614   0.00000  Uiso   1.00
H1262  H     0.41325   0.69976   0.87897   0.00000  Uiso   1.00
H1263  H     0.65457   0.87162   0.95888   0.00000  Uiso   1.00
H1264  H     0.44300   0.74921   0.51482   0.00000  Uiso   1.00
H1265  H     0.39198   0.75570   0.50357   0.00000  Uiso   1.00
H1266  H     0.39336   0.74268   0.55780   0.00000  Uiso   1.00
H1267  H     0.37296   0.90688   0.53555   0.00000  Uiso   1.00
H1268  H     0.37583   0.86918   0.57327   0.00000  Uiso   1.00
H1269  H     0.65856   0.87596   0.56387   0.00000  Uiso   1.00
H1270  H     0.66187   0.82541   0.64567   0.00000  Uiso   1.00
H1271  H     0.36025   0.79399   0.66674   0.00000  Uiso   1.00
H1272  H     0.53327   0.66832   0.70739   0.00000  Uiso   1.00
H1273  H     0.38639   0.83434   0.63123   0.00000  Uiso   1.00
H1274  H     0.60233   0.82880   0.92621   0.00000  Uiso   1.00
H1275  H     0.61670   0.80536   0.99085   0.00000  Uiso   1.00
H1276  H     0.46829   0.82497   0.58008   0.00000  Uiso   1.00
H1277  H     0.55553   0.85645   0.89191   0.00000  Uiso   1.00
H1278  H     0.64436   0.76391   0.52843   0.00000  Uiso   1.00
H1279  H     0.59580   0.73289   0.55826   0.00000  Uiso   1.00
H1280  H     0.63780   0.75218   0.58497   0.00000  Uiso   1.00
O1281  O     0.50000   0.83333   0.75000   0.00000  Uiso   1.00
O1282  O     0.48784   0.79304   0.65458   0.00000  Uiso   1.00
O1283  O     0.46274   0.87058   0.84968   0.00000  Uiso   1.00
O1284  O     0.54157   0.84425   0.64606   0.00000  Uiso   1.00
O1285  O     0.50785   0.82546   0.84968   0.00000  Uiso   1.00
O1286  O     0.60114   0.79645   0.57842   0.00000  Uiso   1.00
O1287  O     0.41247   0.96978   0.81279   0.00000  Uiso   1.00
O1288  O     0.47444   0.98063   0.84562   0.00000  Uiso   1.00
O1289  O     0.43087   0.70934   0.84967   0.00000  Uiso   1.00
O1290  O     0.41128   0.92139   0.90273   0.00000  Uiso   1.00
O1291  O     0.37618   0.85228   0.88725   0.00000  Uiso   1.00
O1292  O     0.51264   0.74686   0.78213   0.00000  Uiso   1.00
O1293  O     0.34379   0.89449   0.96192   0.00000  Uiso   1.00
O1294  O     0.41544   0.80308   0.54464   0.00000  Uiso   1.00
O1295  O     0.36533   0.84469   0.51140   0.00000  Uiso   1.00
O1296  O     0.35640   0.85534   0.69534   0.00000  Uiso   1.00
O1297  O     0.47965   0.92751   0.77013   0.00000  Uiso   1.00
O1298  O     0.40745   0.79958   0.73413   0.00000  Uiso   1.00
O1299  O     0.60026   0.85939   0.71360   0.00000  Uiso   1.00
O1300  O     0.40405   0.85544   0.78213   0.00000  Uiso   1.00
O1301  O     0.58824   0.81892   0.77013   0.00000  Uiso   1.00
O1302  O     0.47093   0.73610   0.73413   0.00000  Uiso   1.00
O1303  O     0.53678   0.92286   0.71360   0.00000  Uiso   1.00
S1304  S     0.44988   0.99981   0.81982   0.00000  Uiso   1.00
S1305  S     0.38879   0.88210   0.92320   0.00000  Uiso   1.00
Zn1306 Zn    0.52672   0.80661   0.78734   0.00000  Uiso   1.00
Zn1307 Zn    0.46713   0.79124   0.71875   0.00000  Uiso   1.00
Zn1308 Zn    0.54389   0.86442   0.70657   0.00000  Uiso   1.00
Zn1309 Zn    0.46226   0.87106   0.78733   0.00000  Uiso   1.00
C1310  C     0.71933   0.82640   0.76075   0.00000  Uiso   1.00
C1311  C     0.83212   0.81665   0.55887   0.00000  Uiso   1.00
C1312  C     0.90442   0.80183   0.55572   0.00000  Uiso   1.00
C1313  C     0.94753   0.83988   0.73944   0.00000  Uiso   1.00
C1314  C     0.80115   0.85357   0.92163   0.00000  Uiso   1.00
C1315  C     0.99375   0.83969   0.73296   0.00000  Uiso   1.00
C1316  C     0.67406   0.82572   0.76503   0.00000  Uiso   1.00
C1317  C     0.84392   0.98860   0.73669   0.00000  Uiso   1.00
C1318  C     0.81803   0.67989   0.76698   0.00000  Uiso   1.00
C1319  C     0.82365   0.72287   0.75982   0.00000  Uiso   1.00
C1320  C     0.84285   0.94461   0.74059   0.00000  Uiso   1.00
C1321  C     0.74202   0.84537   0.98962   0.00000  Uiso   1.00
C1322  C     0.85228   0.81515   0.62929   0.00000  Uiso   1.00
C1323  C     0.81451   0.85117   0.87143   0.00000  Uiso   1.00
C1324  C     0.91671   0.80689   0.50951   0.00000  Uiso   1.00
C1325  C     0.86236   0.80869   0.58044   0.00000  Uiso   1.00
C1326  C     0.75786   0.85943   0.94622   0.00000  Uiso   1.00
C1327  C     0.95362   0.75969   0.56124   0.00000  Uiso   1.00
C1328  C     0.74436   0.76096   0.52897   0.00000  Uiso   1.00
C1329  C     0.69348   0.87558   0.54748   0.00000  Uiso   1.00
C1330  C     0.69073   0.82569   0.65850   0.00000  Uiso   1.00
C1331  C     0.76850   0.82617   0.50831   0.00000  Uiso   1.00
C1332  C     0.81373   0.82966   0.98916   0.00000  Uiso   1.00
C1333  C     0.82981   0.84253   0.94478   0.00000  Uiso   1.00
C1334  C     0.84340   0.81986   0.51206   0.00000  Uiso   1.00
C1335  C     0.88716   0.81743   0.98817   0.00000  Uiso   1.00
C1336  C     0.90198   0.82894   0.94424   0.00000  Uiso   1.00
C1337  C     0.87443   0.84370   0.92402   0.00000  Uiso   1.00
H1338  H     0.98522   0.81577   0.79614   0.00000  Uiso   1.00
H1339  H     0.74659   0.69976   0.87897   0.00000  Uiso   1.00
H1340  H     0.98790   0.87162   0.95888   0.00000  Uiso   1.00
H1341  H     0.77634   0.74921   0.51482   0.00000  Uiso   1.00
H1342  H     0.72531   0.75570   0.50357   0.00000  Uiso   1.00
H1343  H     0.72669   0.74268   0.55780   0.00000  Uiso   1.00
H1344  H     0.70630   0.90688   0.53555   0.00000  Uiso   1.00
H1345  H     0.70916   0.86918   0.57327   0.00000  Uiso   1.00
H1346  H     0.99189   0.87596   0.56387   0.00000  Uiso   1.00
H1347  H     0.99521   0.82541   0.64567   0.00000  Uiso   1.00
H1348  H     0.69358   0.79399   0.66674   0.00000  Uiso   1.00
H1349  H     0.86660   0.66832   0.70739   0.00000  Uiso   1.00
H1350  H     0.71972   0.83434   0.63123   0.00000  Uiso   1.00
H1351  H     0.93567   0.82880   0.92621   0.00000  Uiso   1.00
H1352  H     0.95004   0.80536   0.99085   0.00000  Uiso   1.00
H1353  H     0.80162   0.82497   0.58008   0.00000  Uiso   1.00
H1354  H     0.88887   0.85645   0.89191   0.00000  Uiso   1.00
H1355  H     0.97769   0.76391   0.52843   0.00000  Uiso   1.00
H1356  H     0.92913   0.73289   0.55826   0.00000  Uiso   1.00
H1357  H     0.97113   0.75218   0.58497   0.00000  Uiso   1.00
O1358  O     0.83333   0.83333   0.75000   0.00000  Uiso   1.00
O1359  O     0.82118   0.79304   0.65458   0.00000  Uiso   1.00
O1360  O     0.79607   0.87058   0.84968   0.00000  Uiso   1.00
O1361  O     0.87491   0.84425   0.64606   0.00000  Uiso   1.00
O1362  O     0.84118   0.82546   0.84968   0.00000  Uiso   1.00
O1363  O     0.93447   0.79645   0.57842   0.00000  Uiso   1.00
O1364  O     0.74581   0.96978   0.81279   0.00000  Uiso   1.00
O1365  O     0.80777   0.98063   0.84562   0.00000  Uiso   1.00
O1366  O     0.76421   0.70934   0.84967   0.00000  Uiso   1.00
O1367  O     0.74462   0.92139   0.90273   0.00000  Uiso   1.00
O1368  O     0.70952   0.85228   0.88725   0.00000  Uiso   1.00
O1369  O     0.84597   0.74686   0.78213   0.00000  Uiso   1.00
O1370  O     0.67712   0.89449   0.96192   0.00000  Uiso   1.00
O1371  O     0.74878   0.80308   0.54464   0.00000  Uiso   1.00
O1372  O     0.69866   0.84469   0.51140   0.00000  Uiso   1.00
O1373  O     0.68973   0.85534   0.69534   0.00000  Uiso   1.00
O1374  O     0.81298   0.92751   0.77013   0.00000  Uiso   1.00
O1375  O     0.74078   0.79958   0.73413   0.00000  Uiso   1.00
O1376  O     0.93360   0.85939   0.71360   0.00000  Uiso   1.00
O1377  O     0.73738   0.85544   0.78213   0.00000  Uiso   1.00
O1378  O     0.92158   0.81892   0.77013   0.00000  Uiso   1.00
O1379  O     0.80426   0.73610   0.73413   0.00000  Uiso   1.00
O1380  O     0.87012   0.92286   0.71360   0.00000  Uiso   1.00
S1381  S     0.78321   0.99981   0.81982   0.00000  Uiso   1.00
S1382  S     0.72212   0.88210   0.92320   0.00000  Uiso   1.00
Zn1383 Zn    0.86005   0.80661   0.78734   0.00000  Uiso   1.00
Zn1384 Zn    0.80046   0.79124   0.71875   0.00000  Uiso   1.00
Zn1385 Zn    0.87723   0.86442   0.70657   0.00000  Uiso   1.00
Zn1386 Zn    0.79560   0.87106   0.78733   0.00000  Uiso   1.00
loop_
_geom_bond_atom_site_label_1
_geom_bond_atom_site_label_2
_geom_bond_distance
_geom_bond_site_symmetry_2
_ccdc_geom_bond_type
C1     O68     1.268   .     A
C1     C7      1.436   .     S
C1     O66     1.275   .     A
C2     H44     1.079   .     S
C2     C16     1.394   .     A
C2     C25     1.409   .     A
C3     O54     1.388   .     S
C3     C15     1.401   .     A
C3     C16     1.405   .     A
C4     O69     1.278   .     A
C4     C6      1.459   .     S
C4     O67     1.281   .     A
C5     C17     1.431   .     A
C5     C14     1.494   .     S
C5     C24     1.422   .     A
C6     C84     1.337   .     S
C6     O141    1.386   .     S
C7     C160    1.337   1_455 S
C7     H183    1.087   1_455 S
C8     C11     1.450   .     S
C8     C240    1.349   .     S
C8     H271    1.088   .     S
C9     C10     1.425   .     S
C9     C470    1.349   1_545 S
C9     S534    1.780   1_545 S
C10    O60     1.273   .     A
C10    O70     1.281   .     A
C11    O71     1.273   .     A
C11    O65     1.254   .     A
C12    C17     1.408   .     A
C12    C715    1.402   .     S
C12    O756    1.383   .     S
C13    O52     1.275   .     A
C13    O50     1.285   .     A
C13    C16     1.457   .     S
C14    O51     1.277   .     A
C14    O53     1.289   .     A
C15    C719    1.401   1_554 S
C15    H736    1.083   1_554 S
C17    S73     1.790   .     S
C18    H47     1.114   .     S
C18    H46     1.110   .     S
C18    H48     1.109   .     S
C18    O54     1.411   .     S
C19    O62     1.410   .     S
C19    H32     1.113   .     S
C19    H33     1.114   .     S
C19    H34     1.109   .     S
C20    H35     1.113   .     S
C20    O63     1.412   .     S
C20    H36     1.109   .     S
C20    H191    1.109   1_455 S
C21    O64     1.410   .     S
C21    H39     1.115   .     S
C21    H41     1.107   .     S
C21    H192    1.112   1_455 S
C22    O62     1.383   .     S
C22    C705    1.402   1_554 S
C22    C716    1.419   1_554 S
C23    C24     1.421   .     A
C23    C715    1.419   .     S
C23    C718    1.429   .     S
C24    C28     1.412   .     A
C25    C716    1.429   1_554 S
C25    C719    1.419   1_554 S
C26    C27     1.391   .     A
C26    C708    1.401   .     S
C26    C718    1.419   .     S
C27    C28     1.384   .     A
C27    H42     1.084   .     S
C28    H45     1.081   .     S
H29    C84     1.087   .     S
H30    O57     0.991   .     S
H31    O138    0.989   .     S
H37    C97     1.109   .     S
H38    C98     1.112   .     S
H40    C470    1.088   1_545 S
H43    C708    1.083   .     S
O49    Zn75    1.961   .     S
O49    Zn76    1.933   .     S
O49    Zn77    1.917   .     S
O49    Zn74    1.957   .     S
O50    Zn75    1.924   .     S
O51    Zn77    1.940   .     S
O52    Zn76    1.937   .     S
O53    Zn74    1.920   .     S
O55    S72     1.504   .     D
O56    S72     1.504   .     D
O57    S534    1.683   1_545 S
O58    S73     1.502   .     D
O59    S73     1.504   .     D
O60    Zn74    1.943   .     S
O61    S73     1.683   .     S
O61    H185    0.989   1_455 S
O63    C705    1.383   1_554 S
O64    C160    1.386   1_455 S
O65    Zn77    1.943   .     S
O66    Zn75    1.913   .     S
O67    Zn76    1.931   .     S
O68    Zn77    1.935   .     S
O69    Zn74    1.919   .     S
O70    Zn75    1.941   .     S
O71    Zn76    1.935   .     S
S72    C240    1.780   .     S
S72    O288    1.683   .     S
C78    O145    1.268   .     A
C78    C84     1.436   .     S
C78    O143    1.275   .     A
C79    H121    1.079   .     S
C79    C93     1.394   .     A
C79    C102    1.409   .     A
C80    O131    1.388   .     S
C80    C92     1.401   .     A
C80    C93     1.405   .     A
C81    O146    1.278   .     A
C81    C83     1.459   .     S
C81    O144    1.281   .     A
C82    C94     1.431   .     A
C82    C91     1.494   .     S
C82    C101    1.422   .     A
C83    C161    1.337   .     S
C83    O218    1.386   .     S
C85    C88     1.450   .     S
C85    C317    1.349   .     S
C85    H348    1.088   .     S
C86    C87     1.425   .     S
C86    C547    1.349   1_545 S
C86    S611    1.780   1_545 S
C87    O137    1.273   .     A
C87    O147    1.281   .     A
C88    O148    1.273   .     A
C88    O142    1.254   .     A
C89    C94     1.408   .     A
C89    C792    1.402   .     S
C89    O833    1.383   .     S
C90    O129    1.275   .     A
C90    O127    1.285   .     A
C90    C93     1.457   .     S
C91    O128    1.277   .     A
C91    O130    1.289   .     A
C92    C796    1.401   1_554 S
C92    H813    1.083   1_554 S
C94    S150    1.790   .     S
C95    H124    1.114   .     S
C95    H123    1.110   .     S
C95    H125    1.109   .     S
C95    O131    1.411   .     S
C96    O139    1.410   .     S
C96    H109    1.113   .     S
C96    H110    1.114   .     S
C96    H111    1.109   .     S
C97    H112    1.113   .     S
C97    O140    1.412   .     S
C97    H113    1.109   .     S
C98    O141    1.410   .     S
C98    H116    1.115   .     S
C98    H118    1.107   .     S
C99    O139    1.383   .     S
C99    C782    1.402   1_554 S
C99    C793    1.419   1_554 S
C100   C101    1.421   .     A
C100   C792    1.419   .     S
C100   C795    1.429   .     S
C101   C105    1.412   .     A
C102   C793    1.429   1_554 S
C102   C796    1.419   1_554 S
C103   C104    1.391   .     A
C103   C785    1.401   .     S
C103   C795    1.419   .     S
C104   C105    1.384   .     A
C104   H119    1.084   .     S
C105   H122    1.081   .     S
H106   C161    1.087   .     S
H107   O134    0.991   .     S
H108   O215    0.989   .     S
H114   C174    1.109   .     S
H115   C175    1.112   .     S
H117   C547    1.088   1_545 S
H120   C785    1.083   .     S
O126   Zn152   1.961   .     S
O126   Zn153   1.933   .     S
O126   Zn154   1.917   .     S
O126   Zn151   1.957   .     S
O127   Zn152   1.924   .     S
O128   Zn154   1.940   .     S
O129   Zn153   1.937   .     S
O130   Zn151   1.920   .     S
O132   S149    1.504   .     D
O133   S149    1.504   .     D
O134   S611    1.683   1_545 S
O135   S150    1.502   .     D
O136   S150    1.504   .     D
O137   Zn151   1.943   .     S
O138   S150    1.683   .     S
O140   C782    1.383   1_554 S
O142   Zn154   1.943   .     S
O143   Zn152   1.913   .     S
O144   Zn153   1.931   .     S
O145   Zn154   1.935   .     S
O146   Zn151   1.919   .     S
O147   Zn152   1.941   .     S
O148   Zn153   1.935   .     S
S149   C317    1.780   .     S
S149   O365    1.683   .     S
C155   O222    1.268   .     A
C155   C161    1.436   .     S
C155   O220    1.275   .     A
C156   H198    1.079   .     S
C156   C170    1.394   .     A
C156   C179    1.409   .     A
C157   O208    1.388   .     S
C157   C169    1.401   .     A
C157   C170    1.405   .     A
C158   O223    1.278   .     A
C158   C160    1.459   .     S
C158   O221    1.281   .     A
C159   C171    1.431   .     A
C159   C168    1.494   .     S
C159   C178    1.422   .     A
C160   C7      1.337   1_655 S
C160   O64     1.386   1_655 S
C162   C165    1.450   .     S
C162   C394    1.349   .     S
C162   H425    1.088   .     S
C163   C164    1.425   .     S
C163   C624    1.349   1_545 S
C163   S688    1.780   1_545 S
C164   O214    1.273   .     A
C164   O224    1.281   .     A
C165   O225    1.273   .     A
C165   O219    1.254   .     A
C166   C171    1.408   .     A
C166   C869    1.402   .     S
C166   O910    1.383   .     S
C167   O206    1.275   .     A
C167   O204    1.285   .     A
C167   C170    1.457   .     S
C168   O205    1.277   .     A
C168   O207    1.289   .     A
C169   C873    1.401   1_554 S
C169   H890    1.083   1_554 S
C171   S227    1.790   .     S
C172   H201    1.114   .     S
C172   H200    1.110   .     S
C172   H202    1.109   .     S
C172   O208    1.411   .     S
C173   O216    1.410   .     S
C173   H186    1.113   .     S
C173   H187    1.114   .     S
C173   H188    1.109   .     S
C174   H189    1.113   .     S
C174   O217    1.412   .     S
C174   H190    1.109   .     S
C175   O218    1.410   .     S
C175   H193    1.115   .     S
C175   H195    1.107   .     S
C176   O216    1.383   .     S
C176   C859    1.402   1_554 S
C176   C870    1.419   1_554 S
C177   C178    1.421   .     A
C177   C869    1.419   .     S
C177   C872    1.429   .     S
C178   C182    1.412   .     A
C179   C870    1.429   1_554 S
C179   C873    1.419   1_554 S
C180   C181    1.391   .     A
C180   C862    1.401   .     S
C180   C872    1.419   .     S
C181   C182    1.384   .     A
C181   H196    1.084   .     S
C182   H199    1.081   .     S
H183   C7      1.087   1_655 S
H184   O211    0.991   .     S
H185   O61     0.989   1_655 S
H191   C20     1.109   1_655 S
H192   C21     1.112   1_655 S
H194   C624    1.088   1_545 S
H197   C862    1.083   .     S
O203   Zn229   1.961   .     S
O203   Zn230   1.933   .     S
O203   Zn231   1.917   .     S
O203   Zn228   1.957   .     S
O204   Zn229   1.924   .     S
O205   Zn231   1.940   .     S
O206   Zn230   1.937   .     S
O207   Zn228   1.920   .     S
O209   S226    1.504   .     D
O210   S226    1.504   .     D
O211   S688    1.683   1_545 S
O212   S227    1.502   .     D
O213   S227    1.504   .     D
O214   Zn228   1.943   .     S
O215   S227    1.683   .     S
O217   C859    1.383   1_554 S
O219   Zn231   1.943   .     S
O220   Zn229   1.913   .     S
O221   Zn230   1.931   .     S
O222   Zn231   1.935   .     S
O223   Zn228   1.919   .     S
O224   Zn229   1.941   .     S
O225   Zn230   1.935   .     S
S226   C394    1.780   .     S
S226   O442    1.683   .     S
C232   O299    1.268   .     A
C232   C238    1.436   .     S
C232   O297    1.275   .     A
C233   H275    1.079   .     S
C233   C247    1.394   .     A
C233   C256    1.409   .     A
C234   O285    1.388   .     S
C234   C246    1.401   .     A
C234   C247    1.405   .     A
C235   O300    1.278   .     A
C235   C237    1.459   .     S
C235   O298    1.281   .     A
C236   C248    1.431   .     A
C236   C245    1.494   .     S
C236   C255    1.422   .     A
C237   C315    1.337   .     S
C237   O372    1.386   .     S
C238   C391    1.337   1_455 S
C238   H414    1.087   1_455 S
C239   C242    1.450   .     S
C239   C471    1.349   .     S
C239   H502    1.088   .     S
C240   C241    1.425   .     S
C241   O291    1.273   .     A
C241   O301    1.281   .     A
C242   O302    1.273   .     A
C242   O296    1.254   .     A
C243   C248    1.408   .     A
C243   C946    1.402   .     S
C243   O987    1.383   .     S
C244   O283    1.275   .     A
C244   O281    1.285   .     A
C244   C247    1.457   .     S
C245   O282    1.277   .     A
C245   O284    1.289   .     A
C246   C950    1.401   1_554 S
C246   H967    1.083   1_554 S
C248   S304    1.790   .     S
C249   H278    1.114   .     S
C249   H277    1.110   .     S
C249   H279    1.109   .     S
C249   O285    1.411   .     S
C250   O293    1.410   .     S
C250   H263    1.113   .     S
C250   H264    1.114   .     S
C250   H265    1.109   .     S
C251   H266    1.113   .     S
C251   O294    1.412   .     S
C251   H267    1.109   .     S
C251   H422    1.109   1_455 S
C252   O295    1.410   .     S
C252   H270    1.115   .     S
C252   H272    1.107   .     S
C252   H423    1.112   1_455 S
C253   O293    1.383   .     S
C253   C936    1.402   1_554 S
C253   C947    1.419   1_554 S
C254   C255    1.421   .     A
C254   C946    1.419   .     S
C254   C949    1.429   .     S
C255   C259    1.412   .     A
C256   C947    1.429   1_554 S
C256   C950    1.419   1_554 S
C257   C258    1.391   .     A
C257   C939    1.401   .     S
C257   C949    1.419   .     S
C258   C259    1.384   .     A
C258   H273    1.084   .     S
C259   H276    1.081   .     S
H260   C315    1.087   .     S
H261   O288    0.991   .     S
H262   O369    0.989   .     S
H268   C328    1.109   .     S
H269   C329    1.112   .     S
H274   C939    1.083   .     S
O280   Zn306   1.961   .     S
O280   Zn307   1.933   .     S
O280   Zn308   1.917   .     S
O280   Zn305   1.957   .     S
O281   Zn306   1.924   .     S
O282   Zn308   1.940   .     S
O283   Zn307   1.937   .     S
O284   Zn305   1.920   .     S
O286   S303    1.504   .     D
O287   S303    1.504   .     D
O289   S304    1.502   .     D
O290   S304    1.504   .     D
O291   Zn305   1.943   .     S
O292   S304    1.683   .     S
O292   H416    0.989   1_455 S
O294   C936    1.383   1_554 S
O295   C391    1.386   1_455 S
O296   Zn308   1.943   .     S
O297   Zn306   1.913   .     S
O298   Zn307   1.931   .     S
O299   Zn308   1.935   .     S
O300   Zn305   1.919   .     S
O301   Zn306   1.941   .     S
O302   Zn307   1.935   .     S
S303   C471    1.780   .     S
S303   O519    1.683   .     S
C309   O376    1.268   .     A
C309   C315    1.436   .     S
C309   O374    1.275   .     A
C310   H352    1.079   .     S
C310   C324    1.394   .     A
C310   C333    1.409   .     A
C311   O362    1.388   .     S
C311   C323    1.401   .     A
C311   C324    1.405   .     A
C312   O377    1.278   .     A
C312   C314    1.459   .     S
C312   O375    1.281   .     A
C313   C325    1.431   .     A
C313   C322    1.494   .     S
C313   C332    1.422   .     A
C314   C392    1.337   .     S
C314   O449    1.386   .     S
C316   C319    1.450   .     S
C316   C548    1.349   .     S
C316   H579    1.088   .     S
C317   C318    1.425   .     S
C318   O368    1.273   .     A
C318   O378    1.281   .     A
C319   O379    1.273   .     A
C319   O373    1.254   .     A
C320   C325    1.408   .     A
C320   C1023   1.402   .     S
C320   O1064   1.383   .     S
C321   O360    1.275   .     A
C321   O358    1.285   .     A
C321   C324    1.457   .     S
C322   O359    1.277   .     A
C322   O361    1.289   .     A
C323   C1027   1.401   1_554 S
C323   H1044   1.083   1_554 S
C325   S381    1.790   .     S
C326   H355    1.114   .     S
C326   H354    1.110   .     S
C326   H356    1.109   .     S
C326   O362    1.411   .     S
C327   O370    1.410   .     S
C327   H340    1.113   .     S
C327   H341    1.114   .     S
C327   H342    1.109   .     S
C328   H343    1.113   .     S
C328   O371    1.412   .     S
C328   H344    1.109   .     S
C329   O372    1.410   .     S
C329   H347    1.115   .     S
C329   H349    1.107   .     S
C330   O370    1.383   .     S
C330   C1013   1.402   1_554 S
C330   C1024   1.419   1_554 S
C331   C332    1.421   .     A
C331   C1023   1.419   .     S
C331   C1026   1.429   .     S
C332   C336    1.412   .     A
C333   C1024   1.429   1_554 S
C333   C1027   1.419   1_554 S
C334   C335    1.391   .     A
C334   C1016   1.401   .     S
C334   C1026   1.419   .     S
C335   C336    1.384   .     A
C335   H350    1.084   .     S
C336   H353    1.081   .     S
H337   C392    1.087   .     S
H338   O365    0.991   .     S
H339   O446    0.989   .     S
H345   C405    1.109   .     S
H346   C406    1.112   .     S
H351   C1016   1.083   .     S
O357   Zn383   1.961   .     S
O357   Zn384   1.933   .     S
O357   Zn385   1.917   .     S
O357   Zn382   1.957   .     S
O358   Zn383   1.924   .     S
O359   Zn385   1.940   .     S
O360   Zn384   1.937   .     S
O361   Zn382   1.920   .     S
O363   S380    1.504   .     D
O364   S380    1.504   .     D
O366   S381    1.502   .     D
O367   S381    1.504   .     D
O368   Zn382   1.943   .     S
O369   S381    1.683   .     S
O371   C1013   1.383   1_554 S
O373   Zn385   1.943   .     S
O374   Zn383   1.913   .     S
O375   Zn384   1.931   .     S
O376   Zn385   1.935   .     S
O377   Zn382   1.919   .     S
O378   Zn383   1.941   .     S
O379   Zn384   1.935   .     S
S380   C548    1.780   .     S
S380   O596    1.683   .     S
C386   O453    1.268   .     A
C386   C392    1.436   .     S
C386   O451    1.275   .     A
C387   H429    1.079   .     S
C387   C401    1.394   .     A
C387   C410    1.409   .     A
C388   O439    1.388   .     S
C388   C400    1.401   .     A
C388   C401    1.405   .     A
C389   O454    1.278   .     A
C389   C391    1.459   .     S
C389   O452    1.281   .     A
C390   C402    1.431   .     A
C390   C399    1.494   .     S
C390   C409    1.422   .     A
C391   C238    1.337   1_655 S
C391   O295    1.386   1_655 S
C393   C396    1.450   .     S
C393   C625    1.349   .     S
C393   H656    1.088   .     S
C394   C395    1.425   .     S
C395   O445    1.273   .     A
C395   O455    1.281   .     A
C396   O456    1.273   .     A
C396   O450    1.254   .     A
C397   C402    1.408   .     A
C397   C1100   1.402   .     S
C397   O1141   1.383   .     S
C398   O437    1.275   .     A
C398   O435    1.285   .     A
C398   C401    1.457   .     S
C399   O436    1.277   .     A
C399   O438    1.289   .     A
C400   C1104   1.401   1_554 S
C400   H1121   1.083   1_554 S
C402   S458    1.790   .     S
C403   H432    1.114   .     S
C403   H431    1.110   .     S
C403   H433    1.109   .     S
C403   O439    1.411   .     S
C404   O447    1.410   .     S
C404   H417    1.113   .     S
C404   H418    1.114   .     S
C404   H419    1.109   .     S
C405   H420    1.113   .     S
C405   O448    1.412   .     S
C405   H421    1.109   .     S
C406   O449    1.410   .     S
C406   H424    1.115   .     S
C406   H426    1.107   .     S
C407   O447    1.383   .     S
C407   C1090   1.402   1_554 S
C407   C1101   1.419   1_554 S
C408   C409    1.421   .     A
C408   C1100   1.419   .     S
C408   C1103   1.429   .     S
C409   C413    1.412   .     A
C410   C1101   1.429   1_554 S
C410   C1104   1.419   1_554 S
C411   C412    1.391   .     A
C411   C1093   1.401   .     S
C411   C1103   1.419   .     S
C412   C413    1.384   .     A
C412   H427    1.084   .     S
C413   H430    1.081   .     S
H414   C238    1.087   1_655 S
H415   O442    0.991   .     S
H416   O292    0.989   1_655 S
H422   C251    1.109   1_655 S
H423   C252    1.112   1_655 S
H428   C1093   1.083   .     S
O434   Zn460   1.961   .     S
O434   Zn461   1.933   .     S
O434   Zn462   1.917   .     S
O434   Zn459   1.957   .     S
O435   Zn460   1.924   .     S
O436   Zn462   1.940   .     S
O437   Zn461   1.937   .     S
O438   Zn459   1.920   .     S
O440   S457    1.504   .     D
O441   S457    1.504   .     D
O443   S458    1.502   .     D
O444   S458    1.504   .     D
O445   Zn459   1.943   .     S
O446   S458    1.683   .     S
O448   C1090   1.383   1_554 S
O450   Zn462   1.943   .     S
O451   Zn460   1.913   .     S
O452   Zn461   1.931   .     S
O453   Zn462   1.935   .     S
O454   Zn459   1.919   .     S
O455   Zn460   1.941   .     S
O456   Zn461   1.935   .     S
S457   C625    1.780   .     S
S457   O673    1.683   .     S
C463   O530    1.268   .     A
C463   C469    1.436   .     S
C463   O528    1.275   .     A
C464   H506    1.079   .     S
C464   C478    1.394   .     A
C464   C487    1.409   .     A
C465   O516    1.388   .     S
C465   C477    1.401   .     A
C465   C478    1.405   .     A
C466   O531    1.278   .     A
C466   C468    1.459   .     S
C466   O529    1.281   .     A
C467   C479    1.431   .     A
C467   C476    1.494   .     S
C467   C486    1.422   .     A
C468   C546    1.337   .     S
C468   O603    1.386   .     S
C469   C622    1.337   1_455 S
C469   H645    1.087   1_455 S
C470   C473    1.450   .     S
C470   C9      1.349   1_565 S
C470   H40     1.088   1_565 S
C471   C472    1.425   .     S
C472   O522    1.273   .     A
C472   O532    1.281   .     A
C473   O533    1.273   .     A
C473   O527    1.254   .     A
C474   C479    1.408   .     A
C474   C1177   1.402   .     S
C474   O1218   1.383   .     S
C475   O514    1.275   .     A
C475   O512    1.285   .     A
C475   C478    1.457   .     S
C476   O513    1.277   .     A
C476   O515    1.289   .     A
C477   C1181   1.401   1_554 S
C477   H1198   1.083   1_554 S
C479   S535    1.790   .     S
C480   H509    1.114   .     S
C480   H508    1.110   .     S
C480   H510    1.109   .     S
C480   O516    1.411   .     S
C481   O524    1.410   .     S
C481   H494    1.113   .     S
C481   H495    1.114   .     S
C481   H496    1.109   .     S
C482   H497    1.113   .     S
C482   O525    1.412   .     S
C482   H498    1.109   .     S
C482   H653    1.109   1_455 S
C483   O526    1.410   .     S
C483   H501    1.115   .     S
C483   H503    1.107   .     S
C483   H654    1.112   1_455 S
C484   O524    1.383   .     S
C484   C1167   1.402   1_554 S
C484   C1178   1.419   1_554 S
C485   C486    1.421   .     A
C485   C1177   1.419   .     S
C485   C1180   1.429   .     S
C486   C490    1.412   .     A
C487   C1178   1.429   1_554 S
C487   C1181   1.419   1_554 S
C488   C489    1.391   .     A
C488   C1170   1.401   .     S
C488   C1180   1.419   .     S
C489   C490    1.384   .     A
C489   H504    1.084   .     S
C490   H507    1.081   .     S
H491   C546    1.087   .     S
H492   O519    0.991   .     S
H493   O600    0.989   .     S
H499   C559    1.109   .     S
H500   C560    1.112   .     S
H505   C1170   1.083   .     S
O511   Zn537   1.961   .     S
O511   Zn538   1.933   .     S
O511   Zn539   1.917   .     S
O511   Zn536   1.957   .     S
O512   Zn537   1.924   .     S
O513   Zn539   1.940   .     S
O514   Zn538   1.937   .     S
O515   Zn536   1.920   .     S
O517   S534    1.504   .     D
O518   S534    1.504   .     D
O520   S535    1.502   .     D
O521   S535    1.504   .     D
O522   Zn536   1.943   .     S
O523   S535    1.683   .     S
O523   H647    0.989   1_455 S
O525   C1167   1.383   1_554 S
O526   C622    1.386   1_455 S
O527   Zn539   1.943   .     S
O528   Zn537   1.913   .     S
O529   Zn538   1.931   .     S
O530   Zn539   1.935   .     S
O531   Zn536   1.919   .     S
O532   Zn537   1.941   .     S
O533   Zn538   1.935   .     S
S534   C9      1.780   1_565 S
S534   O57     1.683   1_565 S
C540   O607    1.268   .     A
C540   C546    1.436   .     S
C540   O605    1.275   .     A
C541   H583    1.079   .     S
C541   C555    1.394   .     A
C541   C564    1.409   .     A
C542   O593    1.388   .     S
C542   C554    1.401   .     A
C542   C555    1.405   .     A
C543   O608    1.278   .     A
C543   C545    1.459   .     S
C543   O606    1.281   .     A
C544   C556    1.431   .     A
C544   C553    1.494   .     S
C544   C563    1.422   .     A
C545   C623    1.337   .     S
C545   O680    1.386   .     S
C547   C550    1.450   .     S
C547   C86     1.349   1_565 S
C547   H117    1.088   1_565 S
C548   C549    1.425   .     S
C549   O599    1.273   .     A
C549   O609    1.281   .     A
C550   O610    1.273   .     A
C550   O604    1.254   .     A
C551   C556    1.408   .     A
C551   C1254   1.402   .     S
C551   O1295   1.383   .     S
C552   O591    1.275   .     A
C552   O589    1.285   .     A
C552   C555    1.457   .     S
C553   O590    1.277   .     A
C553   O592    1.289   .     A
C554   C1258   1.401   1_554 S
C554   H1275   1.083   1_554 S
C556   S612    1.790   .     S
C557   H586    1.114   .     S
C557   H585    1.110   .     S
C557   H587    1.109   .     S
C557   O593    1.411   .     S
C558   O601    1.410   .     S
C558   H571    1.113   .     S
C558   H572    1.114   .     S
C558   H573    1.109   .     S
C559   H574    1.113   .     S
C559   O602    1.412   .     S
C559   H575    1.109   .     S
C560   O603    1.410   .     S
C560   H578    1.115   .     S
C560   H580    1.107   .     S
C561   O601    1.383   .     S
C561   C1244   1.402   1_554 S
C561   C1255   1.419   1_554 S
C562   C563    1.421   .     A
C562   C1254   1.419   .     S
C562   C1257   1.429   .     S
C563   C567    1.412   .     A
C564   C1255   1.429   1_554 S
C564   C1258   1.419   1_554 S
C565   C566    1.391   .     A
C565   C1247   1.401   .     S
C565   C1257   1.419   .     S
C566   C567    1.384   .     A
C566   H581    1.084   .     S
C567   H584    1.081   .     S
H568   C623    1.087   .     S
H569   O596    0.991   .     S
H570   O677    0.989   .     S
H576   C636    1.109   .     S
H577   C637    1.112   .     S
H582   C1247   1.083   .     S
O588   Zn614   1.961   .     S
O588   Zn615   1.933   .     S
O588   Zn616   1.917   .     S
O588   Zn613   1.957   .     S
O589   Zn614   1.924   .     S
O590   Zn616   1.940   .     S
O591   Zn615   1.937   .     S
O592   Zn613   1.920   .     S
O594   S611    1.504   .     D
O595   S611    1.504   .     D
O597   S612    1.502   .     D
O598   S612    1.504   .     D
O599   Zn613   1.943   .     S
O600   S612    1.683   .     S
O602   C1244   1.383   1_554 S
O604   Zn616   1.943   .     S
O605   Zn614   1.913   .     S
O606   Zn615   1.931   .     S
O607   Zn616   1.935   .     S
O608   Zn613   1.919   .     S
O609   Zn614   1.941   .     S
O610   Zn615   1.935   .     S
S611   C86     1.780   1_565 S
S611   O134    1.683   1_565 S
C617   O684    1.268   .     A
C617   C623    1.436   .     S
C617   O682    1.275   .     A
C618   H660    1.079   .     S
C618   C632    1.394   .     A
C618   C641    1.409   .     A
C619   O670    1.388   .     S
C619   C631    1.401   .     A
C619   C632    1.405   .     A
C620   O685    1.278   .     A
C620   C622    1.459   .     S
C620   O683    1.281   .     A
C621   C633    1.431   .     A
C621   C630    1.494   .     S
C621   C640    1.422   .     A
C622   C469    1.337   1_655 S
C622   O526    1.386   1_655 S
C624   C627    1.450   .     S
C624   C163    1.349   1_565 S
C624   H194    1.088   1_565 S
C625   C626    1.425   .     S
C626   O676    1.273   .     A
C626   O686    1.281   .     A
C627   O687    1.273   .     A
C627   O681    1.254   .     A
C628   C633    1.408   .     A
C628   C1331   1.402   .     S
C628   O1372   1.383   .     S
C629   O668    1.275   .     A
C629   O666    1.285   .     A
C629   C632    1.457   .     S
C630   O667    1.277   .     A
C630   O669    1.289   .     A
C631   C1335   1.401   1_554 S
C631   H1352   1.083   1_554 S
C633   S689    1.790   .     S
C634   H663    1.114   .     S
C634   H662    1.110   .     S
C634   H664    1.109   .     S
C634   O670    1.411   .     S
C635   O678    1.410   .     S
C635   H648    1.113   .     S
C635   H649    1.114   .     S
C635   H650    1.109   .     S
C636   H651    1.113   .     S
C636   O679    1.412   .     S
C636   H652    1.109   .     S
C637   O680    1.410   .     S
C637   H655    1.115   .     S
C637   H657    1.107   .     S
C638   O678    1.383   .     S
C638   C1321   1.402   1_554 S
C638   C1332   1.419   1_554 S
C639   C640    1.421   .     A
C639   C1331   1.419   .     S
C639   C1334   1.429   .     S
C640   C644    1.412   .     A
C641   C1332   1.429   1_554 S
C641   C1335   1.419   1_554 S
C642   C643    1.391   .     A
C642   C1324   1.401   .     S
C642   C1334   1.419   .     S
C643   C644    1.384   .     A
C643   H658    1.084   .     S
C644   H661    1.081   .     S
H645   C469    1.087   1_655 S
H646   O673    0.991   .     S
H647   O523    0.989   1_655 S
H653   C482    1.109   1_655 S
H654   C483    1.112   1_655 S
H659   C1324   1.083   .     S
O665   Zn691   1.961   .     S
O665   Zn692   1.933   .     S
O665   Zn693   1.917   .     S
O665   Zn690   1.957   .     S
O666   Zn691   1.924   .     S
O667   Zn693   1.940   .     S
O668   Zn692   1.937   .     S
O669   Zn690   1.920   .     S
O671   S688    1.504   .     D
O672   S688    1.504   .     D
O674   S689    1.502   .     D
O675   S689    1.504   .     D
O676   Zn690   1.943   .     S
O677   S689    1.683   .     S
O679   C1321   1.383   1_554 S
O681   Zn693   1.943   .     S
O682   Zn691   1.913   .     S
O683   Zn692   1.931   .     S
O684   Zn693   1.935   .     S
O685   Zn690   1.919   .     S
O686   Zn691   1.941   .     S
O687   Zn692   1.935   .     S
S688   C163    1.780   1_565 S
S688   O211    1.683   1_565 S
C694   O761    1.268   .     A
C694   C700    1.436   .     S
C694   O759    1.275   .     A
C695   H737    1.079   .     S
C695   C709    1.394   .     A
C695   C718    1.409   .     A
C696   O747    1.388   .     S
C696   C708    1.401   .     A
C696   C709    1.405   .     A
C697   O762    1.278   .     A
C697   C699    1.459   .     S
C697   O760    1.281   .     A
C698   C710    1.431   .     A
C698   C707    1.494   .     S
C698   C717    1.422   .     A
C699   C777    1.337   .     S
C699   O834    1.386   .     S
C700   C853    1.337   1_455 S
C700   H876    1.087   1_455 S
C701   C704    1.450   .     S
C701   C933    1.349   .     S
C701   H964    1.088   .     S
C702   C703    1.425   .     S
C702   C1163   1.349   1_545 S
C702   S1227   1.780   1_545 S
C703   O753    1.273   .     A
C703   O763    1.281   .     A
C704   O764    1.273   .     A
C704   O758    1.254   .     A
C705   C710    1.408   .     A
C705   C22     1.402   1_556 S
C705   O63     1.383   1_556 S
C706   O745    1.275   .     A
C706   O743    1.285   .     A
C706   C709    1.457   .     S
C707   O744    1.277   .     A
C707   O746    1.289   .     A
C710   S766    1.790   .     S
C711   H740    1.114   .     S
C711   H739    1.110   .     S
C711   H741    1.109   .     S
C711   O747    1.411   .     S
C712   O755    1.410   .     S
C712   H725    1.113   .     S
C712   H726    1.114   .     S
C712   H727    1.109   .     S
C713   H728    1.113   .     S
C713   O756    1.412   .     S
C713   H729    1.109   .     S
C713   H884    1.109   1_455 S
C714   O757    1.410   .     S
C714   H732    1.115   .     S
C714   H734    1.107   .     S
C714   H885    1.112   1_455 S
C715   O755    1.383   .     S
C716   C717    1.421   .     A
C716   C22     1.419   1_556 S
C716   C25     1.429   1_556 S
C717   C721    1.412   .     A
C719   C720    1.391   .     A
C719   C15     1.401   1_556 S
C719   C25     1.419   1_556 S
C720   C721    1.384   .     A
C720   H735    1.084   .     S
C721   H738    1.081   .     S
H722   C777    1.087   .     S
H723   O750    0.991   .     S
H724   O831    0.989   .     S
H730   C790    1.109   .     S
H731   C791    1.112   .     S
H733   C1163   1.088   1_545 S
H736   C15     1.083   1_556 S
O742   Zn768   1.961   .     S
O742   Zn769   1.933   .     S
O742   Zn770   1.917   .     S
O742   Zn767   1.957   .     S
O743   Zn768   1.924   .     S
O744   Zn770   1.940   .     S
O745   Zn769   1.937   .     S
O746   Zn767   1.920   .     S
O748   S765    1.504   .     D
O749   S765    1.504   .     D
O750   S1227   1.683   1_545 S
O751   S766    1.502   .     D
O752   S766    1.504   .     D
O753   Zn767   1.943   .     S
O754   S766    1.683   .     S
O754   H878    0.989   1_455 S
O757   C853    1.386   1_455 S
O758   Zn770   1.943   .     S
O759   Zn768   1.913   .     S
O760   Zn769   1.931   .     S
O761   Zn770   1.935   .     S
O762   Zn767   1.919   .     S
O763   Zn768   1.941   .     S
O764   Zn769   1.935   .     S
S765   C933    1.780   .     S
S765   O981    1.683   .     S
C771   O838    1.268   .     A
C771   C777    1.436   .     S
C771   O836    1.275   .     A
C772   H814    1.079   .     S
C772   C786    1.394   .     A
C772   C795    1.409   .     A
C773   O824    1.388   .     S
C773   C785    1.401   .     A
C773   C786    1.405   .     A
C774   O839    1.278   .     A
C774   C776    1.459   .     S
C774   O837    1.281   .     A
C775   C787    1.431   .     A
C775   C784    1.494   .     S
C775   C794    1.422   .     A
C776   C854    1.337   .     S
C776   O911    1.386   .     S
C778   C781    1.450   .     S
C778   C1010   1.349   .     S
C778   H1041   1.088   .     S
C779   C780    1.425   .     S
C779   C1240   1.349   1_545 S
C779   S1304   1.780   1_545 S
C780   O830    1.273   .     A
C780   O840    1.281   .     A
C781   O841    1.273   .     A
C781   O835    1.254   .     A
C782   C787    1.408   .     A
C782   C99     1.402   1_556 S
C782   O140    1.383   1_556 S
C783   O822    1.275   .     A
C783   O820    1.285   .     A
C783   C786    1.457   .     S
C784   O821    1.277   .     A
C784   O823    1.289   .     A
C787   S843    1.790   .     S
C788   H817    1.114   .     S
C788   H816    1.110   .     S
C788   H818    1.109   .     S
C788   O824    1.411   .     S
C789   O832    1.410   .     S
C789   H802    1.113   .     S
C789   H803    1.114   .     S
C789   H804    1.109   .     S
C790   H805    1.113   .     S
C790   O833    1.412   .     S
C790   H806    1.109   .     S
C791   O834    1.410   .     S
C791   H809    1.115   .     S
C791   H811    1.107   .     S
C792   O832    1.383   .     S
C793   C794    1.421   .     A
C793   C99     1.419   1_556 S
C793   C102    1.429   1_556 S
C794   C798    1.412   .     A
C796   C797    1.391   .     A
C796   C92     1.401   1_556 S
C796   C102    1.419   1_556 S
C797   C798    1.384   .     A
C797   H812    1.084   .     S
C798   H815    1.081   .     S
H799   C854    1.087   .     S
H800   O827    0.991   .     S
H801   O908    0.989   .     S
H807   C867    1.109   .     S
H808   C868    1.112   .     S
H810   C1240   1.088   1_545 S
H813   C92     1.083   1_556 S
O819   Zn845   1.961   .     S
O819   Zn846   1.933   .     S
O819   Zn847   1.917   .     S
O819   Zn844   1.957   .     S
O820   Zn845   1.924   .     S
O821   Zn847   1.940   .     S
O822   Zn846   1.937   .     S
O823   Zn844   1.920   .     S
O825   S842    1.504   .     D
O826   S842    1.504   .     D
O827   S1304   1.683   1_545 S
O828   S843    1.502   .     D
O829   S843    1.504   .     D
O830   Zn844   1.943   .     S
O831   S843    1.683   .     S
O835   Zn847   1.943   .     S
O836   Zn845   1.913   .     S
O837   Zn846   1.931   .     S
O838   Zn847   1.935   .     S
O839   Zn844   1.919   .     S
O840   Zn845   1.941   .     S
O841   Zn846   1.935   .     S
S842   C1010   1.780   .     S
S842   O1058   1.683   .     S
C848   O915    1.268   .     A
C848   C854    1.436   .     S
C848   O913    1.275   .     A
C849   H891    1.079   .     S
C849   C863    1.394   .     A
C849   C872    1.409   .     A
C850   O901    1.388   .     S
C850   C862    1.401   .     A
C850   C863    1.405   .     A
C851   O916    1.278   .     A
C851   C853    1.459   .     S
C851   O914    1.281   .     A
C852   C864    1.431   .     A
C852   C861    1.494   .     S
C852   C871    1.422   .     A
C853   C700    1.337   1_655 S
C853   O757    1.386   1_655 S
C855   C858    1.450   .     S
C855   C1087   1.349   .     S
C855   H1118   1.088   .     S
C856   C857    1.425   .     S
C856   C1317   1.349   1_545 S
C856   S1381   1.780   1_545 S
C857   O907    1.273   .     A
C857   O917    1.281   .     A
C858   O918    1.273   .     A
C858   O912    1.254   .     A
C859   C864    1.408   .     A
C859   C176    1.402   1_556 S
C859   O217    1.383   1_556 S
C860   O899    1.275   .     A
C860   O897    1.285   .     A
C860   C863    1.457   .     S
C861   O898    1.277   .     A
C861   O900    1.289   .     A
C864   S920    1.790   .     S
C865   H894    1.114   .     S
C865   H893    1.110   .     S
C865   H895    1.109   .     S
C865   O901    1.411   .     S
C866   O909    1.410   .     S
C866   H879    1.113   .     S
C866   H880    1.114   .     S
C866   H881    1.109   .     S
C867   H882    1.113   .     S
C867   O910    1.412   .     S
C867   H883    1.109   .     S
C868   O911    1.410   .     S
C868   H886    1.115   .     S
C868   H888    1.107   .     S
C869   O909    1.383   .     S
C870   C871    1.421   .     A
C870   C176    1.419   1_556 S
C870   C179    1.429   1_556 S
C871   C875    1.412   .     A
C873   C874    1.391   .     A
C873   C169    1.401   1_556 S
C873   C179    1.419   1_556 S
C874   C875    1.384   .     A
C874   H889    1.084   .     S
C875   H892    1.081   .     S
H876   C700    1.087   1_655 S
H877   O904    0.991   .     S
H878   O754    0.989   1_655 S
H884   C713    1.109   1_655 S
H885   C714    1.112   1_655 S
H887   C1317   1.088   1_545 S
H890   C169    1.083   1_556 S
O896   Zn922   1.961   .     S
O896   Zn923   1.933   .     S
O896   Zn924   1.917   .     S
O896   Zn921   1.957   .     S
O897   Zn922   1.924   .     S
O898   Zn924   1.940   .     S
O899   Zn923   1.937   .     S
O900   Zn921   1.920   .     S
O902   S919    1.504   .     D
O903   S919    1.504   .     D
O904   S1381   1.683   1_545 S
O905   S920    1.502   .     D
O906   S920    1.504   .     D
O907   Zn921   1.943   .     S
O908   S920    1.683   .     S
O912   Zn924   1.943   .     S
O913   Zn922   1.913   .     S
O914   Zn923   1.931   .     S
O915   Zn924   1.935   .     S
O916   Zn921   1.919   .     S
O917   Zn922   1.941   .     S
O918   Zn923   1.935   .     S
S919   C1087   1.780   .     S
S919   O1135   1.683   .     S
C925   O992    1.268   .     A
C925   C931    1.436   .     S
C925   O990    1.275   .     A
C926   H968    1.079   .     S
C926   C940    1.394   .     A
C926   C949    1.409   .     A
C927   O978    1.388   .     S
C927   C939    1.401   .     A
C927   C940    1.405   .     A
C928   O993    1.278   .     A
C928   C930    1.459   .     S
C928   O991    1.281   .     A
C929   C941    1.431   .     A
C929   C938    1.494   .     S
C929   C948    1.422   .     A
C930   C1008   1.337   .     S
C930   O1065   1.386   .     S
C931   C1084   1.337   1_455 S
C931   H1107   1.087   1_455 S
C932   C935    1.450   .     S
C932   C1164   1.349   .     S
C932   H1195   1.088   .     S
C933   C934    1.425   .     S
C934   O984    1.273   .     A
C934   O994    1.281   .     A
C935   O995    1.273   .     A
C935   O989    1.254   .     A
C936   C941    1.408   .     A
C936   C253    1.402   1_556 S
C936   O294    1.383   1_556 S
C937   O976    1.275   .     A
C937   O974    1.285   .     A
C937   C940    1.457   .     S
C938   O975    1.277   .     A
C938   O977    1.289   .     A
C941   S997    1.790   .     S
C942   H971    1.114   .     S
C942   H970    1.110   .     S
C942   H972    1.109   .     S
C942   O978    1.411   .     S
C943   O986    1.410   .     S
C943   H956    1.113   .     S
C943   H957    1.114   .     S
C943   H958    1.109   .     S
C944   H959    1.113   .     S
C944   O987    1.412   .     S
C944   H960    1.109   .     S
C944   H1115   1.109   1_455 S
C945   O988    1.410   .     S
C945   H963    1.115   .     S
C945   H965    1.107   .     S
C945   H1116   1.112   1_455 S
C946   O986    1.383   .     S
C947   C948    1.421   .     A
C947   C253    1.419   1_556 S
C947   C256    1.429   1_556 S
C948   C952    1.412   .     A
C950   C951    1.391   .     A
C950   C246    1.401   1_556 S
C950   C256    1.419   1_556 S
C951   C952    1.384   .     A
C951   H966    1.084   .     S
C952   H969    1.081   .     S
H953   C1008   1.087   .     S
H954   O981    0.991   .     S
H955   O1062   0.989   .     S
H961   C1021   1.109   .     S
H962   C1022   1.112   .     S
H967   C246    1.083   1_556 S
O973   Zn999   1.961   .     S
O973   Zn1000  1.933   .     S
O973   Zn1001  1.917   .     S
O973   Zn998   1.957   .     S
O974   Zn999   1.924   .     S
O975   Zn1001  1.940   .     S
O976   Zn1000  1.937   .     S
O977   Zn998   1.920   .     S
O979   S996    1.504   .     D
O980   S996    1.504   .     D
O982   S997    1.502   .     D
O983   S997    1.504   .     D
O984   Zn998   1.943   .     S
O985   S997    1.683   .     S
O985   H1109   0.989   1_455 S
O988   C1084   1.386   1_455 S
O989   Zn1001  1.943   .     S
O990   Zn999   1.913   .     S
O991   Zn1000  1.931   .     S
O992   Zn1001  1.935   .     S
O993   Zn998   1.919   .     S
O994   Zn999   1.941   .     S
O995   Zn1000  1.935   .     S
S996   C1164   1.780   .     S
S996   O1212   1.683   .     S
C1002  O1069   1.268   .     A
C1002  C1008   1.436   .     S
C1002  O1067   1.275   .     A
C1003  H1045   1.079   .     S
C1003  C1017   1.394   .     A
C1003  C1026   1.409   .     A
C1004  O1055   1.388   .     S
C1004  C1016   1.401   .     A
C1004  C1017   1.405   .     A
C1005  O1070   1.278   .     A
C1005  C1007   1.459   .     S
C1005  O1068   1.281   .     A
C1006  C1018   1.431   .     A
C1006  C1015   1.494   .     S
C1006  C1025   1.422   .     A
C1007  C1085   1.337   .     S
C1007  O1142   1.386   .     S
C1009  C1012   1.450   .     S
C1009  C1241   1.349   .     S
C1009  H1272   1.088   .     S
C1010  C1011   1.425   .     S
C1011  O1061   1.273   .     A
C1011  O1071   1.281   .     A
C1012  O1072   1.273   .     A
C1012  O1066   1.254   .     A
C1013  C1018   1.408   .     A
C1013  C330    1.402   1_556 S
C1013  O371    1.383   1_556 S
C1014  O1053   1.275   .     A
C1014  O1051   1.285   .     A
C1014  C1017   1.457   .     S
C1015  O1052   1.277   .     A
C1015  O1054   1.289   .     A
C1018  S1074   1.790   .     S
C1019  H1048   1.114   .     S
C1019  H1047   1.110   .     S
C1019  H1049   1.109   .     S
C1019  O1055   1.411   .     S
C1020  O1063   1.410   .     S
C1020  H1033   1.113   .     S
C1020  H1034   1.114   .     S
C1020  H1035   1.109   .     S
C1021  H1036   1.113   .     S
C1021  O1064   1.412   .     S
C1021  H1037   1.109   .     S
C1022  O1065   1.410   .     S
C1022  H1040   1.115   .     S
C1022  H1042   1.107   .     S
C1023  O1063   1.383   .     S
C1024  C1025   1.421   .     A
C1024  C330    1.419   1_556 S
C1024  C333    1.429   1_556 S
C1025  C1029   1.412   .     A
C1027  C1028   1.391   .     A
C1027  C323    1.401   1_556 S
C1027  C333    1.419   1_556 S
C1028  C1029   1.384   .     A
C1028  H1043   1.084   .     S
C1029  H1046   1.081   .     S
H1030  C1085   1.087   .     S
H1031  O1058   0.991   .     S
H1032  O1139   0.989   .     S
H1038  C1098   1.109   .     S
H1039  C1099   1.112   .     S
H1044  C323    1.083   1_556 S
O1050  Zn1076  1.961   .     S
O1050  Zn1077  1.933   .     S
O1050  Zn1078  1.917   .     S
O1050  Zn1075  1.957   .     S
O1051  Zn1076  1.924   .     S
O1052  Zn1078  1.940   .     S
O1053  Zn1077  1.937   .     S
O1054  Zn1075  1.920   .     S
O1056  S1073   1.504   .     D
O1057  S1073   1.504   .     D
O1059  S1074   1.502   .     D
O1060  S1074   1.504   .     D
O1061  Zn1075  1.943   .     S
O1062  S1074   1.683   .     S
O1066  Zn1078  1.943   .     S
O1067  Zn1076  1.913   .     S
O1068  Zn1077  1.931   .     S
O1069  Zn1078  1.935   .     S
O1070  Zn1075  1.919   .     S
O1071  Zn1076  1.941   .     S
O1072  Zn1077  1.935   .     S
S1073  C1241   1.780   .     S
S1073  O1289   1.683   .     S
C1079  O1146   1.268   .     A
C1079  C1085   1.436   .     S
C1079  O1144   1.275   .     A
C1080  H1122   1.079   .     S
C1080  C1094   1.394   .     A
C1080  C1103   1.409   .     A
C1081  O1132   1.388   .     S
C1081  C1093   1.401   .     A
C1081  C1094   1.405   .     A
C1082  O1147   1.278   .     A
C1082  C1084   1.459   .     S
C1082  O1145   1.281   .     A
C1083  C1095   1.431   .     A
C1083  C1092   1.494   .     S
C1083  C1102   1.422   .     A
C1084  C931    1.337   1_655 S
C1084  O988    1.386   1_655 S
C1086  C1089   1.450   .     S
C1086  C1318   1.349   .     S
C1086  H1349   1.088   .     S
C1087  C1088   1.425   .     S
C1088  O1138   1.273   .     A
C1088  O1148   1.281   .     A
C1089  O1149   1.273   .     A
C1089  O1143   1.254   .     A
C1090  C1095   1.408   .     A
C1090  C407    1.402   1_556 S
C1090  O448    1.383   1_556 S
C1091  O1130   1.275   .     A
C1091  O1128   1.285   .     A
C1091  C1094   1.457   .     S
C1092  O1129   1.277   .     A
C1092  O1131   1.289   .     A
C1095  S1151   1.790   .     S
C1096  H1125   1.114   .     S
C1096  H1124   1.110   .     S
C1096  H1126   1.109   .     S
C1096  O1132   1.411   .     S
C1097  O1140   1.410   .     S
C1097  H1110   1.113   .     S
C1097  H1111   1.114   .     S
C1097  H1112   1.109   .     S
C1098  H1113   1.113   .     S
C1098  O1141   1.412   .     S
C1098  H1114   1.109   .     S
C1099  O1142   1.410   .     S
C1099  H1117   1.115   .     S
C1099  H1119   1.107   .     S
C1100  O1140   1.383   .     S
C1101  C1102   1.421   .     A
C1101  C407    1.419   1_556 S
C1101  C410    1.429   1_556 S
C1102  C1106   1.412   .     A
C1104  C1105   1.391   .     A
C1104  C400    1.401   1_556 S
C1104  C410    1.419   1_556 S
C1105  C1106   1.384   .     A
C1105  H1120   1.084   .     S
C1106  H1123   1.081   .     S
H1107  C931    1.087   1_655 S
H1108  O1135   0.991   .     S
H1109  O985    0.989   1_655 S
H1115  C944    1.109   1_655 S
H1116  C945    1.112   1_655 S
H1121  C400    1.083   1_556 S
O1127  Zn1153  1.961   .     S
O1127  Zn1154  1.933   .     S
O1127  Zn1155  1.917   .     S
O1127  Zn1152  1.957   .     S
O1128  Zn1153  1.924   .     S
O1129  Zn1155  1.940   .     S
O1130  Zn1154  1.937   .     S
O1131  Zn1152  1.920   .     S
O1133  S1150   1.504   .     D
O1134  S1150   1.504   .     D
O1136  S1151   1.502   .     D
O1137  S1151   1.504   .     D
O1138  Zn1152  1.943   .     S
O1139  S1151   1.683   .     S
O1143  Zn1155  1.943   .     S
O1144  Zn1153  1.913   .     S
O1145  Zn1154  1.931   .     S
O1146  Zn1155  1.935   .     S
O1147  Zn1152  1.919   .     S
O1148  Zn1153  1.941   .     S
O1149  Zn1154  1.935   .     S
S1150  C1318   1.780   .     S
S1150  O1366   1.683   .     S
C1156  O1223   1.268   .     A
C1156  C1162   1.436   .     S
C1156  O1221   1.275   .     A
C1157  H1199   1.079   .     S
C1157  C1171   1.394   .     A
C1157  C1180   1.409   .     A
C1158  O1209   1.388   .     S
C1158  C1170   1.401   .     A
C1158  C1171   1.405   .     A
C1159  O1224   1.278   .     A
C1159  C1161   1.459   .     S
C1159  O1222   1.281   .     A
C1160  C1172   1.431   .     A
C1160  C1169   1.494   .     S
C1160  C1179   1.422   .     A
C1161  C1239   1.337   .     S
C1161  O1296   1.386   .     S
C1162  C1315   1.337   1_455 S
C1162  H1338   1.087   1_455 S
C1163  C1166   1.450   .     S
C1163  C702    1.349   1_565 S
C1163  H733    1.088   1_565 S
C1164  C1165   1.425   .     S
C1165  O1215   1.273   .     A
C1165  O1225   1.281   .     A
C1166  O1226   1.273   .     A
C1166  O1220   1.254   .     A
C1167  C1172   1.408   .     A
C1167  C484    1.402   1_556 S
C1167  O525    1.383   1_556 S
C1168  O1207   1.275   .     A
C1168  O1205   1.285   .     A
C1168  C1171   1.457   .     S
C1169  O1206   1.277   .     A
C1169  O1208   1.289   .     A
C1172  S1228   1.790   .     S
C1173  H1202   1.114   .     S
C1173  H1201   1.110   .     S
C1173  H1203   1.109   .     S
C1173  O1209   1.411   .     S
C1174  O1217   1.410   .     S
C1174  H1187   1.113   .     S
C1174  H1188   1.114   .     S
C1174  H1189   1.109   .     S
C1175  H1190   1.113   .     S
C1175  O1218   1.412   .     S
C1175  H1191   1.109   .     S
C1175  H1346   1.109   1_455 S
C1176  O1219   1.410   .     S
C1176  H1194   1.115   .     S
C1176  H1196   1.107   .     S
C1176  H1347   1.112   1_455 S
C1177  O1217   1.383   .     S
C1178  C1179   1.421   .     A
C1178  C484    1.419   1_556 S
C1178  C487    1.429   1_556 S
C1179  C1183   1.412   .     A
C1181  C1182   1.391   .     A
C1181  C477    1.401   1_556 S
C1181  C487    1.419   1_556 S
C1182  C1183   1.384   .     A
C1182  H1197   1.084   .     S
C1183  H1200   1.081   .     S
H1184  C1239   1.087   .     S
H1185  O1212   0.991   .     S
H1186  O1293   0.989   .     S
H1192  C1252   1.109   .     S
H1193  C1253   1.112   .     S
H1198  C477    1.083   1_556 S
O1204  Zn1230  1.961   .     S
O1204  Zn1231  1.933   .     S
O1204  Zn1232  1.917   .     S
O1204  Zn1229  1.957   .     S
O1205  Zn1230  1.924   .     S
O1206  Zn1232  1.940   .     S
O1207  Zn1231  1.937   .     S
O1208  Zn1229  1.920   .     S
O1210  S1227   1.504   .     D
O1211  S1227   1.504   .     D
O1213  S1228   1.502   .     D
O1214  S1228   1.504   .     D
O1215  Zn1229  1.943   .     S
O1216  S1228   1.683   .     S
O1216  H1340   0.989   1_455 S
O1219  C1315   1.386   1_455 S
O1220  Zn1232  1.943   .     S
O1221  Zn1230  1.913   .     S
O1222  Zn1231  1.931   .     S
O1223  Zn1232  1.935   .     S
O1224  Zn1229  1.919   .     S
O1225  Zn1230  1.941   .     S
O1226  Zn1231  1.935   .     S
S1227  C702    1.780   1_565 S
S1227  O750    1.683   1_565 S
C1233  O1300   1.268   .     A
C1233  C1239   1.436   .     S
C1233  O1298   1.275   .     A
C1234  H1276   1.079   .     S
C1234  C1248   1.394   .     A
C1234  C1257   1.409   .     A
C1235  O1286   1.388   .     S
C1235  C1247   1.401   .     A
C1235  C1248   1.405   .     A
C1236  O1301   1.278   .     A
C1236  C1238   1.459   .     S
C1236  O1299   1.281   .     A
C1237  C1249   1.431   .     A
C1237  C1246   1.494   .     S
C1237  C1256   1.422   .     A
C1238  C1316   1.337   .     S
C1238  O1373   1.386   .     S
C1240  C1243   1.450   .     S
C1240  C779    1.349   1_565 S
C1240  H810    1.088   1_565 S
C1241  C1242   1.425   .     S
C1242  O1292   1.273   .     A
C1242  O1302   1.281   .     A
C1243  O1303   1.273   .     A
C1243  O1297   1.254   .     A
C1244  C1249   1.408   .     A
C1244  C561    1.402   1_556 S
C1244  O602    1.383   1_556 S
C1245  O1284   1.275   .     A
C1245  O1282   1.285   .     A
C1245  C1248   1.457   .     S
C1246  O1283   1.277   .     A
C1246  O1285   1.289   .     A
C1249  S1305   1.790   .     S
C1250  H1279   1.114   .     S
C1250  H1278   1.110   .     S
C1250  H1280   1.109   .     S
C1250  O1286   1.411   .     S
C1251  O1294   1.410   .     S
C1251  H1264   1.113   .     S
C1251  H1265   1.114   .     S
C1251  H1266   1.109   .     S
C1252  H1267   1.113   .     S
C1252  O1295   1.412   .     S
C1252  H1268   1.109   .     S
C1253  O1296   1.410   .     S
C1253  H1271   1.115   .     S
C1253  H1273   1.107   .     S
C1254  O1294   1.383   .     S
C1255  C1256   1.421   .     A
C1255  C561    1.419   1_556 S
C1255  C564    1.429   1_556 S
C1256  C1260   1.412   .     A
C1258  C1259   1.391   .     A
C1258  C554    1.401   1_556 S
C1258  C564    1.419   1_556 S
C1259  C1260   1.384   .     A
C1259  H1274   1.084   .     S
C1260  H1277   1.081   .     S
H1261  C1316   1.087   .     S
H1262  O1289   0.991   .     S
H1263  O1370   0.989   .     S
H1269  C1329   1.109   .     S
H1270  C1330   1.112   .     S
H1275  C554    1.083   1_556 S
O1281  Zn1307  1.961   .     S
O1281  Zn1308  1.933   .     S
O1281  Zn1309  1.917   .     S
O1281  Zn1306  1.957   .     S
O1282  Zn1307  1.924   .     S
O1283  Zn1309  1.940   .     S
O1284  Zn1308  1.937   .     S
O1285  Zn1306  1.920   .     S
O1287  S1304   1.504   .     D
O1288  S1304   1.504   .     D
O1290  S1305   1.502   .     D
O1291  S1305   1.504   .     D
O1292  Zn1306  1.943   .     S
O1293  S1305   1.683   .     S
O1297  Zn1309  1.943   .     S
O1298  Zn1307  1.913   .     S
O1299  Zn1308  1.931   .     S
O1300  Zn1309  1.935   .     S
O1301  Zn1306  1.919   .     S
O1302  Zn1307  1.941   .     S
O1303  Zn1308  1.935   .     S
S1304  C779    1.780   1_565 S
S1304  O827    1.683   1_565 S
C1310  O1377   1.268   .     A
C1310  C1316   1.436   .     S
C1310  O1375   1.275   .     A
C1311  H1353   1.079   .     S
C1311  C1325   1.394   .     A
C1311  C1334   1.409   .     A
C1312  O1363   1.388   .     S
C1312  C1324   1.401   .     A
C1312  C1325   1.405   .     A
C1313  O1378   1.278   .     A
C1313  C1315   1.459   .     S
C1313  O1376   1.281   .     A
C1314  C1326   1.431   .     A
C1314  C1323   1.494   .     S
C1314  C1333   1.422   .     A
C1315  C1162   1.337   1_655 S
C1315  O1219   1.386   1_655 S
C1317  C1320   1.450   .     S
C1317  C856    1.349   1_565 S
C1317  H887    1.088   1_565 S
C1318  C1319   1.425   .     S
C1319  O1369   1.273   .     A
C1319  O1379   1.281   .     A
C1320  O1380   1.273   .     A
C1320  O1374   1.254   .     A
C1321  C1326   1.408   .     A
C1321  C638    1.402   1_556 S
C1321  O679    1.383   1_556 S
C1322  O1361   1.275   .     A
C1322  O1359   1.285   .     A
C1322  C1325   1.457   .     S
C1323  O1360   1.277   .     A
C1323  O1362   1.289   .     A
C1326  S1382   1.790   .     S
C1327  H1356   1.114   .     S
C1327  H1355   1.110   .     S
C1327  H1357   1.109   .     S
C1327  O1363   1.411   .     S
C1328  O1371   1.410   .     S
C1328  H1341   1.113   .     S
C1328  H1342   1.114   .     S
C1328  H1343   1.109   .     S
C1329  H1344   1.113   .     S
C1329  O1372   1.412   .     S
C1329  H1345   1.109   .     S
C1330  O1373   1.410   .     S
C1330  H1348   1.115   .     S
C1330  H1350   1.107   .     S
C1331  O1371   1.383   .     S
C1332  C1333   1.421   .     A
C1332  C638    1.419   1_556 S
C1332  C641    1.429   1_556 S
C1333  C1337   1.412   .     A
C1335  C1336   1.391   .     A
C1335  C631    1.401   1_556 S
C1335  C641    1.419   1_556 S
C1336  C1337   1.384   .     A
C1336  H1351   1.084   .     S
C1337  H1354   1.081   .     S
H1338  C1162   1.087   1_655 S
H1339  O1366   0.991   .     S
H1340  O1216   0.989   1_655 S
H1346  C1175   1.109   1_655 S
H1347  C1176   1.112   1_655 S
H1352  C631    1.083   1_556 S
O1358  Zn1384  1.961   .     S
O1358  Zn1385  1.933   .     S
O1358  Zn1386  1.917   .     S
O1358  Zn1383  1.957   .     S
O1359  Zn1384  1.924   .     S
O1360  Zn1386  1.940   .     S
O1361  Zn1385  1.937   .     S
O1362  Zn1383  1.920   .     S
O1364  S1381   1.504   .     D
O1365  S1381   1.504   .     D
O1367  S1382   1.502   .     D
O1368  S1382   1.504   .     D
O1369  Zn1383  1.943   .     S
O1370  S1382   1.683   .     S
O1374  Zn1386  1.943   .     S
O1375  Zn1384  1.913   .     S
O1376  Zn1385  1.931   .     S
O1377  Zn1386  1.935   .     S
O1378  Zn1383  1.919   .     S
O1379  Zn1384  1.941   .     S
O1380  Zn1385  1.935   .     S
S1381  C856    1.780   1_565 S
S1381  O904    1.683   1_565 S
