data_str_m1_o1_o2_pcu_sym.54
_audit_creation_date              2020-01-03
_audit_creation_method            'Materials Studio'
_symmetry_space_group_name_H-M    'P1'
_symmetry_Int_Tables_number       1
_symmetry_cell_setting            triclinic
loop_
_symmetry_equiv_pos_as_xyz
  x,y,z
_cell_length_a                    36.6015
_cell_length_b                    36.6014
_cell_length_c                    34.5841
_cell_angle_alpha                 89.9990
_cell_angle_beta                  89.9984
_cell_angle_gamma                 90.2766
loop_
_atom_site_label
_atom_site_type_symbol
_atom_site_fract_x
_atom_site_fract_y
_atom_site_fract_z
_atom_site_U_iso_or_equiv
_atom_site_adp_type
_atom_site_occupancy
C1     C     0.22381   0.47926   0.04095   0.00000  Uiso   1.00
C2     C     0.02142   0.22452   0.45843   0.00000  Uiso   1.00
C3     C     0.34807   0.40191   0.75007   0.00000  Uiso   1.00
C4     C     0.40192   0.15200   0.25002   0.00000  Uiso   1.00
C5     C     0.09800   0.34808   0.75002   0.00000  Uiso   1.00
C6     C     0.34809   0.40193   0.25007   0.00000  Uiso   1.00
C7     C     0.15193   0.09809   0.75007   0.00000  Uiso   1.00
C8     C     0.09809   0.15193   0.75007   0.00000  Uiso   1.00
C9     C     0.40193   0.34809   0.25007   0.00000  Uiso   1.00
C10    C     0.15192   0.40200   0.75002   0.00000  Uiso   1.00
C11    C     0.34800   0.09808   0.25002   0.00000  Uiso   1.00
C12    C     0.40191   0.34807   0.75007   0.00000  Uiso   1.00
C13    C     0.22912   0.47392   0.54097   0.00000  Uiso   1.00
C14    C     0.09807   0.15191   0.25007   0.00000  Uiso   1.00
C15    C     0.34808   0.09800   0.75002   0.00000  Uiso   1.00
C16    C     0.15200   0.40192   0.25002   0.00000  Uiso   1.00
C17    C     0.25000   0.00000   0.10204   0.00000  Uiso   1.00
C18    C     0.25000   0.00000   0.89755   0.00000  Uiso   1.00
C19    C    -0.00000   0.25000   0.10204   0.00000  Uiso   1.00
C20    C     0.00000   0.25000   0.89755   0.00000  Uiso   1.00
C21    C     0.00000   0.25000   0.60205   0.00000  Uiso   1.00
C22    C    -0.00000   0.25000   0.39756   0.00000  Uiso   1.00
C23    C     0.25000   0.00000   0.60205   0.00000  Uiso   1.00
C24    C     0.22453   0.02145   0.45843   0.00000  Uiso   1.00
C25    C     0.25000  -0.00000   0.39756   0.00000  Uiso   1.00
C26    C     0.18192   0.37347   0.19321   0.00000  Uiso   1.00
C27    C     0.31859   0.12598   0.80734   0.00000  Uiso   1.00
C28    C     0.14551   0.20026   0.24216   0.00000  Uiso   1.00
C29    C     0.35448   0.29972   0.75794   0.00000  Uiso   1.00
C30    C     0.31806   0.12656   0.19323   0.00000  Uiso   1.00
C31    C     0.18143   0.37399   0.80731   0.00000  Uiso   1.00
C32    C     0.35447   0.29973   0.24239   0.00000  Uiso   1.00
C33    C     0.14553   0.20029   0.75785   0.00000  Uiso   1.00
C34    C     0.20030   0.14554   0.75780   0.00000  Uiso   1.00
C35    C     0.02609   0.27087   0.54096   0.00000  Uiso   1.00
C36    C     0.29973   0.35447   0.24238   0.00000  Uiso   1.00
C37    C     0.12600   0.31856   0.80731   0.00000  Uiso   1.00
C38    C     0.37343   0.18196   0.19325   0.00000  Uiso   1.00
C39    C     0.29972   0.35448   0.75794   0.00000  Uiso   1.00
C40    C     0.20026   0.14551   0.24216   0.00000  Uiso   1.00
C41    C     0.37402   0.18140   0.80735   0.00000  Uiso   1.00
C42    C     0.12654   0.31808   0.19321   0.00000  Uiso   1.00
C43    C     0.43215   0.12324   0.69347   0.00000  Uiso   1.00
C44    C     0.06884   0.37573   0.30762   0.00000  Uiso   1.00
C45    C     0.39553   0.45027   0.74243   0.00000  Uiso   1.00
C46    C     0.47858   0.27549   0.45843   0.00000  Uiso   1.00
C47    C     0.10451   0.04974   0.25824   0.00000  Uiso   1.00
C48    C     0.06784   0.37677   0.69348   0.00000  Uiso   1.00
C49    C     0.43119   0.12423   0.30758   0.00000  Uiso   1.00
C50    C     0.10445   0.04972   0.74254   0.00000  Uiso   1.00
C51    C     0.39552   0.45028   0.25801   0.00000  Uiso   1.00
C52    C     0.45028   0.39551   0.25801   0.00000  Uiso   1.00
C53    C     0.04972   0.10446   0.74249   0.00000  Uiso   1.00
C54    C     0.37577   0.06880   0.30758   0.00000  Uiso   1.00
C55    C     0.12323   0.43216   0.69349   0.00000  Uiso   1.00
C56    C     0.04974   0.10451   0.25823   0.00000  Uiso   1.00
C57    C     0.27088   0.02609   0.54096   0.00000  Uiso   1.00
C58    C     0.45027   0.39554   0.74245   0.00000  Uiso   1.00
C59    C     0.12427   0.43115   0.30763   0.00000  Uiso   1.00
C60    C     0.37677   0.06785   0.69348   0.00000  Uiso   1.00
C61    C     0.19700   0.45677   0.10148   0.00000  Uiso   1.00
C62    C     0.29269   0.44728   0.89747   0.00000  Uiso   1.00
C63    C     0.45672   0.19705   0.10149   0.00000  Uiso   1.00
C64    C     0.44726   0.29266   0.89747   0.00000  Uiso   1.00
C65    C     0.30299   0.04324   0.10149   0.00000  Uiso   1.00
C66    C     0.20731   0.05272   0.89747   0.00000  Uiso   1.00
C67    C     0.04327   0.30297   0.10148   0.00000  Uiso   1.00
C68    C     0.27546   0.47856   0.45843   0.00000  Uiso   1.00
C69    C     0.05271   0.20729   0.89747   0.00000  Uiso   1.00
C70    C     0.44724   0.20649   0.60151   0.00000  Uiso   1.00
C71    C     0.04274   0.19732   0.39748   0.00000  Uiso   1.00
C72    C     0.20647   0.44725   0.60151   0.00000  Uiso   1.00
C73    C     0.19735   0.04278   0.39748   0.00000  Uiso   1.00
C74    C     0.05276   0.29351   0.60151   0.00000  Uiso   1.00
C75    C     0.45726   0.30268   0.39747   0.00000  Uiso   1.00
C76    C     0.29353   0.05274   0.60151   0.00000  Uiso   1.00
C77    C     0.30264   0.45721   0.39748   0.00000  Uiso   1.00
C78    C     0.22369   0.47918   0.08146   0.00000  Uiso   1.00
C79    C     0.27145   0.47444   0.91792   0.00000  Uiso   1.00
C80    C     0.47915   0.22372   0.08146   0.00000  Uiso   1.00
C81    C     0.27139   0.47449   0.95842   0.00000  Uiso   1.00
C82    C     0.47443   0.27145   0.91792   0.00000  Uiso   1.00
C83    C     0.27631   0.02082   0.08146   0.00000  Uiso   1.00
C84    C     0.22855   0.02557   0.91792   0.00000  Uiso   1.00
C85    C     0.02084   0.27629   0.08146   0.00000  Uiso   1.00
C86    C     0.02557   0.22854   0.91793   0.00000  Uiso   1.00
C87    C     0.47380   0.22905   0.58147   0.00000  Uiso   1.00
C88    C     0.02148   0.22446   0.41793   0.00000  Uiso   1.00
C89    C     0.22903   0.47381   0.58148   0.00000  Uiso   1.00
C90    C     0.22447   0.02150   0.41793   0.00000  Uiso   1.00
C91    C     0.02620   0.27096   0.58147   0.00000  Uiso   1.00
C92    C     0.47924   0.22383   0.04096   0.00000  Uiso   1.00
C93    C     0.47852   0.27555   0.41793   0.00000  Uiso   1.00
C94    C     0.27096   0.02619   0.58147   0.00000  Uiso   1.00
C95    C     0.27552   0.47850   0.41793   0.00000  Uiso   1.00
C96    C     0.25000   0.00000   0.02091   0.00000  Uiso   1.00
C97    C     0.25000   0.00000   0.97849   0.00000  Uiso   1.00
C98    C    -0.00000   0.25000   0.02091   0.00000  Uiso   1.00
C99    C    -0.00000   0.25000   0.97849   0.00000  Uiso   1.00
C100   C     0.00000   0.25001   0.52091   0.00000  Uiso   1.00
C101   C     0.00000   0.25001   0.47850   0.00000  Uiso   1.00
C102   C     0.25000   0.00000   0.52092   0.00000  Uiso   1.00
C103   C     0.47449   0.27139   0.95842   0.00000  Uiso   1.00
C104   C     0.25000   0.00000   0.47850   0.00000  Uiso   1.00
C105   C     0.25000  -0.00000   0.35512   0.00000  Uiso   1.00
C106   C     0.25000  -0.00000   0.64473   0.00000  Uiso   1.00
C107   C    -0.00000   0.25000   0.35512   0.00000  Uiso   1.00
C108   C     0.00000   0.25000   0.64473   0.00000  Uiso   1.00
C109   C     0.00000   0.25000   0.85512   0.00000  Uiso   1.00
C110   C     0.00000   0.25000   0.14473   0.00000  Uiso   1.00
C111   C     0.25000   0.00000   0.85512   0.00000  Uiso   1.00
C112   C     0.25000  -0.00000   0.14473   0.00000  Uiso   1.00
C113   C     0.18001   0.06998   0.25002   0.00000  Uiso   1.00
C114   C     0.27620   0.02074   0.04095   0.00000  Uiso   1.00
C115   C     0.31998   0.43000   0.75002   0.00000  Uiso   1.00
C116   C     0.43004   0.18007   0.24999   0.00000  Uiso   1.00
C117   C     0.06993   0.31996   0.74999   0.00000  Uiso   1.00
C118   C     0.32000   0.43002   0.25002   0.00000  Uiso   1.00
C119   C     0.18002   0.07000   0.75002   0.00000  Uiso   1.00
C120   C     0.06996   0.31993   0.24999   0.00000  Uiso   1.00
C121   C     0.43007   0.18004   0.74999   0.00000  Uiso   1.00
C122   C     0.18004   0.43007   0.74999   0.00000  Uiso   1.00
C123   C     0.31993   0.06996   0.24999   0.00000  Uiso   1.00
C124   C     0.43000   0.31998   0.75002   0.00000  Uiso   1.00
C125   C     0.22861   0.02551   0.95842   0.00000  Uiso   1.00
C126   C     0.06998   0.18000   0.25002   0.00000  Uiso   1.00
C127   C     0.31996   0.06993   0.74999   0.00000  Uiso   1.00
C128   C     0.18007   0.43004   0.24999   0.00000  Uiso   1.00
C129   C     0.07000   0.18002   0.75002   0.00000  Uiso   1.00
C130   C     0.43002   0.32000   0.25002   0.00000  Uiso   1.00
C131   C     0.15282   0.37430   0.22172   0.00000  Uiso   1.00
C132   C     0.34732   0.12555   0.77840   0.00000  Uiso   1.00
C133   C     0.13515   0.16213   0.24682   0.00000  Uiso   1.00
C134   C     0.36483   0.33784   0.75328   0.00000  Uiso   1.00
C135   C     0.34717   0.12571   0.22173   0.00000  Uiso   1.00
C136   C     0.02076   0.27618   0.04095   0.00000  Uiso   1.00
C137   C     0.15269   0.37444   0.77838   0.00000  Uiso   1.00
C138   C     0.36484   0.33786   0.24693   0.00000  Uiso   1.00
C139   C     0.13518   0.16216   0.75323   0.00000  Uiso   1.00
C140   C     0.16216   0.13518   0.75322   0.00000  Uiso   1.00
C141   C     0.33786   0.36484   0.24693   0.00000  Uiso   1.00
C142   C     0.12556   0.34731   0.77838   0.00000  Uiso   1.00
C143   C     0.37429   0.15284   0.22174   0.00000  Uiso   1.00
C144   C     0.33784   0.36483   0.75328   0.00000  Uiso   1.00
C145   C     0.16213   0.13515   0.24682   0.00000  Uiso   1.00
C146   C     0.37445   0.15268   0.77840   0.00000  Uiso   1.00
C147   C     0.02551   0.22861   0.95842   0.00000  Uiso   1.00
C148   C     0.12570   0.34718   0.22172   0.00000  Uiso   1.00
C149   C     0.40294   0.12418   0.72185   0.00000  Uiso   1.00
C150   C     0.09745   0.37542   0.27854   0.00000  Uiso   1.00
C151   C     0.38516   0.41214   0.74696   0.00000  Uiso   1.00
C152   C     0.11484   0.08785   0.25342   0.00000  Uiso   1.00
C153   C     0.09705   0.37583   0.72186   0.00000  Uiso   1.00
C154   C     0.40257   0.12456   0.27852   0.00000  Uiso   1.00
C155   C     0.11484   0.08786   0.74701   0.00000  Uiso   1.00
C156   C     0.38517   0.41216   0.25331   0.00000  Uiso   1.00
C157   C     0.41215   0.38517   0.25331   0.00000  Uiso   1.00
C158   C     0.47391   0.22914   0.54096   0.00000  Uiso   1.00
C159   C     0.08786   0.11484   0.74699   0.00000  Uiso   1.00
C160   C     0.37544   0.09743   0.27852   0.00000  Uiso   1.00
C161   C     0.12417   0.40295   0.72186   0.00000  Uiso   1.00
C162   C     0.08785   0.11484   0.25342   0.00000  Uiso   1.00
C163   C     0.41214   0.38516   0.74696   0.00000  Uiso   1.00
C164   C     0.12458   0.40255   0.27854   0.00000  Uiso   1.00
C165   C     0.37582   0.09706   0.72185   0.00000  Uiso   1.00
C166   C     0.09808   0.34800   0.25002   0.00000  Uiso   1.00
C167   C     0.40200   0.15192   0.75002   0.00000  Uiso   1.00
C168   C     0.15191   0.09807   0.25007   0.00000  Uiso   1.00
Cl169  Cl    0.19114   0.45310   0.01498   0.00000  Uiso   1.00
Cl170  Cl    0.04805   0.19244   0.48429   0.00000  Uiso   1.00
Cl171  Cl    0.20278   0.44139   0.51500   0.00000  Uiso   1.00
Cl172  Cl    0.19248   0.04810   0.48429   0.00000  Uiso   1.00
Cl173  Cl    0.05863   0.29720   0.51500   0.00000  Uiso   1.00
Cl174  Cl    0.45195   0.30757   0.48428   0.00000  Uiso   1.00
Cl175  Cl    0.29722   0.05861   0.51500   0.00000  Uiso   1.00
Cl176  Cl    0.30752   0.45190   0.48429   0.00000  Uiso   1.00
Cl177  Cl    0.29797   0.44237   0.98428   0.00000  Uiso   1.00
Cl178  Cl    0.45304   0.19119   0.01499   0.00000  Uiso   1.00
Cl179  Cl    0.44237   0.29797   0.98427   0.00000  Uiso   1.00
Cl180  Cl    0.30886   0.04691   0.01498   0.00000  Uiso   1.00
Cl181  Cl    0.20203   0.05763   0.98428   0.00000  Uiso   1.00
Cl182  Cl    0.04696   0.30882   0.01498   0.00000  Uiso   1.00
Cl183  Cl    0.05762   0.20202   0.98428   0.00000  Uiso   1.00
Cl184  Cl    0.44137   0.20281   0.51500   0.00000  Uiso   1.00
N185   N     0.20517   0.37276   0.17054   0.00000  Uiso   1.00
N186   N     0.26936   0.34621   0.23876   0.00000  Uiso   1.00
N187   N     0.12631   0.29564   0.83035   0.00000  Uiso   1.00
N188   N     0.37271   0.20522   0.17060   0.00000  Uiso   1.00
N189   N     0.26935   0.34624   0.76165   0.00000  Uiso   1.00
N190   N     0.23062   0.15377   0.23846   0.00000  Uiso   1.00
N191   N     0.37373   0.20432   0.83041   0.00000  Uiso   1.00
N192   N     0.12725   0.29484   0.17054   0.00000  Uiso   1.00
N193   N     0.45548   0.12245   0.67090   0.00000  Uiso   1.00
N194   N     0.04602   0.37593   0.33078   0.00000  Uiso   1.00
N195   N     0.40380   0.48064   0.73883   0.00000  Uiso   1.00
N196   N     0.29567   0.12628   0.83039   0.00000  Uiso   1.00
N197   N     0.09629   0.01938   0.26208   0.00000  Uiso   1.00
N198   N     0.04451   0.37757   0.67092   0.00000  Uiso   1.00
N199   N     0.45402   0.12402   0.33073   0.00000  Uiso   1.00
N200   N     0.09618   0.01935   0.73900   0.00000  Uiso   1.00
N201   N     0.40375   0.48065   0.26175   0.00000  Uiso   1.00
N202   N     0.48065   0.40375   0.26175   0.00000  Uiso   1.00
N203   N     0.01935   0.09619   0.73891   0.00000  Uiso   1.00
N204   N     0.37598   0.04597   0.33072   0.00000  Uiso   1.00
N205   N     0.12243   0.45550   0.67093   0.00000  Uiso   1.00
N206   N     0.01938   0.09628   0.26207   0.00000  Uiso   1.00
N207   N     0.15376   0.23062   0.23845   0.00000  Uiso   1.00
N208   N     0.48065   0.40381   0.73886   0.00000  Uiso   1.00
N209   N     0.12407   0.45397   0.33080   0.00000  Uiso   1.00
N210   N     0.37756   0.04452   0.67091   0.00000  Uiso   1.00
N211   N     0.17559   0.43891   0.11741   0.00000  Uiso   1.00
N212   N     0.30963   0.42560   0.88110   0.00000  Uiso   1.00
N213   N     0.43883   0.17566   0.11742   0.00000  Uiso   1.00
N214   N     0.42556   0.30958   0.88109   0.00000  Uiso   1.00
N215   N     0.32440   0.06110   0.11741   0.00000  Uiso   1.00
N216   N     0.19037   0.07441   0.88110   0.00000  Uiso   1.00
N217   N     0.06114   0.32437   0.11741   0.00000  Uiso   1.00
N218   N     0.34624   0.26935   0.76166   0.00000  Uiso   1.00
N219   N     0.07439   0.19034   0.88110   0.00000  Uiso   1.00
N220   N     0.42595   0.18851   0.61745   0.00000  Uiso   1.00
N221   N     0.05969   0.17564   0.38111   0.00000  Uiso   1.00
N222   N     0.18849   0.42596   0.61745   0.00000  Uiso   1.00
N223   N     0.17569   0.05975   0.38111   0.00000  Uiso   1.00
N224   N     0.07406   0.31149   0.61745   0.00000  Uiso   1.00
N225   N     0.44030   0.32435   0.38110   0.00000  Uiso   1.00
N226   N     0.31152   0.07403   0.61745   0.00000  Uiso   1.00
N227   N     0.32430   0.44023   0.38111   0.00000  Uiso   1.00
N228   N     0.29481   0.12727   0.17057   0.00000  Uiso   1.00
N229   N     0.20436   0.37368   0.83036   0.00000  Uiso   1.00
N230   N     0.34620   0.26936   0.23878   0.00000  Uiso   1.00
N231   N     0.15378   0.23066   0.76153   0.00000  Uiso   1.00
N232   N     0.23067   0.15378   0.76144   0.00000  Uiso   1.00
O233   O     0.25000  -0.00000   0.25000   0.00000  Uiso   1.00
O234   O     0.25000   0.46964   0.66317   0.00000  Uiso   1.00
O235   O     0.46964   0.25000   0.33683   0.00000  Uiso   1.00
O236   O     0.03036   0.25000   0.66317   0.00000  Uiso   1.00
O237   O     0.00000   0.21964   0.83683   0.00000  Uiso   1.00
O238   O     0.00000   0.28036   0.16317   0.00000  Uiso   1.00
O239   O     0.28036  -0.00000   0.83683   0.00000  Uiso   1.00
O240   O     0.21964  -0.00000   0.16317   0.00000  Uiso   1.00
O241   O     0.00000   0.28036   0.83683   0.00000  Uiso   1.00
O242   O     0.00000   0.21964   0.16317   0.00000  Uiso   1.00
O243   O     0.21964  -0.00000   0.83683   0.00000  Uiso   1.00
O244   O     0.25000  -0.00000   0.75000   0.00000  Uiso   1.00
O245   O     0.28036  -0.00000   0.16317   0.00000  Uiso   1.00
O246   O     0.20726   0.07307   0.27282   0.00000  Uiso   1.00
O247   O     0.29275   0.42693   0.72718   0.00000  Uiso   1.00
O248   O     0.42693   0.20725   0.27282   0.00000  Uiso   1.00
O249   O     0.07307   0.29275   0.72718   0.00000  Uiso   1.00
O250   O     0.29275   0.42693   0.27282   0.00000  Uiso   1.00
O251   O     0.20726   0.07307   0.72718   0.00000  Uiso   1.00
O252   O     0.07307   0.29275   0.27282   0.00000  Uiso   1.00
O253   O     0.42693   0.20725   0.72718   0.00000  Uiso   1.00
O254   O     0.20726   0.42693   0.72718   0.00000  Uiso   1.00
O255   O     0.00000   0.25000   0.25000   0.00000  Uiso   1.00
O256   O     0.29275   0.07307   0.27282   0.00000  Uiso   1.00
O257   O     0.42693   0.29274   0.72718   0.00000  Uiso   1.00
O258   O     0.07307   0.20726   0.27282   0.00000  Uiso   1.00
O259   O     0.29275   0.07307   0.72718   0.00000  Uiso   1.00
O260   O     0.20726   0.42693   0.27282   0.00000  Uiso   1.00
O261   O     0.07307   0.20726   0.72718   0.00000  Uiso   1.00
O262   O     0.42693   0.29274   0.27282   0.00000  Uiso   1.00
O263   O     0.45726   0.32307   0.77282   0.00000  Uiso   1.00
O264   O     0.04275   0.17693   0.22718   0.00000  Uiso   1.00
O265   O     0.17693   0.45726   0.77282   0.00000  Uiso   1.00
O266   O     0.00000   0.25000   0.75000   0.00000  Uiso   1.00
O267   O     0.32307   0.04274   0.22718   0.00000  Uiso   1.00
O268   O     0.04275   0.17693   0.77282   0.00000  Uiso   1.00
O269   O     0.45726   0.32307   0.22718   0.00000  Uiso   1.00
O270   O     0.32307   0.04274   0.77282   0.00000  Uiso   1.00
O271   O     0.17693   0.45726   0.22718   0.00000  Uiso   1.00
O272   O     0.45726   0.17693   0.22718   0.00000  Uiso   1.00
O273   O     0.04275   0.32307   0.77282   0.00000  Uiso   1.00
O274   O     0.17693   0.04274   0.22718   0.00000  Uiso   1.00
O275   O     0.32307   0.45726   0.77282   0.00000  Uiso   1.00
O276   O     0.04275   0.32307   0.22718   0.00000  Uiso   1.00
O277   O     0.25000   0.46964   0.33683   0.00000  Uiso   1.00
O278   O     0.45726   0.17693   0.77282   0.00000  Uiso   1.00
O279   O     0.32307   0.45726   0.22718   0.00000  Uiso   1.00
O280   O     0.17693   0.04274   0.77282   0.00000  Uiso   1.00
O281   O     0.25000   0.03036   0.66317   0.00000  Uiso   1.00
O282   O     0.03036   0.25000   0.33683   0.00000  Uiso   1.00
O283   O     0.46964   0.25000   0.66317   0.00000  Uiso   1.00
O284   O     0.25000   0.03036   0.33683   0.00000  Uiso   1.00
Zn285  Zn    0.20660  -0.00000   0.21760   0.00000  Uiso   1.00
Zn286  Zn    0.04340   0.25000   0.28240   0.00000  Uiso   1.00
Zn287  Zn    0.25000   0.45660   0.71760   0.00000  Uiso   1.00
Zn288  Zn    0.25000   0.04340   0.28240   0.00000  Uiso   1.00
Zn289  Zn    0.04340   0.25000   0.71760   0.00000  Uiso   1.00
Zn290  Zn    0.45660   0.25000   0.28240   0.00000  Uiso   1.00
Zn291  Zn    0.25000   0.04340   0.71760   0.00000  Uiso   1.00
Zn292  Zn    0.25000   0.45660   0.28240   0.00000  Uiso   1.00
Zn293  Zn    0.29340  -0.00000   0.78240   0.00000  Uiso   1.00
Zn294  Zn    0.00000   0.20660   0.21760   0.00000  Uiso   1.00
Zn295  Zn    0.00000   0.29340   0.78240   0.00000  Uiso   1.00
Zn296  Zn    0.29340  -0.00000   0.21760   0.00000  Uiso   1.00
Zn297  Zn    0.20660  -0.00000   0.78240   0.00000  Uiso   1.00
Zn298  Zn    0.00000   0.29340   0.21760   0.00000  Uiso   1.00
Zn299  Zn    0.00000   0.20660   0.78240   0.00000  Uiso   1.00
Zn300  Zn    0.45660   0.25000   0.71760   0.00000  Uiso   1.00
C301   C     0.72381   0.47926   0.04095   0.00000  Uiso   1.00
C302   C     0.52142   0.22452   0.45843   0.00000  Uiso   1.00
C303   C     0.84807   0.40191   0.75007   0.00000  Uiso   1.00
C304   C     0.90192   0.15200   0.25002   0.00000  Uiso   1.00
C305   C     0.59800   0.34808   0.75002   0.00000  Uiso   1.00
C306   C     0.84809   0.40193   0.25007   0.00000  Uiso   1.00
C307   C     0.65193   0.09809   0.75007   0.00000  Uiso   1.00
C308   C     0.59809   0.15193   0.75007   0.00000  Uiso   1.00
C309   C     0.90193   0.34809   0.25007   0.00000  Uiso   1.00
C310   C     0.65192   0.40200   0.75002   0.00000  Uiso   1.00
C311   C     0.84800   0.09808   0.25002   0.00000  Uiso   1.00
C312   C     0.90191   0.34807   0.75007   0.00000  Uiso   1.00
C313   C     0.72912   0.47392   0.54097   0.00000  Uiso   1.00
C314   C     0.59807   0.15191   0.25007   0.00000  Uiso   1.00
C315   C     0.84808   0.09800   0.75002   0.00000  Uiso   1.00
C316   C     0.65200   0.40192   0.25002   0.00000  Uiso   1.00
C317   C     0.75000   0.00000   0.10204   0.00000  Uiso   1.00
C318   C     0.75000   0.00000   0.89755   0.00000  Uiso   1.00
C319   C     0.50000   0.25000   0.10204   0.00000  Uiso   1.00
C320   C     0.50000   0.25000   0.89755   0.00000  Uiso   1.00
C321   C     0.50000   0.25000   0.60205   0.00000  Uiso   1.00
C322   C     0.50000   0.25000   0.39756   0.00000  Uiso   1.00
C323   C     0.75000   0.00000   0.60205   0.00000  Uiso   1.00
C324   C     0.72453   0.02145   0.45843   0.00000  Uiso   1.00
C325   C     0.75000  -0.00000   0.39756   0.00000  Uiso   1.00
C326   C     0.68192   0.37347   0.19321   0.00000  Uiso   1.00
C327   C     0.81859   0.12598   0.80734   0.00000  Uiso   1.00
C328   C     0.64551   0.20026   0.24216   0.00000  Uiso   1.00
C329   C     0.85448   0.29972   0.75794   0.00000  Uiso   1.00
C330   C     0.81806   0.12656   0.19323   0.00000  Uiso   1.00
C331   C     0.68143   0.37399   0.80731   0.00000  Uiso   1.00
C332   C     0.85447   0.29973   0.24239   0.00000  Uiso   1.00
C333   C     0.64553   0.20029   0.75785   0.00000  Uiso   1.00
C334   C     0.70030   0.14554   0.75780   0.00000  Uiso   1.00
C335   C     0.52609   0.27087   0.54096   0.00000  Uiso   1.00
C336   C     0.79973   0.35447   0.24238   0.00000  Uiso   1.00
C337   C     0.62600   0.31856   0.80731   0.00000  Uiso   1.00
C338   C     0.87343   0.18196   0.19325   0.00000  Uiso   1.00
C339   C     0.79972   0.35448   0.75794   0.00000  Uiso   1.00
C340   C     0.70026   0.14551   0.24216   0.00000  Uiso   1.00
C341   C     0.87402   0.18140   0.80735   0.00000  Uiso   1.00
C342   C     0.62654   0.31808   0.19321   0.00000  Uiso   1.00
C343   C     0.93215   0.12324   0.69347   0.00000  Uiso   1.00
C344   C     0.56884   0.37573   0.30762   0.00000  Uiso   1.00
C345   C     0.89553   0.45027   0.74243   0.00000  Uiso   1.00
C346   C     0.97858   0.27549   0.45843   0.00000  Uiso   1.00
C347   C     0.60451   0.04974   0.25824   0.00000  Uiso   1.00
C348   C     0.56784   0.37677   0.69348   0.00000  Uiso   1.00
C349   C     0.93119   0.12423   0.30758   0.00000  Uiso   1.00
C350   C     0.60445   0.04972   0.74254   0.00000  Uiso   1.00
C351   C     0.89552   0.45028   0.25801   0.00000  Uiso   1.00
C352   C     0.95028   0.39551   0.25801   0.00000  Uiso   1.00
C353   C     0.54972   0.10446   0.74249   0.00000  Uiso   1.00
C354   C     0.87577   0.06880   0.30758   0.00000  Uiso   1.00
C355   C     0.62323   0.43216   0.69349   0.00000  Uiso   1.00
C356   C     0.54974   0.10451   0.25823   0.00000  Uiso   1.00
C357   C     0.77088   0.02609   0.54096   0.00000  Uiso   1.00
C358   C     0.95027   0.39554   0.74245   0.00000  Uiso   1.00
C359   C     0.62427   0.43115   0.30763   0.00000  Uiso   1.00
C360   C     0.87677   0.06785   0.69348   0.00000  Uiso   1.00
C361   C     0.69700   0.45677   0.10148   0.00000  Uiso   1.00
C362   C     0.79269   0.44728   0.89747   0.00000  Uiso   1.00
C363   C     0.95672   0.19705   0.10149   0.00000  Uiso   1.00
C364   C     0.94726   0.29266   0.89747   0.00000  Uiso   1.00
C365   C     0.80299   0.04324   0.10149   0.00000  Uiso   1.00
C366   C     0.70731   0.05272   0.89747   0.00000  Uiso   1.00
C367   C     0.54327   0.30297   0.10148   0.00000  Uiso   1.00
C368   C     0.77546   0.47856   0.45843   0.00000  Uiso   1.00
C369   C     0.55271   0.20729   0.89747   0.00000  Uiso   1.00
C370   C     0.94724   0.20649   0.60151   0.00000  Uiso   1.00
C371   C     0.54274   0.19732   0.39748   0.00000  Uiso   1.00
C372   C     0.70647   0.44725   0.60151   0.00000  Uiso   1.00
C373   C     0.69735   0.04278   0.39748   0.00000  Uiso   1.00
C374   C     0.55276   0.29351   0.60151   0.00000  Uiso   1.00
C375   C     0.95726   0.30268   0.39747   0.00000  Uiso   1.00
C376   C     0.79353   0.05274   0.60151   0.00000  Uiso   1.00
C377   C     0.80264   0.45721   0.39748   0.00000  Uiso   1.00
C378   C     0.72369   0.47918   0.08146   0.00000  Uiso   1.00
C379   C     0.77145   0.47444   0.91792   0.00000  Uiso   1.00
C380   C     0.97915   0.22372   0.08146   0.00000  Uiso   1.00
C381   C     0.77139   0.47449   0.95842   0.00000  Uiso   1.00
C382   C     0.97443   0.27145   0.91792   0.00000  Uiso   1.00
C383   C     0.77631   0.02082   0.08146   0.00000  Uiso   1.00
C384   C     0.72855   0.02557   0.91792   0.00000  Uiso   1.00
C385   C     0.52084   0.27629   0.08146   0.00000  Uiso   1.00
C386   C     0.52557   0.22854   0.91793   0.00000  Uiso   1.00
C387   C     0.97380   0.22905   0.58147   0.00000  Uiso   1.00
C388   C     0.52148   0.22446   0.41793   0.00000  Uiso   1.00
C389   C     0.72903   0.47381   0.58148   0.00000  Uiso   1.00
C390   C     0.72447   0.02150   0.41793   0.00000  Uiso   1.00
C391   C     0.52620   0.27096   0.58147   0.00000  Uiso   1.00
C392   C     0.97924   0.22383   0.04096   0.00000  Uiso   1.00
C393   C     0.97852   0.27555   0.41793   0.00000  Uiso   1.00
C394   C     0.77096   0.02619   0.58147   0.00000  Uiso   1.00
C395   C     0.77552   0.47850   0.41793   0.00000  Uiso   1.00
C396   C     0.75000   0.00000   0.02091   0.00000  Uiso   1.00
C397   C     0.75000   0.00000   0.97849   0.00000  Uiso   1.00
C398   C     0.50000   0.25000   0.02091   0.00000  Uiso   1.00
C399   C     0.50000   0.25000   0.97849   0.00000  Uiso   1.00
C400   C     0.50000   0.25001   0.52091   0.00000  Uiso   1.00
C401   C     0.50000   0.25001   0.47850   0.00000  Uiso   1.00
C402   C     0.75000   0.00000   0.52092   0.00000  Uiso   1.00
C403   C     0.97449   0.27139   0.95842   0.00000  Uiso   1.00
C404   C     0.75000   0.00000   0.47850   0.00000  Uiso   1.00
C405   C     0.75000  -0.00000   0.35512   0.00000  Uiso   1.00
C406   C     0.75000  -0.00000   0.64473   0.00000  Uiso   1.00
C407   C     0.50000   0.25000   0.35512   0.00000  Uiso   1.00
C408   C     0.50000   0.25000   0.64473   0.00000  Uiso   1.00
C409   C     0.50000   0.25000   0.85512   0.00000  Uiso   1.00
C410   C     0.50000   0.25000   0.14473   0.00000  Uiso   1.00
C411   C     0.75000   0.00000   0.85512   0.00000  Uiso   1.00
C412   C     0.75000  -0.00000   0.14473   0.00000  Uiso   1.00
C413   C     0.68001   0.06998   0.25002   0.00000  Uiso   1.00
C414   C     0.77620   0.02074   0.04095   0.00000  Uiso   1.00
C415   C     0.81998   0.43000   0.75002   0.00000  Uiso   1.00
C416   C     0.93004   0.18007   0.24999   0.00000  Uiso   1.00
C417   C     0.56993   0.31996   0.74999   0.00000  Uiso   1.00
C418   C     0.82000   0.43002   0.25002   0.00000  Uiso   1.00
C419   C     0.68002   0.07000   0.75002   0.00000  Uiso   1.00
C420   C     0.56996   0.31993   0.24999   0.00000  Uiso   1.00
C421   C     0.93007   0.18004   0.74999   0.00000  Uiso   1.00
C422   C     0.68004   0.43007   0.74999   0.00000  Uiso   1.00
C423   C     0.81993   0.06996   0.24999   0.00000  Uiso   1.00
C424   C     0.93000   0.31998   0.75002   0.00000  Uiso   1.00
C425   C     0.72861   0.02551   0.95842   0.00000  Uiso   1.00
C426   C     0.56998   0.18000   0.25002   0.00000  Uiso   1.00
C427   C     0.81996   0.06993   0.74999   0.00000  Uiso   1.00
C428   C     0.68007   0.43004   0.24999   0.00000  Uiso   1.00
C429   C     0.57000   0.18002   0.75002   0.00000  Uiso   1.00
C430   C     0.93002   0.32000   0.25002   0.00000  Uiso   1.00
C431   C     0.65282   0.37430   0.22172   0.00000  Uiso   1.00
C432   C     0.84732   0.12555   0.77840   0.00000  Uiso   1.00
C433   C     0.63515   0.16213   0.24682   0.00000  Uiso   1.00
C434   C     0.86483   0.33784   0.75328   0.00000  Uiso   1.00
C435   C     0.84717   0.12571   0.22173   0.00000  Uiso   1.00
C436   C     0.52076   0.27618   0.04095   0.00000  Uiso   1.00
C437   C     0.65269   0.37444   0.77838   0.00000  Uiso   1.00
C438   C     0.86484   0.33786   0.24693   0.00000  Uiso   1.00
C439   C     0.63518   0.16216   0.75323   0.00000  Uiso   1.00
C440   C     0.66216   0.13518   0.75322   0.00000  Uiso   1.00
C441   C     0.83786   0.36484   0.24693   0.00000  Uiso   1.00
C442   C     0.62556   0.34731   0.77838   0.00000  Uiso   1.00
C443   C     0.87429   0.15284   0.22174   0.00000  Uiso   1.00
C444   C     0.83784   0.36483   0.75328   0.00000  Uiso   1.00
C445   C     0.66213   0.13515   0.24682   0.00000  Uiso   1.00
C446   C     0.87445   0.15268   0.77840   0.00000  Uiso   1.00
C447   C     0.52551   0.22861   0.95842   0.00000  Uiso   1.00
C448   C     0.62570   0.34718   0.22172   0.00000  Uiso   1.00
C449   C     0.90294   0.12418   0.72185   0.00000  Uiso   1.00
C450   C     0.59745   0.37542   0.27854   0.00000  Uiso   1.00
C451   C     0.88516   0.41214   0.74696   0.00000  Uiso   1.00
C452   C     0.61484   0.08785   0.25342   0.00000  Uiso   1.00
C453   C     0.59705   0.37583   0.72186   0.00000  Uiso   1.00
C454   C     0.90257   0.12456   0.27852   0.00000  Uiso   1.00
C455   C     0.61484   0.08786   0.74701   0.00000  Uiso   1.00
C456   C     0.88517   0.41216   0.25331   0.00000  Uiso   1.00
C457   C     0.91215   0.38517   0.25331   0.00000  Uiso   1.00
C458   C     0.97391   0.22914   0.54096   0.00000  Uiso   1.00
C459   C     0.58786   0.11484   0.74699   0.00000  Uiso   1.00
C460   C     0.87544   0.09743   0.27852   0.00000  Uiso   1.00
C461   C     0.62417   0.40295   0.72186   0.00000  Uiso   1.00
C462   C     0.58785   0.11484   0.25342   0.00000  Uiso   1.00
C463   C     0.91214   0.38516   0.74696   0.00000  Uiso   1.00
C464   C     0.62458   0.40255   0.27854   0.00000  Uiso   1.00
C465   C     0.87582   0.09706   0.72185   0.00000  Uiso   1.00
C466   C     0.59808   0.34800   0.25002   0.00000  Uiso   1.00
C467   C     0.90200   0.15192   0.75002   0.00000  Uiso   1.00
C468   C     0.65191   0.09807   0.25007   0.00000  Uiso   1.00
Cl469  Cl    0.69114   0.45310   0.01498   0.00000  Uiso   1.00
Cl470  Cl    0.54805   0.19244   0.48429   0.00000  Uiso   1.00
Cl471  Cl    0.70278   0.44139   0.51500   0.00000  Uiso   1.00
Cl472  Cl    0.69248   0.04810   0.48429   0.00000  Uiso   1.00
Cl473  Cl    0.55863   0.29720   0.51500   0.00000  Uiso   1.00
Cl474  Cl    0.95195   0.30757   0.48428   0.00000  Uiso   1.00
Cl475  Cl    0.79722   0.05861   0.51500   0.00000  Uiso   1.00
Cl476  Cl    0.80752   0.45190   0.48429   0.00000  Uiso   1.00
Cl477  Cl    0.79797   0.44237   0.98428   0.00000  Uiso   1.00
Cl478  Cl    0.95304   0.19119   0.01499   0.00000  Uiso   1.00
Cl479  Cl    0.94237   0.29797   0.98427   0.00000  Uiso   1.00
Cl480  Cl    0.80886   0.04691   0.01498   0.00000  Uiso   1.00
Cl481  Cl    0.70203   0.05763   0.98428   0.00000  Uiso   1.00
Cl482  Cl    0.54696   0.30882   0.01498   0.00000  Uiso   1.00
Cl483  Cl    0.55762   0.20202   0.98428   0.00000  Uiso   1.00
Cl484  Cl    0.94137   0.20281   0.51500   0.00000  Uiso   1.00
N485   N     0.70517   0.37276   0.17054   0.00000  Uiso   1.00
N486   N     0.76936   0.34621   0.23876   0.00000  Uiso   1.00
N487   N     0.62631   0.29564   0.83035   0.00000  Uiso   1.00
N488   N     0.87271   0.20522   0.17060   0.00000  Uiso   1.00
N489   N     0.76935   0.34624   0.76165   0.00000  Uiso   1.00
N490   N     0.73062   0.15377   0.23846   0.00000  Uiso   1.00
N491   N     0.87373   0.20432   0.83041   0.00000  Uiso   1.00
N492   N     0.62725   0.29484   0.17054   0.00000  Uiso   1.00
N493   N     0.95548   0.12245   0.67090   0.00000  Uiso   1.00
N494   N     0.54602   0.37593   0.33078   0.00000  Uiso   1.00
N495   N     0.90380   0.48064   0.73883   0.00000  Uiso   1.00
N496   N     0.79567   0.12628   0.83039   0.00000  Uiso   1.00
N497   N     0.59629   0.01938   0.26208   0.00000  Uiso   1.00
N498   N     0.54451   0.37757   0.67092   0.00000  Uiso   1.00
N499   N     0.95402   0.12402   0.33073   0.00000  Uiso   1.00
N500   N     0.59618   0.01935   0.73900   0.00000  Uiso   1.00
N501   N     0.90375   0.48065   0.26175   0.00000  Uiso   1.00
N502   N     0.98065   0.40375   0.26175   0.00000  Uiso   1.00
N503   N     0.51935   0.09619   0.73891   0.00000  Uiso   1.00
N504   N     0.87598   0.04597   0.33072   0.00000  Uiso   1.00
N505   N     0.62243   0.45550   0.67093   0.00000  Uiso   1.00
N506   N     0.51938   0.09628   0.26207   0.00000  Uiso   1.00
N507   N     0.65376   0.23062   0.23845   0.00000  Uiso   1.00
N508   N     0.98065   0.40381   0.73886   0.00000  Uiso   1.00
N509   N     0.62407   0.45397   0.33080   0.00000  Uiso   1.00
N510   N     0.87756   0.04452   0.67091   0.00000  Uiso   1.00
N511   N     0.67559   0.43891   0.11741   0.00000  Uiso   1.00
N512   N     0.80963   0.42560   0.88110   0.00000  Uiso   1.00
N513   N     0.93883   0.17566   0.11742   0.00000  Uiso   1.00
N514   N     0.92556   0.30958   0.88109   0.00000  Uiso   1.00
N515   N     0.82440   0.06110   0.11741   0.00000  Uiso   1.00
N516   N     0.69037   0.07441   0.88110   0.00000  Uiso   1.00
N517   N     0.56114   0.32437   0.11741   0.00000  Uiso   1.00
N518   N     0.84624   0.26935   0.76166   0.00000  Uiso   1.00
N519   N     0.57439   0.19034   0.88110   0.00000  Uiso   1.00
N520   N     0.92595   0.18851   0.61745   0.00000  Uiso   1.00
N521   N     0.55969   0.17564   0.38111   0.00000  Uiso   1.00
N522   N     0.68849   0.42596   0.61745   0.00000  Uiso   1.00
N523   N     0.67569   0.05975   0.38111   0.00000  Uiso   1.00
N524   N     0.57406   0.31149   0.61745   0.00000  Uiso   1.00
N525   N     0.94030   0.32435   0.38110   0.00000  Uiso   1.00
N526   N     0.81152   0.07403   0.61745   0.00000  Uiso   1.00
N527   N     0.82430   0.44023   0.38111   0.00000  Uiso   1.00
N528   N     0.79481   0.12727   0.17057   0.00000  Uiso   1.00
N529   N     0.70436   0.37368   0.83036   0.00000  Uiso   1.00
N530   N     0.84620   0.26936   0.23878   0.00000  Uiso   1.00
N531   N     0.65378   0.23066   0.76153   0.00000  Uiso   1.00
N532   N     0.73067   0.15378   0.76144   0.00000  Uiso   1.00
O533   O     0.75000  -0.00000   0.25000   0.00000  Uiso   1.00
O534   O     0.75000   0.46964   0.66317   0.00000  Uiso   1.00
O535   O     0.96964   0.25000   0.33683   0.00000  Uiso   1.00
O536   O     0.53036   0.25000   0.66317   0.00000  Uiso   1.00
O537   O     0.50000   0.21964   0.83683   0.00000  Uiso   1.00
O538   O     0.50000   0.28036   0.16317   0.00000  Uiso   1.00
O539   O     0.78036  -0.00000   0.83683   0.00000  Uiso   1.00
O540   O     0.71964  -0.00000   0.16317   0.00000  Uiso   1.00
O541   O     0.50000   0.28036   0.83683   0.00000  Uiso   1.00
O542   O     0.50000   0.21964   0.16317   0.00000  Uiso   1.00
O543   O     0.71964  -0.00000   0.83683   0.00000  Uiso   1.00
O544   O     0.75000  -0.00000   0.75000   0.00000  Uiso   1.00
O545   O     0.78036  -0.00000   0.16317   0.00000  Uiso   1.00
O546   O     0.70726   0.07307   0.27282   0.00000  Uiso   1.00
O547   O     0.79275   0.42693   0.72718   0.00000  Uiso   1.00
O548   O     0.92693   0.20725   0.27282   0.00000  Uiso   1.00
O549   O     0.57307   0.29275   0.72718   0.00000  Uiso   1.00
O550   O     0.79275   0.42693   0.27282   0.00000  Uiso   1.00
O551   O     0.70726   0.07307   0.72718   0.00000  Uiso   1.00
O552   O     0.57307   0.29275   0.27282   0.00000  Uiso   1.00
O553   O     0.92693   0.20725   0.72718   0.00000  Uiso   1.00
O554   O     0.70726   0.42693   0.72718   0.00000  Uiso   1.00
O555   O     0.50000   0.25000   0.25000   0.00000  Uiso   1.00
O556   O     0.79275   0.07307   0.27282   0.00000  Uiso   1.00
O557   O     0.92693   0.29274   0.72718   0.00000  Uiso   1.00
O558   O     0.57307   0.20726   0.27282   0.00000  Uiso   1.00
O559   O     0.79275   0.07307   0.72718   0.00000  Uiso   1.00
O560   O     0.70726   0.42693   0.27282   0.00000  Uiso   1.00
O561   O     0.57307   0.20726   0.72718   0.00000  Uiso   1.00
O562   O     0.92693   0.29274   0.27282   0.00000  Uiso   1.00
O563   O     0.95726   0.32307   0.77282   0.00000  Uiso   1.00
O564   O     0.54275   0.17693   0.22718   0.00000  Uiso   1.00
O565   O     0.67693   0.45726   0.77282   0.00000  Uiso   1.00
O566   O     0.50000   0.25000   0.75000   0.00000  Uiso   1.00
O567   O     0.82307   0.04274   0.22718   0.00000  Uiso   1.00
O568   O     0.54275   0.17693   0.77282   0.00000  Uiso   1.00
O569   O     0.95726   0.32307   0.22718   0.00000  Uiso   1.00
O570   O     0.82307   0.04274   0.77282   0.00000  Uiso   1.00
O571   O     0.67693   0.45726   0.22718   0.00000  Uiso   1.00
O572   O     0.95726   0.17693   0.22718   0.00000  Uiso   1.00
O573   O     0.54275   0.32307   0.77282   0.00000  Uiso   1.00
O574   O     0.67693   0.04274   0.22718   0.00000  Uiso   1.00
O575   O     0.82307   0.45726   0.77282   0.00000  Uiso   1.00
O576   O     0.54275   0.32307   0.22718   0.00000  Uiso   1.00
O577   O     0.75000   0.46964   0.33683   0.00000  Uiso   1.00
O578   O     0.95726   0.17693   0.77282   0.00000  Uiso   1.00
O579   O     0.82307   0.45726   0.22718   0.00000  Uiso   1.00
O580   O     0.67693   0.04274   0.77282   0.00000  Uiso   1.00
O581   O     0.75000   0.03036   0.66317   0.00000  Uiso   1.00
O582   O     0.53036   0.25000   0.33683   0.00000  Uiso   1.00
O583   O     0.96964   0.25000   0.66317   0.00000  Uiso   1.00
O584   O     0.75000   0.03036   0.33683   0.00000  Uiso   1.00
Zn585  Zn    0.70660  -0.00000   0.21760   0.00000  Uiso   1.00
Zn586  Zn    0.54340   0.25000   0.28240   0.00000  Uiso   1.00
Zn587  Zn    0.75000   0.45660   0.71760   0.00000  Uiso   1.00
Zn588  Zn    0.75000   0.04340   0.28240   0.00000  Uiso   1.00
Zn589  Zn    0.54340   0.25000   0.71760   0.00000  Uiso   1.00
Zn590  Zn    0.95660   0.25000   0.28240   0.00000  Uiso   1.00
Zn591  Zn    0.75000   0.04340   0.71760   0.00000  Uiso   1.00
Zn592  Zn    0.75000   0.45660   0.28240   0.00000  Uiso   1.00
Zn593  Zn    0.79340  -0.00000   0.78240   0.00000  Uiso   1.00
Zn594  Zn    0.50000   0.20660   0.21760   0.00000  Uiso   1.00
Zn595  Zn    0.50000   0.29340   0.78240   0.00000  Uiso   1.00
Zn596  Zn    0.79340  -0.00000   0.21760   0.00000  Uiso   1.00
Zn597  Zn    0.70660  -0.00000   0.78240   0.00000  Uiso   1.00
Zn598  Zn    0.50000   0.29340   0.21760   0.00000  Uiso   1.00
Zn599  Zn    0.50000   0.20660   0.78240   0.00000  Uiso   1.00
Zn600  Zn    0.95660   0.25000   0.71760   0.00000  Uiso   1.00
C601   C     0.22381   0.97926   0.04095   0.00000  Uiso   1.00
C602   C     0.02142   0.72452   0.45843   0.00000  Uiso   1.00
C603   C     0.34807   0.90191   0.75007   0.00000  Uiso   1.00
C604   C     0.40192   0.65200   0.25002   0.00000  Uiso   1.00
C605   C     0.09800   0.84808   0.75002   0.00000  Uiso   1.00
C606   C     0.34809   0.90193   0.25007   0.00000  Uiso   1.00
C607   C     0.15193   0.59809   0.75007   0.00000  Uiso   1.00
C608   C     0.09809   0.65193   0.75007   0.00000  Uiso   1.00
C609   C     0.40193   0.84809   0.25007   0.00000  Uiso   1.00
C610   C     0.15192   0.90200   0.75002   0.00000  Uiso   1.00
C611   C     0.34800   0.59808   0.25002   0.00000  Uiso   1.00
C612   C     0.40191   0.84807   0.75007   0.00000  Uiso   1.00
C613   C     0.22912   0.97392   0.54097   0.00000  Uiso   1.00
C614   C     0.09807   0.65191   0.25007   0.00000  Uiso   1.00
C615   C     0.34808   0.59800   0.75002   0.00000  Uiso   1.00
C616   C     0.15200   0.90192   0.25002   0.00000  Uiso   1.00
C617   C     0.25000   0.50000   0.10204   0.00000  Uiso   1.00
C618   C     0.25000   0.50000   0.89755   0.00000  Uiso   1.00
C619   C    -0.00000   0.75000   0.10204   0.00000  Uiso   1.00
C620   C     0.00000   0.75000   0.89755   0.00000  Uiso   1.00
C621   C     0.00000   0.75000   0.60205   0.00000  Uiso   1.00
C622   C    -0.00000   0.75000   0.39756   0.00000  Uiso   1.00
C623   C     0.25000   0.50000   0.60205   0.00000  Uiso   1.00
C624   C     0.22453   0.52145   0.45843   0.00000  Uiso   1.00
C625   C     0.25000   0.50000   0.39756   0.00000  Uiso   1.00
C626   C     0.18192   0.87347   0.19321   0.00000  Uiso   1.00
C627   C     0.31859   0.62598   0.80734   0.00000  Uiso   1.00
C628   C     0.14551   0.70026   0.24216   0.00000  Uiso   1.00
C629   C     0.35448   0.79972   0.75794   0.00000  Uiso   1.00
C630   C     0.31806   0.62656   0.19323   0.00000  Uiso   1.00
C631   C     0.18143   0.87399   0.80731   0.00000  Uiso   1.00
C632   C     0.35447   0.79973   0.24239   0.00000  Uiso   1.00
C633   C     0.14553   0.70029   0.75785   0.00000  Uiso   1.00
C634   C     0.20030   0.64554   0.75780   0.00000  Uiso   1.00
C635   C     0.02609   0.77087   0.54096   0.00000  Uiso   1.00
C636   C     0.29973   0.85447   0.24238   0.00000  Uiso   1.00
C637   C     0.12600   0.81856   0.80731   0.00000  Uiso   1.00
C638   C     0.37343   0.68196   0.19325   0.00000  Uiso   1.00
C639   C     0.29972   0.85448   0.75794   0.00000  Uiso   1.00
C640   C     0.20026   0.64551   0.24216   0.00000  Uiso   1.00
C641   C     0.37402   0.68140   0.80735   0.00000  Uiso   1.00
C642   C     0.12654   0.81808   0.19321   0.00000  Uiso   1.00
C643   C     0.43215   0.62324   0.69347   0.00000  Uiso   1.00
C644   C     0.06884   0.87573   0.30762   0.00000  Uiso   1.00
C645   C     0.39553   0.95027   0.74243   0.00000  Uiso   1.00
C646   C     0.47858   0.77549   0.45843   0.00000  Uiso   1.00
C647   C     0.10451   0.54974   0.25824   0.00000  Uiso   1.00
C648   C     0.06784   0.87677   0.69348   0.00000  Uiso   1.00
C649   C     0.43119   0.62423   0.30758   0.00000  Uiso   1.00
C650   C     0.10445   0.54972   0.74254   0.00000  Uiso   1.00
C651   C     0.39552   0.95028   0.25801   0.00000  Uiso   1.00
C652   C     0.45028   0.89551   0.25801   0.00000  Uiso   1.00
C653   C     0.04972   0.60446   0.74249   0.00000  Uiso   1.00
C654   C     0.37577   0.56880   0.30758   0.00000  Uiso   1.00
C655   C     0.12323   0.93216   0.69349   0.00000  Uiso   1.00
C656   C     0.04974   0.60451   0.25823   0.00000  Uiso   1.00
C657   C     0.27088   0.52609   0.54096   0.00000  Uiso   1.00
C658   C     0.45027   0.89554   0.74245   0.00000  Uiso   1.00
C659   C     0.12427   0.93115   0.30763   0.00000  Uiso   1.00
C660   C     0.37677   0.56785   0.69348   0.00000  Uiso   1.00
C661   C     0.19700   0.95677   0.10148   0.00000  Uiso   1.00
C662   C     0.29269   0.94728   0.89747   0.00000  Uiso   1.00
C663   C     0.45672   0.69705   0.10149   0.00000  Uiso   1.00
C664   C     0.44726   0.79266   0.89747   0.00000  Uiso   1.00
C665   C     0.30299   0.54324   0.10149   0.00000  Uiso   1.00
C666   C     0.20731   0.55272   0.89747   0.00000  Uiso   1.00
C667   C     0.04327   0.80297   0.10148   0.00000  Uiso   1.00
C668   C     0.27546   0.97856   0.45843   0.00000  Uiso   1.00
C669   C     0.05271   0.70729   0.89747   0.00000  Uiso   1.00
C670   C     0.44724   0.70649   0.60151   0.00000  Uiso   1.00
C671   C     0.04274   0.69732   0.39748   0.00000  Uiso   1.00
C672   C     0.20647   0.94725   0.60151   0.00000  Uiso   1.00
C673   C     0.19735   0.54278   0.39748   0.00000  Uiso   1.00
C674   C     0.05276   0.79351   0.60151   0.00000  Uiso   1.00
C675   C     0.45726   0.80268   0.39747   0.00000  Uiso   1.00
C676   C     0.29353   0.55274   0.60151   0.00000  Uiso   1.00
C677   C     0.30264   0.95721   0.39748   0.00000  Uiso   1.00
C678   C     0.22369   0.97918   0.08146   0.00000  Uiso   1.00
C679   C     0.27145   0.97444   0.91792   0.00000  Uiso   1.00
C680   C     0.47915   0.72372   0.08146   0.00000  Uiso   1.00
C681   C     0.27139   0.97449   0.95842   0.00000  Uiso   1.00
C682   C     0.47443   0.77145   0.91792   0.00000  Uiso   1.00
C683   C     0.27631   0.52082   0.08146   0.00000  Uiso   1.00
C684   C     0.22855   0.52557   0.91792   0.00000  Uiso   1.00
C685   C     0.02084   0.77629   0.08146   0.00000  Uiso   1.00
C686   C     0.02557   0.72854   0.91793   0.00000  Uiso   1.00
C687   C     0.47380   0.72905   0.58147   0.00000  Uiso   1.00
C688   C     0.02148   0.72446   0.41793   0.00000  Uiso   1.00
C689   C     0.22903   0.97381   0.58148   0.00000  Uiso   1.00
C690   C     0.22447   0.52150   0.41793   0.00000  Uiso   1.00
C691   C     0.02620   0.77096   0.58147   0.00000  Uiso   1.00
C692   C     0.47924   0.72383   0.04096   0.00000  Uiso   1.00
C693   C     0.47852   0.77555   0.41793   0.00000  Uiso   1.00
C694   C     0.27096   0.52619   0.58147   0.00000  Uiso   1.00
C695   C     0.27552   0.97850   0.41793   0.00000  Uiso   1.00
C696   C     0.25000   0.50000   0.02091   0.00000  Uiso   1.00
C697   C     0.25000   0.50000   0.97849   0.00000  Uiso   1.00
C698   C    -0.00000   0.75000   0.02091   0.00000  Uiso   1.00
C699   C    -0.00000   0.75000   0.97849   0.00000  Uiso   1.00
C700   C     0.00000   0.75001   0.52091   0.00000  Uiso   1.00
C701   C     0.00000   0.75001   0.47850   0.00000  Uiso   1.00
C702   C     0.25000   0.50000   0.52092   0.00000  Uiso   1.00
C703   C     0.47449   0.77139   0.95842   0.00000  Uiso   1.00
C704   C     0.25000   0.50000   0.47850   0.00000  Uiso   1.00
C705   C     0.25000   0.50000   0.35512   0.00000  Uiso   1.00
C706   C     0.25000   0.50000   0.64473   0.00000  Uiso   1.00
C707   C    -0.00000   0.75000   0.35512   0.00000  Uiso   1.00
C708   C     0.00000   0.75000   0.64473   0.00000  Uiso   1.00
C709   C     0.00000   0.75000   0.85512   0.00000  Uiso   1.00
C710   C     0.00000   0.75000   0.14473   0.00000  Uiso   1.00
C711   C     0.25000   0.50000   0.85512   0.00000  Uiso   1.00
C712   C     0.25000   0.50000   0.14473   0.00000  Uiso   1.00
C713   C     0.18001   0.56998   0.25002   0.00000  Uiso   1.00
C714   C     0.27620   0.52074   0.04095   0.00000  Uiso   1.00
C715   C     0.31998   0.93000   0.75002   0.00000  Uiso   1.00
C716   C     0.43004   0.68007   0.24999   0.00000  Uiso   1.00
C717   C     0.06993   0.81996   0.74999   0.00000  Uiso   1.00
C718   C     0.32000   0.93002   0.25002   0.00000  Uiso   1.00
C719   C     0.18002   0.57000   0.75002   0.00000  Uiso   1.00
C720   C     0.06996   0.81993   0.24999   0.00000  Uiso   1.00
C721   C     0.43007   0.68004   0.74999   0.00000  Uiso   1.00
C722   C     0.18004   0.93007   0.74999   0.00000  Uiso   1.00
C723   C     0.31993   0.56996   0.24999   0.00000  Uiso   1.00
C724   C     0.43000   0.81998   0.75002   0.00000  Uiso   1.00
C725   C     0.22861   0.52551   0.95842   0.00000  Uiso   1.00
C726   C     0.06998   0.68000   0.25002   0.00000  Uiso   1.00
C727   C     0.31996   0.56993   0.74999   0.00000  Uiso   1.00
C728   C     0.18007   0.93004   0.24999   0.00000  Uiso   1.00
C729   C     0.07000   0.68002   0.75002   0.00000  Uiso   1.00
C730   C     0.43002   0.82000   0.25002   0.00000  Uiso   1.00
C731   C     0.15282   0.87430   0.22172   0.00000  Uiso   1.00
C732   C     0.34732   0.62555   0.77840   0.00000  Uiso   1.00
C733   C     0.13515   0.66213   0.24682   0.00000  Uiso   1.00
C734   C     0.36483   0.83784   0.75328   0.00000  Uiso   1.00
C735   C     0.34717   0.62571   0.22173   0.00000  Uiso   1.00
C736   C     0.02076   0.77618   0.04095   0.00000  Uiso   1.00
C737   C     0.15269   0.87444   0.77838   0.00000  Uiso   1.00
C738   C     0.36484   0.83786   0.24693   0.00000  Uiso   1.00
C739   C     0.13518   0.66216   0.75323   0.00000  Uiso   1.00
C740   C     0.16216   0.63518   0.75322   0.00000  Uiso   1.00
C741   C     0.33786   0.86484   0.24693   0.00000  Uiso   1.00
C742   C     0.12556   0.84731   0.77838   0.00000  Uiso   1.00
C743   C     0.37429   0.65284   0.22174   0.00000  Uiso   1.00
C744   C     0.33784   0.86483   0.75328   0.00000  Uiso   1.00
C745   C     0.16213   0.63515   0.24682   0.00000  Uiso   1.00
C746   C     0.37445   0.65268   0.77840   0.00000  Uiso   1.00
C747   C     0.02551   0.72861   0.95842   0.00000  Uiso   1.00
C748   C     0.12570   0.84718   0.22172   0.00000  Uiso   1.00
C749   C     0.40294   0.62418   0.72185   0.00000  Uiso   1.00
C750   C     0.09745   0.87542   0.27854   0.00000  Uiso   1.00
C751   C     0.38516   0.91214   0.74696   0.00000  Uiso   1.00
C752   C     0.11484   0.58785   0.25342   0.00000  Uiso   1.00
C753   C     0.09705   0.87583   0.72186   0.00000  Uiso   1.00
C754   C     0.40257   0.62456   0.27852   0.00000  Uiso   1.00
C755   C     0.11484   0.58786   0.74701   0.00000  Uiso   1.00
C756   C     0.38517   0.91216   0.25331   0.00000  Uiso   1.00
C757   C     0.41215   0.88517   0.25331   0.00000  Uiso   1.00
C758   C     0.47391   0.72914   0.54096   0.00000  Uiso   1.00
C759   C     0.08786   0.61484   0.74699   0.00000  Uiso   1.00
C760   C     0.37544   0.59743   0.27852   0.00000  Uiso   1.00
C761   C     0.12417   0.90295   0.72186   0.00000  Uiso   1.00
C762   C     0.08785   0.61484   0.25342   0.00000  Uiso   1.00
C763   C     0.41214   0.88516   0.74696   0.00000  Uiso   1.00
C764   C     0.12458   0.90255   0.27854   0.00000  Uiso   1.00
C765   C     0.37582   0.59706   0.72185   0.00000  Uiso   1.00
C766   C     0.09808   0.84800   0.25002   0.00000  Uiso   1.00
C767   C     0.40200   0.65192   0.75002   0.00000  Uiso   1.00
C768   C     0.15191   0.59807   0.25007   0.00000  Uiso   1.00
Cl769  Cl    0.19114   0.95310   0.01498   0.00000  Uiso   1.00
Cl770  Cl    0.04805   0.69244   0.48429   0.00000  Uiso   1.00
Cl771  Cl    0.20278   0.94139   0.51500   0.00000  Uiso   1.00
Cl772  Cl    0.19248   0.54810   0.48429   0.00000  Uiso   1.00
Cl773  Cl    0.05863   0.79720   0.51500   0.00000  Uiso   1.00
Cl774  Cl    0.45195   0.80757   0.48428   0.00000  Uiso   1.00
Cl775  Cl    0.29722   0.55861   0.51500   0.00000  Uiso   1.00
Cl776  Cl    0.30752   0.95190   0.48429   0.00000  Uiso   1.00
Cl777  Cl    0.29797   0.94237   0.98428   0.00000  Uiso   1.00
Cl778  Cl    0.45304   0.69119   0.01499   0.00000  Uiso   1.00
Cl779  Cl    0.44237   0.79797   0.98427   0.00000  Uiso   1.00
Cl780  Cl    0.30886   0.54691   0.01498   0.00000  Uiso   1.00
Cl781  Cl    0.20203   0.55763   0.98428   0.00000  Uiso   1.00
Cl782  Cl    0.04696   0.80882   0.01498   0.00000  Uiso   1.00
Cl783  Cl    0.05762   0.70202   0.98428   0.00000  Uiso   1.00
Cl784  Cl    0.44137   0.70281   0.51500   0.00000  Uiso   1.00
N785   N     0.20517   0.87276   0.17054   0.00000  Uiso   1.00
N786   N     0.26936   0.84621   0.23876   0.00000  Uiso   1.00
N787   N     0.12631   0.79564   0.83035   0.00000  Uiso   1.00
N788   N     0.37271   0.70522   0.17060   0.00000  Uiso   1.00
N789   N     0.26935   0.84624   0.76165   0.00000  Uiso   1.00
N790   N     0.23062   0.65377   0.23846   0.00000  Uiso   1.00
N791   N     0.37373   0.70432   0.83041   0.00000  Uiso   1.00
N792   N     0.12725   0.79484   0.17054   0.00000  Uiso   1.00
N793   N     0.45548   0.62245   0.67090   0.00000  Uiso   1.00
N794   N     0.04602   0.87593   0.33078   0.00000  Uiso   1.00
N795   N     0.40380   0.98064   0.73883   0.00000  Uiso   1.00
N796   N     0.29567   0.62628   0.83039   0.00000  Uiso   1.00
N797   N     0.09629   0.51938   0.26208   0.00000  Uiso   1.00
N798   N     0.04451   0.87757   0.67092   0.00000  Uiso   1.00
N799   N     0.45402   0.62402   0.33073   0.00000  Uiso   1.00
N800   N     0.09618   0.51935   0.73900   0.00000  Uiso   1.00
N801   N     0.40375   0.98065   0.26175   0.00000  Uiso   1.00
N802   N     0.48065   0.90375   0.26175   0.00000  Uiso   1.00
N803   N     0.01935   0.59619   0.73891   0.00000  Uiso   1.00
N804   N     0.37598   0.54597   0.33072   0.00000  Uiso   1.00
N805   N     0.12243   0.95550   0.67093   0.00000  Uiso   1.00
N806   N     0.01938   0.59628   0.26207   0.00000  Uiso   1.00
N807   N     0.15376   0.73062   0.23845   0.00000  Uiso   1.00
N808   N     0.48065   0.90381   0.73886   0.00000  Uiso   1.00
N809   N     0.12407   0.95397   0.33080   0.00000  Uiso   1.00
N810   N     0.37756   0.54452   0.67091   0.00000  Uiso   1.00
N811   N     0.17559   0.93891   0.11741   0.00000  Uiso   1.00
N812   N     0.30963   0.92560   0.88110   0.00000  Uiso   1.00
N813   N     0.43883   0.67566   0.11742   0.00000  Uiso   1.00
N814   N     0.42556   0.80958   0.88109   0.00000  Uiso   1.00
N815   N     0.32440   0.56110   0.11741   0.00000  Uiso   1.00
N816   N     0.19037   0.57441   0.88110   0.00000  Uiso   1.00
N817   N     0.06114   0.82437   0.11741   0.00000  Uiso   1.00
N818   N     0.34624   0.76935   0.76166   0.00000  Uiso   1.00
N819   N     0.07439   0.69034   0.88110   0.00000  Uiso   1.00
N820   N     0.42595   0.68851   0.61745   0.00000  Uiso   1.00
N821   N     0.05969   0.67564   0.38111   0.00000  Uiso   1.00
N822   N     0.18849   0.92596   0.61745   0.00000  Uiso   1.00
N823   N     0.17569   0.55975   0.38111   0.00000  Uiso   1.00
N824   N     0.07406   0.81149   0.61745   0.00000  Uiso   1.00
N825   N     0.44030   0.82435   0.38110   0.00000  Uiso   1.00
N826   N     0.31152   0.57403   0.61745   0.00000  Uiso   1.00
N827   N     0.32430   0.94023   0.38111   0.00000  Uiso   1.00
N828   N     0.29481   0.62727   0.17057   0.00000  Uiso   1.00
N829   N     0.20436   0.87368   0.83036   0.00000  Uiso   1.00
N830   N     0.34620   0.76936   0.23878   0.00000  Uiso   1.00
N831   N     0.15378   0.73066   0.76153   0.00000  Uiso   1.00
N832   N     0.23067   0.65378   0.76144   0.00000  Uiso   1.00
O833   O     0.25000   0.50000   0.25000   0.00000  Uiso   1.00
O834   O     0.25000   0.96964   0.66317   0.00000  Uiso   1.00
O835   O     0.46964   0.75000   0.33683   0.00000  Uiso   1.00
O836   O     0.03036   0.75000   0.66317   0.00000  Uiso   1.00
O837   O     0.00000   0.71964   0.83683   0.00000  Uiso   1.00
O838   O     0.00000   0.78036   0.16317   0.00000  Uiso   1.00
O839   O     0.28036   0.50000   0.83683   0.00000  Uiso   1.00
O840   O     0.21964   0.50000   0.16317   0.00000  Uiso   1.00
O841   O     0.00000   0.78036   0.83683   0.00000  Uiso   1.00
O842   O     0.00000   0.71964   0.16317   0.00000  Uiso   1.00
O843   O     0.21964   0.50000   0.83683   0.00000  Uiso   1.00
O844   O     0.25000   0.50000   0.75000   0.00000  Uiso   1.00
O845   O     0.28036   0.50000   0.16317   0.00000  Uiso   1.00
O846   O     0.20726   0.57307   0.27282   0.00000  Uiso   1.00
O847   O     0.29275   0.92693   0.72718   0.00000  Uiso   1.00
O848   O     0.42693   0.70725   0.27282   0.00000  Uiso   1.00
O849   O     0.07307   0.79275   0.72718   0.00000  Uiso   1.00
O850   O     0.29275   0.92693   0.27282   0.00000  Uiso   1.00
O851   O     0.20726   0.57307   0.72718   0.00000  Uiso   1.00
O852   O     0.07307   0.79275   0.27282   0.00000  Uiso   1.00
O853   O     0.42693   0.70725   0.72718   0.00000  Uiso   1.00
O854   O     0.20726   0.92693   0.72718   0.00000  Uiso   1.00
O855   O     0.00000   0.75000   0.25000   0.00000  Uiso   1.00
O856   O     0.29275   0.57307   0.27282   0.00000  Uiso   1.00
O857   O     0.42693   0.79274   0.72718   0.00000  Uiso   1.00
O858   O     0.07307   0.70726   0.27282   0.00000  Uiso   1.00
O859   O     0.29275   0.57307   0.72718   0.00000  Uiso   1.00
O860   O     0.20726   0.92693   0.27282   0.00000  Uiso   1.00
O861   O     0.07307   0.70726   0.72718   0.00000  Uiso   1.00
O862   O     0.42693   0.79274   0.27282   0.00000  Uiso   1.00
O863   O     0.45726   0.82307   0.77282   0.00000  Uiso   1.00
O864   O     0.04275   0.67693   0.22718   0.00000  Uiso   1.00
O865   O     0.17693   0.95726   0.77282   0.00000  Uiso   1.00
O866   O     0.00000   0.75000   0.75000   0.00000  Uiso   1.00
O867   O     0.32307   0.54274   0.22718   0.00000  Uiso   1.00
O868   O     0.04275   0.67693   0.77282   0.00000  Uiso   1.00
O869   O     0.45726   0.82307   0.22718   0.00000  Uiso   1.00
O870   O     0.32307   0.54274   0.77282   0.00000  Uiso   1.00
O871   O     0.17693   0.95726   0.22718   0.00000  Uiso   1.00
O872   O     0.45726   0.67693   0.22718   0.00000  Uiso   1.00
O873   O     0.04275   0.82307   0.77282   0.00000  Uiso   1.00
O874   O     0.17693   0.54274   0.22718   0.00000  Uiso   1.00
O875   O     0.32307   0.95726   0.77282   0.00000  Uiso   1.00
O876   O     0.04275   0.82307   0.22718   0.00000  Uiso   1.00
O877   O     0.25000   0.96964   0.33683   0.00000  Uiso   1.00
O878   O     0.45726   0.67693   0.77282   0.00000  Uiso   1.00
O879   O     0.32307   0.95726   0.22718   0.00000  Uiso   1.00
O880   O     0.17693   0.54274   0.77282   0.00000  Uiso   1.00
O881   O     0.25000   0.53036   0.66317   0.00000  Uiso   1.00
O882   O     0.03036   0.75000   0.33683   0.00000  Uiso   1.00
O883   O     0.46964   0.75000   0.66317   0.00000  Uiso   1.00
O884   O     0.25000   0.53036   0.33683   0.00000  Uiso   1.00
Zn885  Zn    0.20660   0.50000   0.21760   0.00000  Uiso   1.00
Zn886  Zn    0.04340   0.75000   0.28240   0.00000  Uiso   1.00
Zn887  Zn    0.25000   0.95660   0.71760   0.00000  Uiso   1.00
Zn888  Zn    0.25000   0.54340   0.28240   0.00000  Uiso   1.00
Zn889  Zn    0.04340   0.75000   0.71760   0.00000  Uiso   1.00
Zn890  Zn    0.45660   0.75000   0.28240   0.00000  Uiso   1.00
Zn891  Zn    0.25000   0.54340   0.71760   0.00000  Uiso   1.00
Zn892  Zn    0.25000   0.95660   0.28240   0.00000  Uiso   1.00
Zn893  Zn    0.29340   0.50000   0.78240   0.00000  Uiso   1.00
Zn894  Zn    0.00000   0.70660   0.21760   0.00000  Uiso   1.00
Zn895  Zn    0.00000   0.79340   0.78240   0.00000  Uiso   1.00
Zn896  Zn    0.29340   0.50000   0.21760   0.00000  Uiso   1.00
Zn897  Zn    0.20660   0.50000   0.78240   0.00000  Uiso   1.00
Zn898  Zn    0.00000   0.79340   0.21760   0.00000  Uiso   1.00
Zn899  Zn    0.00000   0.70660   0.78240   0.00000  Uiso   1.00
Zn900  Zn    0.45660   0.75000   0.71760   0.00000  Uiso   1.00
C901   C     0.72381   0.97926   0.04095   0.00000  Uiso   1.00
C902   C     0.52142   0.72452   0.45843   0.00000  Uiso   1.00
C903   C     0.84807   0.90191   0.75007   0.00000  Uiso   1.00
C904   C     0.90192   0.65200   0.25002   0.00000  Uiso   1.00
C905   C     0.59800   0.84808   0.75002   0.00000  Uiso   1.00
C906   C     0.84809   0.90193   0.25007   0.00000  Uiso   1.00
C907   C     0.65193   0.59809   0.75007   0.00000  Uiso   1.00
C908   C     0.59809   0.65193   0.75007   0.00000  Uiso   1.00
C909   C     0.90193   0.84809   0.25007   0.00000  Uiso   1.00
C910   C     0.65192   0.90200   0.75002   0.00000  Uiso   1.00
C911   C     0.84800   0.59808   0.25002   0.00000  Uiso   1.00
C912   C     0.90191   0.84807   0.75007   0.00000  Uiso   1.00
C913   C     0.72912   0.97392   0.54097   0.00000  Uiso   1.00
C914   C     0.59807   0.65191   0.25007   0.00000  Uiso   1.00
C915   C     0.84808   0.59800   0.75002   0.00000  Uiso   1.00
C916   C     0.65200   0.90192   0.25002   0.00000  Uiso   1.00
C917   C     0.75000   0.50000   0.10204   0.00000  Uiso   1.00
C918   C     0.75000   0.50000   0.89755   0.00000  Uiso   1.00
C919   C     0.50000   0.75000   0.10204   0.00000  Uiso   1.00
C920   C     0.50000   0.75000   0.89755   0.00000  Uiso   1.00
C921   C     0.50000   0.75000   0.60205   0.00000  Uiso   1.00
C922   C     0.50000   0.75000   0.39756   0.00000  Uiso   1.00
C923   C     0.75000   0.50000   0.60205   0.00000  Uiso   1.00
C924   C     0.72453   0.52145   0.45843   0.00000  Uiso   1.00
C925   C     0.75000   0.50000   0.39756   0.00000  Uiso   1.00
C926   C     0.68192   0.87347   0.19321   0.00000  Uiso   1.00
C927   C     0.81859   0.62598   0.80734   0.00000  Uiso   1.00
C928   C     0.64551   0.70026   0.24216   0.00000  Uiso   1.00
C929   C     0.85448   0.79972   0.75794   0.00000  Uiso   1.00
C930   C     0.81806   0.62656   0.19323   0.00000  Uiso   1.00
C931   C     0.68143   0.87399   0.80731   0.00000  Uiso   1.00
C932   C     0.85447   0.79973   0.24239   0.00000  Uiso   1.00
C933   C     0.64553   0.70029   0.75785   0.00000  Uiso   1.00
C934   C     0.70030   0.64554   0.75780   0.00000  Uiso   1.00
C935   C     0.52609   0.77087   0.54096   0.00000  Uiso   1.00
C936   C     0.79973   0.85447   0.24238   0.00000  Uiso   1.00
C937   C     0.62600   0.81856   0.80731   0.00000  Uiso   1.00
C938   C     0.87343   0.68196   0.19325   0.00000  Uiso   1.00
C939   C     0.79972   0.85448   0.75794   0.00000  Uiso   1.00
C940   C     0.70026   0.64551   0.24216   0.00000  Uiso   1.00
C941   C     0.87402   0.68140   0.80735   0.00000  Uiso   1.00
C942   C     0.62654   0.81808   0.19321   0.00000  Uiso   1.00
C943   C     0.93215   0.62324   0.69347   0.00000  Uiso   1.00
C944   C     0.56884   0.87573   0.30762   0.00000  Uiso   1.00
C945   C     0.89553   0.95027   0.74243   0.00000  Uiso   1.00
C946   C     0.97858   0.77549   0.45843   0.00000  Uiso   1.00
C947   C     0.60451   0.54974   0.25824   0.00000  Uiso   1.00
C948   C     0.56784   0.87677   0.69348   0.00000  Uiso   1.00
C949   C     0.93119   0.62423   0.30758   0.00000  Uiso   1.00
C950   C     0.60445   0.54972   0.74254   0.00000  Uiso   1.00
C951   C     0.89552   0.95028   0.25801   0.00000  Uiso   1.00
C952   C     0.95028   0.89551   0.25801   0.00000  Uiso   1.00
C953   C     0.54972   0.60446   0.74249   0.00000  Uiso   1.00
C954   C     0.87577   0.56880   0.30758   0.00000  Uiso   1.00
C955   C     0.62323   0.93216   0.69349   0.00000  Uiso   1.00
C956   C     0.54974   0.60451   0.25823   0.00000  Uiso   1.00
C957   C     0.77088   0.52609   0.54096   0.00000  Uiso   1.00
C958   C     0.95027   0.89554   0.74245   0.00000  Uiso   1.00
C959   C     0.62427   0.93115   0.30763   0.00000  Uiso   1.00
C960   C     0.87677   0.56785   0.69348   0.00000  Uiso   1.00
C961   C     0.69700   0.95677   0.10148   0.00000  Uiso   1.00
C962   C     0.79269   0.94728   0.89747   0.00000  Uiso   1.00
C963   C     0.95672   0.69705   0.10149   0.00000  Uiso   1.00
C964   C     0.94726   0.79266   0.89747   0.00000  Uiso   1.00
C965   C     0.80299   0.54324   0.10149   0.00000  Uiso   1.00
C966   C     0.70731   0.55272   0.89747   0.00000  Uiso   1.00
C967   C     0.54327   0.80297   0.10148   0.00000  Uiso   1.00
C968   C     0.77546   0.97856   0.45843   0.00000  Uiso   1.00
C969   C     0.55271   0.70729   0.89747   0.00000  Uiso   1.00
C970   C     0.94724   0.70649   0.60151   0.00000  Uiso   1.00
C971   C     0.54274   0.69732   0.39748   0.00000  Uiso   1.00
C972   C     0.70647   0.94725   0.60151   0.00000  Uiso   1.00
C973   C     0.69735   0.54278   0.39748   0.00000  Uiso   1.00
C974   C     0.55276   0.79351   0.60151   0.00000  Uiso   1.00
C975   C     0.95726   0.80268   0.39747   0.00000  Uiso   1.00
C976   C     0.79353   0.55274   0.60151   0.00000  Uiso   1.00
C977   C     0.80264   0.95721   0.39748   0.00000  Uiso   1.00
C978   C     0.72369   0.97918   0.08146   0.00000  Uiso   1.00
C979   C     0.77145   0.97444   0.91792   0.00000  Uiso   1.00
C980   C     0.97915   0.72372   0.08146   0.00000  Uiso   1.00
C981   C     0.77139   0.97449   0.95842   0.00000  Uiso   1.00
C982   C     0.97443   0.77145   0.91792   0.00000  Uiso   1.00
C983   C     0.77631   0.52082   0.08146   0.00000  Uiso   1.00
C984   C     0.72855   0.52557   0.91792   0.00000  Uiso   1.00
C985   C     0.52084   0.77629   0.08146   0.00000  Uiso   1.00
C986   C     0.52557   0.72854   0.91793   0.00000  Uiso   1.00
C987   C     0.97380   0.72905   0.58147   0.00000  Uiso   1.00
C988   C     0.52148   0.72446   0.41793   0.00000  Uiso   1.00
C989   C     0.72903   0.97381   0.58148   0.00000  Uiso   1.00
C990   C     0.72447   0.52150   0.41793   0.00000  Uiso   1.00
C991   C     0.52620   0.77096   0.58147   0.00000  Uiso   1.00
C992   C     0.97924   0.72383   0.04096   0.00000  Uiso   1.00
C993   C     0.97852   0.77555   0.41793   0.00000  Uiso   1.00
C994   C     0.77096   0.52619   0.58147   0.00000  Uiso   1.00
C995   C     0.77552   0.97850   0.41793   0.00000  Uiso   1.00
C996   C     0.75000   0.50000   0.02091   0.00000  Uiso   1.00
C997   C     0.75000   0.50000   0.97849   0.00000  Uiso   1.00
C998   C     0.50000   0.75000   0.02091   0.00000  Uiso   1.00
C999   C     0.50000   0.75000   0.97849   0.00000  Uiso   1.00
C1000  C     0.50000   0.75001   0.52091   0.00000  Uiso   1.00
C1001  C     0.50000   0.75001   0.47850   0.00000  Uiso   1.00
C1002  C     0.75000   0.50000   0.52092   0.00000  Uiso   1.00
C1003  C     0.97449   0.77139   0.95842   0.00000  Uiso   1.00
C1004  C     0.75000   0.50000   0.47850   0.00000  Uiso   1.00
C1005  C     0.75000   0.50000   0.35512   0.00000  Uiso   1.00
C1006  C     0.75000   0.50000   0.64473   0.00000  Uiso   1.00
C1007  C     0.50000   0.75000   0.35512   0.00000  Uiso   1.00
C1008  C     0.50000   0.75000   0.64473   0.00000  Uiso   1.00
C1009  C     0.50000   0.75000   0.85512   0.00000  Uiso   1.00
C1010  C     0.50000   0.75000   0.14473   0.00000  Uiso   1.00
C1011  C     0.75000   0.50000   0.85512   0.00000  Uiso   1.00
C1012  C     0.75000   0.50000   0.14473   0.00000  Uiso   1.00
C1013  C     0.68001   0.56998   0.25002   0.00000  Uiso   1.00
C1014  C     0.77620   0.52074   0.04095   0.00000  Uiso   1.00
C1015  C     0.81998   0.93000   0.75002   0.00000  Uiso   1.00
C1016  C     0.93004   0.68007   0.24999   0.00000  Uiso   1.00
C1017  C     0.56993   0.81996   0.74999   0.00000  Uiso   1.00
C1018  C     0.82000   0.93002   0.25002   0.00000  Uiso   1.00
C1019  C     0.68002   0.57000   0.75002   0.00000  Uiso   1.00
C1020  C     0.56996   0.81993   0.24999   0.00000  Uiso   1.00
C1021  C     0.93007   0.68004   0.74999   0.00000  Uiso   1.00
C1022  C     0.68004   0.93007   0.74999   0.00000  Uiso   1.00
C1023  C     0.81993   0.56996   0.24999   0.00000  Uiso   1.00
C1024  C     0.93000   0.81998   0.75002   0.00000  Uiso   1.00
C1025  C     0.72861   0.52551   0.95842   0.00000  Uiso   1.00
C1026  C     0.56998   0.68000   0.25002   0.00000  Uiso   1.00
C1027  C     0.81996   0.56993   0.74999   0.00000  Uiso   1.00
C1028  C     0.68007   0.93004   0.24999   0.00000  Uiso   1.00
C1029  C     0.57000   0.68002   0.75002   0.00000  Uiso   1.00
C1030  C     0.93002   0.82000   0.25002   0.00000  Uiso   1.00
C1031  C     0.65282   0.87430   0.22172   0.00000  Uiso   1.00
C1032  C     0.84732   0.62555   0.77840   0.00000  Uiso   1.00
C1033  C     0.63515   0.66213   0.24682   0.00000  Uiso   1.00
C1034  C     0.86483   0.83784   0.75328   0.00000  Uiso   1.00
C1035  C     0.84717   0.62571   0.22173   0.00000  Uiso   1.00
C1036  C     0.52076   0.77618   0.04095   0.00000  Uiso   1.00
C1037  C     0.65269   0.87444   0.77838   0.00000  Uiso   1.00
C1038  C     0.86484   0.83786   0.24693   0.00000  Uiso   1.00
C1039  C     0.63518   0.66216   0.75323   0.00000  Uiso   1.00
C1040  C     0.66216   0.63518   0.75322   0.00000  Uiso   1.00
C1041  C     0.83786   0.86484   0.24693   0.00000  Uiso   1.00
C1042  C     0.62556   0.84731   0.77838   0.00000  Uiso   1.00
C1043  C     0.87429   0.65284   0.22174   0.00000  Uiso   1.00
C1044  C     0.83784   0.86483   0.75328   0.00000  Uiso   1.00
C1045  C     0.66213   0.63515   0.24682   0.00000  Uiso   1.00
C1046  C     0.87445   0.65268   0.77840   0.00000  Uiso   1.00
C1047  C     0.52551   0.72861   0.95842   0.00000  Uiso   1.00
C1048  C     0.62570   0.84718   0.22172   0.00000  Uiso   1.00
C1049  C     0.90294   0.62418   0.72185   0.00000  Uiso   1.00
C1050  C     0.59745   0.87542   0.27854   0.00000  Uiso   1.00
C1051  C     0.88516   0.91214   0.74696   0.00000  Uiso   1.00
C1052  C     0.61484   0.58785   0.25342   0.00000  Uiso   1.00
C1053  C     0.59705   0.87583   0.72186   0.00000  Uiso   1.00
C1054  C     0.90257   0.62456   0.27852   0.00000  Uiso   1.00
C1055  C     0.61484   0.58786   0.74701   0.00000  Uiso   1.00
C1056  C     0.88517   0.91216   0.25331   0.00000  Uiso   1.00
C1057  C     0.91215   0.88517   0.25331   0.00000  Uiso   1.00
C1058  C     0.97391   0.72914   0.54096   0.00000  Uiso   1.00
C1059  C     0.58786   0.61484   0.74699   0.00000  Uiso   1.00
C1060  C     0.87544   0.59743   0.27852   0.00000  Uiso   1.00
C1061  C     0.62417   0.90295   0.72186   0.00000  Uiso   1.00
C1062  C     0.58785   0.61484   0.25342   0.00000  Uiso   1.00
C1063  C     0.91214   0.88516   0.74696   0.00000  Uiso   1.00
C1064  C     0.62458   0.90255   0.27854   0.00000  Uiso   1.00
C1065  C     0.87582   0.59706   0.72185   0.00000  Uiso   1.00
C1066  C     0.59808   0.84800   0.25002   0.00000  Uiso   1.00
C1067  C     0.90200   0.65192   0.75002   0.00000  Uiso   1.00
C1068  C     0.65191   0.59807   0.25007   0.00000  Uiso   1.00
Cl1069 Cl    0.69114   0.95310   0.01498   0.00000  Uiso   1.00
Cl1070 Cl    0.54805   0.69244   0.48429   0.00000  Uiso   1.00
Cl1071 Cl    0.70278   0.94139   0.51500   0.00000  Uiso   1.00
Cl1072 Cl    0.69248   0.54810   0.48429   0.00000  Uiso   1.00
Cl1073 Cl    0.55863   0.79720   0.51500   0.00000  Uiso   1.00
Cl1074 Cl    0.95195   0.80757   0.48428   0.00000  Uiso   1.00
Cl1075 Cl    0.79722   0.55861   0.51500   0.00000  Uiso   1.00
Cl1076 Cl    0.80752   0.95190   0.48429   0.00000  Uiso   1.00
Cl1077 Cl    0.79797   0.94237   0.98428   0.00000  Uiso   1.00
Cl1078 Cl    0.95304   0.69119   0.01499   0.00000  Uiso   1.00
Cl1079 Cl    0.94237   0.79797   0.98427   0.00000  Uiso   1.00
Cl1080 Cl    0.80886   0.54691   0.01498   0.00000  Uiso   1.00
Cl1081 Cl    0.70203   0.55763   0.98428   0.00000  Uiso   1.00
Cl1082 Cl    0.54696   0.80882   0.01498   0.00000  Uiso   1.00
Cl1083 Cl    0.55762   0.70202   0.98428   0.00000  Uiso   1.00
Cl1084 Cl    0.94137   0.70281   0.51500   0.00000  Uiso   1.00
N1085  N     0.70517   0.87276   0.17054   0.00000  Uiso   1.00
N1086  N     0.76936   0.84621   0.23876   0.00000  Uiso   1.00
N1087  N     0.62631   0.79564   0.83035   0.00000  Uiso   1.00
N1088  N     0.87271   0.70522   0.17060   0.00000  Uiso   1.00
N1089  N     0.76935   0.84624   0.76165   0.00000  Uiso   1.00
N1090  N     0.73062   0.65377   0.23846   0.00000  Uiso   1.00
N1091  N     0.87373   0.70432   0.83041   0.00000  Uiso   1.00
N1092  N     0.62725   0.79484   0.17054   0.00000  Uiso   1.00
N1093  N     0.95548   0.62245   0.67090   0.00000  Uiso   1.00
N1094  N     0.54602   0.87593   0.33078   0.00000  Uiso   1.00
N1095  N     0.90380   0.98064   0.73883   0.00000  Uiso   1.00
N1096  N     0.79567   0.62628   0.83039   0.00000  Uiso   1.00
N1097  N     0.59629   0.51938   0.26208   0.00000  Uiso   1.00
N1098  N     0.54451   0.87757   0.67092   0.00000  Uiso   1.00
N1099  N     0.95402   0.62402   0.33073   0.00000  Uiso   1.00
N1100  N     0.59618   0.51935   0.73900   0.00000  Uiso   1.00
N1101  N     0.90375   0.98065   0.26175   0.00000  Uiso   1.00
N1102  N     0.98065   0.90375   0.26175   0.00000  Uiso   1.00
N1103  N     0.51935   0.59619   0.73891   0.00000  Uiso   1.00
N1104  N     0.87598   0.54597   0.33072   0.00000  Uiso   1.00
N1105  N     0.62243   0.95550   0.67093   0.00000  Uiso   1.00
N1106  N     0.51938   0.59628   0.26207   0.00000  Uiso   1.00
N1107  N     0.65376   0.73062   0.23845   0.00000  Uiso   1.00
N1108  N     0.98065   0.90381   0.73886   0.00000  Uiso   1.00
N1109  N     0.62407   0.95397   0.33080   0.00000  Uiso   1.00
N1110  N     0.87756   0.54452   0.67091   0.00000  Uiso   1.00
N1111  N     0.67559   0.93891   0.11741   0.00000  Uiso   1.00
N1112  N     0.80963   0.92560   0.88110   0.00000  Uiso   1.00
N1113  N     0.93883   0.67566   0.11742   0.00000  Uiso   1.00
N1114  N     0.92556   0.80958   0.88109   0.00000  Uiso   1.00
N1115  N     0.82440   0.56110   0.11741   0.00000  Uiso   1.00
N1116  N     0.69037   0.57441   0.88110   0.00000  Uiso   1.00
N1117  N     0.56114   0.82437   0.11741   0.00000  Uiso   1.00
N1118  N     0.84624   0.76935   0.76166   0.00000  Uiso   1.00
N1119  N     0.57439   0.69034   0.88110   0.00000  Uiso   1.00
N1120  N     0.92595   0.68851   0.61745   0.00000  Uiso   1.00
N1121  N     0.55969   0.67564   0.38111   0.00000  Uiso   1.00
N1122  N     0.68849   0.92596   0.61745   0.00000  Uiso   1.00
N1123  N     0.67569   0.55975   0.38111   0.00000  Uiso   1.00
N1124  N     0.57406   0.81149   0.61745   0.00000  Uiso   1.00
N1125  N     0.94030   0.82435   0.38110   0.00000  Uiso   1.00
N1126  N     0.81152   0.57403   0.61745   0.00000  Uiso   1.00
N1127  N     0.82430   0.94023   0.38111   0.00000  Uiso   1.00
N1128  N     0.79481   0.62727   0.17057   0.00000  Uiso   1.00
N1129  N     0.70436   0.87368   0.83036   0.00000  Uiso   1.00
N1130  N     0.84620   0.76936   0.23878   0.00000  Uiso   1.00
N1131  N     0.65378   0.73066   0.76153   0.00000  Uiso   1.00
N1132  N     0.73067   0.65378   0.76144   0.00000  Uiso   1.00
O1133  O     0.75000   0.50000   0.25000   0.00000  Uiso   1.00
O1134  O     0.75000   0.96964   0.66317   0.00000  Uiso   1.00
O1135  O     0.96964   0.75000   0.33683   0.00000  Uiso   1.00
O1136  O     0.53036   0.75000   0.66317   0.00000  Uiso   1.00
O1137  O     0.50000   0.71964   0.83683   0.00000  Uiso   1.00
O1138  O     0.50000   0.78036   0.16317   0.00000  Uiso   1.00
O1139  O     0.78036   0.50000   0.83683   0.00000  Uiso   1.00
O1140  O     0.71964   0.50000   0.16317   0.00000  Uiso   1.00
O1141  O     0.50000   0.78036   0.83683   0.00000  Uiso   1.00
O1142  O     0.50000   0.71964   0.16317   0.00000  Uiso   1.00
O1143  O     0.71964   0.50000   0.83683   0.00000  Uiso   1.00
O1144  O     0.75000   0.50000   0.75000   0.00000  Uiso   1.00
O1145  O     0.78036   0.50000   0.16317   0.00000  Uiso   1.00
O1146  O     0.70726   0.57307   0.27282   0.00000  Uiso   1.00
O1147  O     0.79275   0.92693   0.72718   0.00000  Uiso   1.00
O1148  O     0.92693   0.70725   0.27282   0.00000  Uiso   1.00
O1149  O     0.57307   0.79275   0.72718   0.00000  Uiso   1.00
O1150  O     0.79275   0.92693   0.27282   0.00000  Uiso   1.00
O1151  O     0.70726   0.57307   0.72718   0.00000  Uiso   1.00
O1152  O     0.57307   0.79275   0.27282   0.00000  Uiso   1.00
O1153  O     0.92693   0.70725   0.72718   0.00000  Uiso   1.00
O1154  O     0.70726   0.92693   0.72718   0.00000  Uiso   1.00
O1155  O     0.50000   0.75000   0.25000   0.00000  Uiso   1.00
O1156  O     0.79275   0.57307   0.27282   0.00000  Uiso   1.00
O1157  O     0.92693   0.79274   0.72718   0.00000  Uiso   1.00
O1158  O     0.57307   0.70726   0.27282   0.00000  Uiso   1.00
O1159  O     0.79275   0.57307   0.72718   0.00000  Uiso   1.00
O1160  O     0.70726   0.92693   0.27282   0.00000  Uiso   1.00
O1161  O     0.57307   0.70726   0.72718   0.00000  Uiso   1.00
O1162  O     0.92693   0.79274   0.27282   0.00000  Uiso   1.00
O1163  O     0.95726   0.82307   0.77282   0.00000  Uiso   1.00
O1164  O     0.54275   0.67693   0.22718   0.00000  Uiso   1.00
O1165  O     0.67693   0.95726   0.77282   0.00000  Uiso   1.00
O1166  O     0.50000   0.75000   0.75000   0.00000  Uiso   1.00
O1167  O     0.82307   0.54274   0.22718   0.00000  Uiso   1.00
O1168  O     0.54275   0.67693   0.77282   0.00000  Uiso   1.00
O1169  O     0.95726   0.82307   0.22718   0.00000  Uiso   1.00
O1170  O     0.82307   0.54274   0.77282   0.00000  Uiso   1.00
O1171  O     0.67693   0.95726   0.22718   0.00000  Uiso   1.00
O1172  O     0.95726   0.67693   0.22718   0.00000  Uiso   1.00
O1173  O     0.54275   0.82307   0.77282   0.00000  Uiso   1.00
O1174  O     0.67693   0.54274   0.22718   0.00000  Uiso   1.00
O1175  O     0.82307   0.95726   0.77282   0.00000  Uiso   1.00
O1176  O     0.54275   0.82307   0.22718   0.00000  Uiso   1.00
O1177  O     0.75000   0.96964   0.33683   0.00000  Uiso   1.00
O1178  O     0.95726   0.67693   0.77282   0.00000  Uiso   1.00
O1179  O     0.82307   0.95726   0.22718   0.00000  Uiso   1.00
O1180  O     0.67693   0.54274   0.77282   0.00000  Uiso   1.00
O1181  O     0.75000   0.53036   0.66317   0.00000  Uiso   1.00
O1182  O     0.53036   0.75000   0.33683   0.00000  Uiso   1.00
O1183  O     0.96964   0.75000   0.66317   0.00000  Uiso   1.00
O1184  O     0.75000   0.53036   0.33683   0.00000  Uiso   1.00
Zn1185 Zn    0.70660   0.50000   0.21760   0.00000  Uiso   1.00
Zn1186 Zn    0.54340   0.75000   0.28240   0.00000  Uiso   1.00
Zn1187 Zn    0.75000   0.95660   0.71760   0.00000  Uiso   1.00
Zn1188 Zn    0.75000   0.54340   0.28240   0.00000  Uiso   1.00
Zn1189 Zn    0.54340   0.75000   0.71760   0.00000  Uiso   1.00
Zn1190 Zn    0.95660   0.75000   0.28240   0.00000  Uiso   1.00
Zn1191 Zn    0.75000   0.54340   0.71760   0.00000  Uiso   1.00
Zn1192 Zn    0.75000   0.95660   0.28240   0.00000  Uiso   1.00
Zn1193 Zn    0.79340   0.50000   0.78240   0.00000  Uiso   1.00
Zn1194 Zn    0.50000   0.70660   0.21760   0.00000  Uiso   1.00
Zn1195 Zn    0.50000   0.79340   0.78240   0.00000  Uiso   1.00
Zn1196 Zn    0.79340   0.50000   0.21760   0.00000  Uiso   1.00
Zn1197 Zn    0.70660   0.50000   0.78240   0.00000  Uiso   1.00
Zn1198 Zn    0.50000   0.79340   0.21760   0.00000  Uiso   1.00
Zn1199 Zn    0.50000   0.70660   0.78240   0.00000  Uiso   1.00
Zn1200 Zn    0.95660   0.75000   0.71760   0.00000  Uiso   1.00
loop_
_geom_bond_atom_site_label_1
_geom_bond_atom_site_label_2
_geom_bond_distance
_geom_bond_site_symmetry_2
_ccdc_geom_bond_type
C1     C78     1.401   .     A
C1     Cl169   1.773   .     S
C1     C696    1.403   .     S
C2     Cl170   1.772   .     S
C2     C88     1.401   .     A
C2     C101    1.405   .     A
C3     C151    1.410   .     A
C3     C144    1.410   .     A
C3     C115    1.458   .     S
C4     C154    1.408   .     A
C4     C116    1.451   .     S
C4     C143    1.407   .     A
C5     C142    1.408   .     A
C5     C117    1.451   .     S
C5     C153    1.407   .     A
C6     C141    1.410   .     A
C6     C156    1.410   .     A
C6     C118    1.458   .     S
C7     C119    1.458   .     S
C7     C140    1.410   .     A
C7     C155    1.411   .     A
C8     C129    1.458   .     S
C8     C159    1.411   .     A
C8     C139    1.410   .     A
C9     C138    1.410   .     A
C9     C157    1.410   .     A
C9     C130    1.458   .     S
C10    C122    1.451   .     S
C10    C161    1.407   .     A
C10    C137    1.408   .     A
C11    C160    1.408   .     A
C11    C135    1.408   .     A
C11    C123    1.451   .     S
C12    C163    1.411   .     A
C12    C134    1.410   .     A
C12    C124    1.458   .     S
C13    Cl171   1.773   .     S
C13    C89     1.401   .     A
C13    C702    1.403   .     S
C14    C126    1.458   .     S
C14    C133    1.410   .     A
C14    C162    1.410   .     A
C15    C132    1.408   .     A
C15    C127    1.451   .     S
C15    C165    1.407   .     A
C16    C164    1.408   .     A
C16    C131    1.407   .     A
C16    C128    1.451   .     S
C17    C83     1.417   .     A
C17    C678    1.417   1_545 S
C17    C112    1.476   .     S
C18    C84     1.413   .     A
C18    C679    1.413   1_545 S
C18    C111    1.468   .     S
C19    C380    1.417   1_455 A
C19    C85     1.417   .     S
C19    C110    1.476   .     S
C20    C382    1.413   1_455 A
C20    C86     1.413   .     S
C20    C109    1.468   .     S
C21    C108    1.476   .     S
C21    C91     1.417   .     A
C21    C387    1.417   1_455 S
C22    C107    1.468   .     S
C22    C393    1.413   1_455 A
C22    C88     1.413   .     S
C23    C94     1.417   .     A
C23    C106    1.476   .     S
C23    C689    1.417   1_545 S
C24    C90     1.401   .     A
C24    Cl172   1.772   .     S
C24    C104    1.405   .     A
C25    C105    1.468   .     S
C25    C695    1.413   1_545 A
C25    C90     1.413   .     S
C26    N185    1.157   .     T
C26    C131    1.452   .     S
C27    N196    1.157   .     T
C27    C132    1.452   .     S
C28    C133    1.453   .     S
C28    N207    1.157   .     T
C29    N218    1.157   .     T
C29    C134    1.453   .     S
C30    C135    1.452   .     S
C30    N228    1.157   .     T
C31    C137    1.452   .     S
C31    N229    1.157   .     T
C32    N230    1.157   .     T
C32    C138    1.453   .     S
C33    C139    1.453   .     S
C33    N231    1.157   .     T
C34    C140    1.453   .     S
C34    N232    1.157   .     T
C35    Cl173   1.773   .     S
C35    C91     1.401   .     A
C35    C100    1.403   .     S
C36    C141    1.453   .     S
C36    N186    1.157   .     T
C37    C142    1.452   .     S
C37    N187    1.157   .     T
C38    N188    1.157   .     T
C38    C143    1.452   .     S
C39    N189    1.157   .     T
C39    C144    1.453   .     S
C40    C145    1.453   .     S
C40    N190    1.157   .     T
C41    C146    1.452   .     S
C41    N191    1.157   .     T
C42    C148    1.452   .     S
C42    N192    1.157   .     T
C43    N193    1.157   .     T
C43    C149    1.452   .     S
C44    C150    1.452   .     S
C44    N194    1.157   .     T
C45    C151    1.453   .     S
C45    N195    1.157   .     T
C46    Cl174   1.772   .     S
C46    C93     1.401   .     A
C46    C401    1.405   .     S
C47    C152    1.453   .     S
C47    N197    1.157   .     T
C48    C153    1.452   .     S
C48    N198    1.157   .     T
C49    N199    1.157   .     T
C49    C154    1.452   .     S
C50    C155    1.453   .     S
C50    N200    1.157   .     T
C51    N201    1.157   .     T
C51    C156    1.453   .     S
C52    N202    1.157   .     T
C52    C157    1.453   .     S
C53    C159    1.453   .     S
C53    N203    1.157   .     T
C54    N204    1.157   .     T
C54    C160    1.452   .     S
C55    C161    1.452   .     S
C55    N205    1.157   .     T
C56    C162    1.453   .     S
C56    N206    1.157   .     T
C57    C102    1.403   .     A
C57    Cl175   1.773   .     S
C57    C94     1.401   .     A
C58    N208    1.157   .     T
C58    C163    1.453   .     S
C59    C164    1.452   .     S
C59    N209    1.157   .     T
C60    C165    1.452   .     S
C60    N210    1.157   .     T
C61    N211    1.157   .     T
C61    C78     1.449   .     S
C62    N212    1.157   .     T
C62    C79     1.449   .     S
C63    C80     1.449   .     S
C63    N213    1.157   .     T
C64    N214    1.157   .     T
C64    C82     1.449   .     S
C65    N215    1.157   .     T
C65    C83     1.449   .     S
C66    N216    1.157   .     T
C66    C84     1.449   .     S
C67    C85     1.449   .     S
C67    N217    1.157   .     T
C68    Cl176   1.772   .     S
C68    C95     1.401   .     A
C68    C704    1.405   .     S
C69    N219    1.157   .     T
C69    C86     1.449   .     S
C70    C87     1.449   .     S
C70    N220    1.157   .     T
C71    N221    1.157   .     T
C71    C88     1.449   .     S
C72    N222    1.157   .     T
C72    C89     1.449   .     S
C73    N223    1.157   .     T
C73    C90     1.449   .     S
C74    N224    1.157   .     T
C74    C91     1.449   .     S
C75    C93     1.449   .     S
C75    N225    1.157   .     T
C76    C94     1.449   .     S
C76    N226    1.157   .     T
C77    N227    1.157   .     T
C77    C95     1.449   .     S
C78    C617    1.417   .     S
C79    C81     1.401   .     A
C79    C618    1.413   .     S
C80    C92     1.401   .     A
C80    C319    1.417   .     A
C81    Cl177   1.772   .     S
C81    C697    1.405   .     S
C82    C320    1.413   .     A
C82    C103    1.401   .     A
C83    C114    1.401   .     A
C84    C125    1.401   .     A
C85    C136    1.401   .     A
C86    C147    1.401   .     A
C87    C158    1.401   .     A
C87    C321    1.417   .     S
C89    C623    1.417   .     S
C92    C398    1.403   .     A
C92    Cl178   1.773   .     S
C93    C322    1.413   .     A
C95    C625    1.413   .     A
C96    C114    1.403   .     A
C96    C601    1.403   1_545 S
C96    C97     1.467   1_554 S
C97    C125    1.405   .     A
C97    C96     1.467   1_556 S
C97    C681    1.405   1_545 S
C98    C392    1.403   1_455 A
C98    C99     1.467   1_554 S
C98    C136    1.403   .     S
C99    C403    1.405   1_455 A
C99    C98     1.467   1_556 S
C99    C147    1.405   .     S
C100   C458    1.403   1_455 A
C100   C101    1.467   .     S
C101   C346    1.405   1_455 S
C102   C104    1.467   .     S
C102   C613    1.403   1_545 S
C103   C399    1.405   .     A
C103   Cl179   1.772   .     S
C104   C668    1.405   1_545 S
C105   O877    1.279   1_545 A
C105   O284    1.279   .     S
C106   O281    1.281   .     A
C106   O834    1.281   1_545 S
C107   O535    1.279   1_455 A
C107   O282    1.279   .     S
C108   O236    1.281   .     A
C108   O583    1.281   1_455 S
C109   O237    1.279   .     S
C109   O241    1.279   .     S
C110   O242    1.281   .     A
C110   O238    1.281   .     A
C111   O239    1.279   .     S
C111   O243    1.279   .     S
C112   O240    1.281   .     S
C112   O245    1.281   .     S
C113   C168    1.458   .     S
C113   O246    1.276   .     A
C113   O274    1.276   .     A
C114   Cl180   1.773   .     S
C115   O247    1.276   .     A
C115   O275    1.276   .     A
C116   O248    1.276   .     A
C116   O272    1.276   .     A
C117   O273    1.276   .     A
C117   O249    1.276   .     A
C118   O250    1.276   .     A
C118   O279    1.276   .     A
C119   O251    1.276   .     A
C119   O280    1.276   .     A
C120   C166    1.451   .     S
C120   O252    1.276   .     A
C120   O276    1.276   .     A
C121   C167    1.451   .     S
C121   O253    1.276   .     A
C121   O278    1.276   .     A
C122   O254    1.276   .     A
C122   O265    1.276   .     A
C123   O256    1.276   .     A
C123   O267    1.276   .     A
C124   O257    1.276   .     A
C124   O263    1.276   .     A
C125   Cl181   1.772   .     S
C126   O258    1.276   .     A
C126   O264    1.276   .     A
C127   O270    1.276   .     A
C127   O259    1.276   .     A
C128   O260    1.276   .     A
C128   O271    1.276   .     A
C129   O268    1.276   .     A
C129   O261    1.276   .     A
C130   O269    1.276   .     A
C130   O262    1.276   .     A
C131   C148    1.401   .     A
C132   C146    1.401   .     A
C133   C145    1.400   .     A
C134   C144    1.400   .     A
C135   C143    1.401   .     A
C136   Cl182   1.773   .     S
C137   C142    1.401   .     A
C138   C141    1.400   .     A
C139   C140    1.400   .     A
C145   C168    1.410   .     A
C146   C167    1.408   .     A
C147   Cl183   1.772   .     S
C148   C166    1.407   .     A
C149   C165    1.401   .     A
C149   C167    1.407   .     A
C150   C166    1.408   .     A
C150   C164    1.401   .     A
C151   C163    1.400   .     A
C152   C168    1.410   .     A
C152   C162    1.400   .     A
C153   C161    1.401   .     A
C154   C160    1.401   .     A
C155   C159    1.400   .     A
C156   C157    1.400   .     A
C158   C400    1.403   .     A
C158   Cl184   1.773   .     S
O233   Zn288   1.944   .     S
O233   Zn296   1.944   .     S
O233   Zn285   1.944   .     S
O233   Zn892   1.944   1_545 S
O234   Zn287   1.942   .     S
O234   C706    1.281   .     S
O235   Zn290   1.942   .     S
O235   C407    1.279   .     A
O236   Zn289   1.942   .     S
O237   Zn299   1.942   .     S
O238   Zn298   1.942   .     S
O239   Zn293   1.942   .     S
O240   Zn285   1.942   .     S
O241   Zn295   1.942   .     S
O242   Zn294   1.942   .     S
O243   Zn297   1.942   .     S
O244   Zn291   1.944   .     S
O244   Zn293   1.944   .     S
O244   Zn297   1.944   .     S
O244   Zn887   1.944   1_545 S
O245   Zn296   1.942   .     S
O246   Zn288   1.937   .     S
O247   Zn287   1.937   .     S
O248   Zn290   1.929   .     S
O249   Zn289   1.929   .     S
O250   Zn292   1.937   .     S
O251   Zn291   1.937   .     S
O252   Zn286   1.929   .     S
O253   Zn300   1.929   .     S
O254   Zn287   1.929   .     S
O255   Zn590   1.944   1_455 S
O255   Zn294   1.944   .     S
O255   Zn298   1.944   .     S
O255   Zn286   1.944   .     S
O256   Zn288   1.929   .     S
O257   Zn300   1.937   .     S
O258   Zn286   1.937   .     S
O259   Zn291   1.929   .     S
O260   Zn292   1.929   .     S
O261   Zn289   1.937   .     S
O262   Zn290   1.937   .     S
O263   Zn595   1.937   .     S
O264   Zn294   1.937   .     S
O265   Zn897   1.929   .     S
O266   Zn600   1.944   1_455 S
O266   Zn289   1.944   .     S
O266   Zn295   1.944   .     S
O266   Zn299   1.944   .     S
O267   Zn296   1.929   .     S
O268   Zn299   1.937   .     S
O269   Zn598   1.937   .     S
O270   Zn293   1.929   .     S
O271   Zn885   1.929   .     S
O272   Zn594   1.929   .     S
O273   Zn295   1.929   .     S
O274   Zn285   1.937   .     S
O275   Zn893   1.937   .     S
O276   Zn298   1.929   .     S
O277   Zn292   1.942   .     S
O277   C705    1.279   .     A
O278   Zn599   1.929   .     S
O279   Zn896   1.937   .     S
O280   Zn297   1.937   .     S
O281   Zn291   1.942   .     S
O282   Zn286   1.942   .     S
O283   Zn300   1.942   .     S
O283   C408    1.281   .     S
O284   Zn288   1.942   .     S
Zn285  O871    1.929   1_545 S
Zn287  O844    1.944   .     S
Zn290  O555    1.944   .     S
Zn292  O833    1.944   .     S
Zn293  O875    1.937   1_545 S
Zn294  O572    1.929   1_455 S
Zn295  O563    1.937   1_455 S
Zn296  O879    1.937   1_545 S
Zn297  O865    1.929   1_545 S
Zn298  O569    1.937   1_455 S
Zn299  O578    1.929   1_455 S
Zn300  O566    1.944   .     S
C301   C378    1.401   .     A
C301   Cl469   1.773   .     S
C301   C996    1.403   .     S
C302   Cl470   1.772   .     S
C302   C388    1.401   .     A
C302   C401    1.405   .     A
C303   C451    1.410   .     A
C303   C444    1.410   .     A
C303   C415    1.458   .     S
C304   C454    1.408   .     A
C304   C416    1.451   .     S
C304   C443    1.407   .     A
C305   C442    1.408   .     A
C305   C417    1.451   .     S
C305   C453    1.407   .     A
C306   C441    1.410   .     A
C306   C456    1.410   .     A
C306   C418    1.458   .     S
C307   C419    1.458   .     S
C307   C440    1.410   .     A
C307   C455    1.411   .     A
C308   C429    1.458   .     S
C308   C459    1.411   .     A
C308   C439    1.410   .     A
C309   C438    1.410   .     A
C309   C457    1.410   .     A
C309   C430    1.458   .     S
C310   C422    1.451   .     S
C310   C461    1.407   .     A
C310   C437    1.408   .     A
C311   C460    1.408   .     A
C311   C435    1.408   .     A
C311   C423    1.451   .     S
C312   C463    1.411   .     A
C312   C434    1.410   .     A
C312   C424    1.458   .     S
C313   Cl471   1.773   .     S
C313   C389    1.401   .     A
C313   C1002   1.403   .     S
C314   C426    1.458   .     S
C314   C433    1.410   .     A
C314   C462    1.410   .     A
C315   C432    1.408   .     A
C315   C427    1.451   .     S
C315   C465    1.407   .     A
C316   C464    1.408   .     A
C316   C431    1.407   .     A
C316   C428    1.451   .     S
C317   C383    1.417   .     A
C317   C978    1.417   1_545 S
C317   C412    1.476   .     S
C318   C384    1.413   .     A
C318   C979    1.413   1_545 S
C318   C411    1.468   .     S
C319   C385    1.417   .     S
C319   C410    1.476   .     S
C320   C386    1.413   .     S
C320   C409    1.468   .     S
C321   C408    1.476   .     S
C321   C391    1.417   .     A
C322   C407    1.468   .     S
C322   C388    1.413   .     S
C323   C394    1.417   .     A
C323   C406    1.476   .     S
C323   C989    1.417   1_545 S
C324   C390    1.401   .     A
C324   Cl472   1.772   .     S
C324   C404    1.405   .     A
C325   C405    1.468   .     S
C325   C995    1.413   1_545 A
C325   C390    1.413   .     S
C326   N485    1.157   .     T
C326   C431    1.452   .     S
C327   N496    1.157   .     T
C327   C432    1.452   .     S
C328   C433    1.453   .     S
C328   N507    1.157   .     T
C329   N518    1.157   .     T
C329   C434    1.453   .     S
C330   C435    1.452   .     S
C330   N528    1.157   .     T
C331   C437    1.452   .     S
C331   N529    1.157   .     T
C332   N530    1.157   .     T
C332   C438    1.453   .     S
C333   C439    1.453   .     S
C333   N531    1.157   .     T
C334   C440    1.453   .     S
C334   N532    1.157   .     T
C335   Cl473   1.773   .     S
C335   C391    1.401   .     A
C335   C400    1.403   .     S
C336   C441    1.453   .     S
C336   N486    1.157   .     T
C337   C442    1.452   .     S
C337   N487    1.157   .     T
C338   N488    1.157   .     T
C338   C443    1.452   .     S
C339   N489    1.157   .     T
C339   C444    1.453   .     S
C340   C445    1.453   .     S
C340   N490    1.157   .     T
C341   C446    1.452   .     S
C341   N491    1.157   .     T
C342   C448    1.452   .     S
C342   N492    1.157   .     T
C343   N493    1.157   .     T
C343   C449    1.452   .     S
C344   C450    1.452   .     S
C344   N494    1.157   .     T
C345   C451    1.453   .     S
C345   N495    1.157   .     T
C346   Cl474   1.772   .     S
C346   C393    1.401   .     A
C346   C101    1.405   1_655 S
C347   C452    1.453   .     S
C347   N497    1.157   .     T
C348   C453    1.452   .     S
C348   N498    1.157   .     T
C349   N499    1.157   .     T
C349   C454    1.452   .     S
C350   C455    1.453   .     S
C350   N500    1.157   .     T
C351   N501    1.157   .     T
C351   C456    1.453   .     S
C352   N502    1.157   .     T
C352   C457    1.453   .     S
C353   C459    1.453   .     S
C353   N503    1.157   .     T
C354   N504    1.157   .     T
C354   C460    1.452   .     S
C355   C461    1.452   .     S
C355   N505    1.157   .     T
C356   C462    1.453   .     S
C356   N506    1.157   .     T
C357   C402    1.403   .     A
C357   Cl475   1.773   .     S
C357   C394    1.401   .     A
C358   N508    1.157   .     T
C358   C463    1.453   .     S
C359   C464    1.452   .     S
C359   N509    1.157   .     T
C360   C465    1.452   .     S
C360   N510    1.157   .     T
C361   N511    1.157   .     T
C361   C378    1.449   .     S
C362   N512    1.157   .     T
C362   C379    1.449   .     S
C363   C380    1.449   .     S
C363   N513    1.157   .     T
C364   N514    1.157   .     T
C364   C382    1.449   .     S
C365   N515    1.157   .     T
C365   C383    1.449   .     S
C366   N516    1.157   .     T
C366   C384    1.449   .     S
C367   C385    1.449   .     S
C367   N517    1.157   .     T
C368   Cl476   1.772   .     S
C368   C395    1.401   .     A
C368   C1004   1.405   .     S
C369   N519    1.157   .     T
C369   C386    1.449   .     S
C370   C387    1.449   .     S
C370   N520    1.157   .     T
C371   N521    1.157   .     T
C371   C388    1.449   .     S
C372   N522    1.157   .     T
C372   C389    1.449   .     S
C373   N523    1.157   .     T
C373   C390    1.449   .     S
C374   N524    1.157   .     T
C374   C391    1.449   .     S
C375   C393    1.449   .     S
C375   N525    1.157   .     T
C376   C394    1.449   .     S
C376   N526    1.157   .     T
C377   N527    1.157   .     T
C377   C395    1.449   .     S
C378   C917    1.417   .     S
C379   C381    1.401   .     A
C379   C918    1.413   .     S
C380   C392    1.401   .     A
C380   C19     1.417   1_655 A
C381   Cl477   1.772   .     S
C381   C997    1.405   .     S
C382   C20     1.413   1_655 A
C382   C403    1.401   .     A
C383   C414    1.401   .     A
C384   C425    1.401   .     A
C385   C436    1.401   .     A
C386   C447    1.401   .     A
C387   C458    1.401   .     A
C387   C21     1.417   1_655 S
C389   C923    1.417   .     S
C392   C98     1.403   1_655 A
C392   Cl478   1.773   .     S
C393   C22     1.413   1_655 A
C395   C925    1.413   .     A
C396   C414    1.403   .     A
C396   C901    1.403   1_545 S
C396   C397    1.467   1_554 S
C397   C425    1.405   .     A
C397   C396    1.467   1_556 S
C397   C981    1.405   1_545 S
C398   C399    1.467   1_554 S
C398   C436    1.403   .     S
C399   C398    1.467   1_556 S
C399   C447    1.405   .     S
C400   C401    1.467   .     S
C402   C404    1.467   .     S
C402   C913    1.403   1_545 S
C403   C99     1.405   1_655 A
C403   Cl479   1.772   .     S
C404   C968    1.405   1_545 S
C405   O1177   1.279   1_545 A
C405   O584    1.279   .     S
C406   O581    1.281   .     A
C406   O1134   1.281   1_545 S
C407   O582    1.279   .     S
C408   O536    1.281   .     A
C409   O537    1.279   .     S
C409   O541    1.279   .     S
C410   O542    1.281   .     A
C410   O538    1.281   .     A
C411   O539    1.279   .     S
C411   O543    1.279   .     S
C412   O540    1.281   .     S
C412   O545    1.281   .     S
C413   C468    1.458   .     S
C413   O546    1.276   .     A
C413   O574    1.276   .     A
C414   Cl480   1.773   .     S
C415   O547    1.276   .     A
C415   O575    1.276   .     A
C416   O548    1.276   .     A
C416   O572    1.276   .     A
C417   O573    1.276   .     A
C417   O549    1.276   .     A
C418   O550    1.276   .     A
C418   O579    1.276   .     A
C419   O551    1.276   .     A
C419   O580    1.276   .     A
C420   C466    1.451   .     S
C420   O552    1.276   .     A
C420   O576    1.276   .     A
C421   C467    1.451   .     S
C421   O553    1.276   .     A
C421   O578    1.276   .     A
C422   O554    1.276   .     A
C422   O565    1.276   .     A
C423   O556    1.276   .     A
C423   O567    1.276   .     A
C424   O557    1.276   .     A
C424   O563    1.276   .     A
C425   Cl481   1.772   .     S
C426   O558    1.276   .     A
C426   O564    1.276   .     A
C427   O570    1.276   .     A
C427   O559    1.276   .     A
C428   O560    1.276   .     A
C428   O571    1.276   .     A
C429   O568    1.276   .     A
C429   O561    1.276   .     A
C430   O569    1.276   .     A
C430   O562    1.276   .     A
C431   C448    1.401   .     A
C432   C446    1.401   .     A
C433   C445    1.400   .     A
C434   C444    1.400   .     A
C435   C443    1.401   .     A
C436   Cl482   1.773   .     S
C437   C442    1.401   .     A
C438   C441    1.400   .     A
C439   C440    1.400   .     A
C445   C468    1.410   .     A
C446   C467    1.408   .     A
C447   Cl483   1.772   .     S
C448   C466    1.407   .     A
C449   C465    1.401   .     A
C449   C467    1.407   .     A
C450   C466    1.408   .     A
C450   C464    1.401   .     A
C451   C463    1.400   .     A
C452   C468    1.410   .     A
C452   C462    1.400   .     A
C453   C461    1.401   .     A
C454   C460    1.401   .     A
C455   C459    1.400   .     A
C456   C457    1.400   .     A
C458   C100    1.403   1_655 A
C458   Cl484   1.773   .     S
O533   Zn588   1.944   .     S
O533   Zn596   1.944   .     S
O533   Zn585   1.944   .     S
O533   Zn1192  1.944   1_545 S
O534   Zn587   1.942   .     S
O534   C1006   1.281   .     S
O535   Zn590   1.942   .     S
O535   C107    1.279   1_655 A
O536   Zn589   1.942   .     S
O537   Zn599   1.942   .     S
O538   Zn598   1.942   .     S
O539   Zn593   1.942   .     S
O540   Zn585   1.942   .     S
O541   Zn595   1.942   .     S
O542   Zn594   1.942   .     S
O543   Zn597   1.942   .     S
O544   Zn591   1.944   .     S
O544   Zn593   1.944   .     S
O544   Zn597   1.944   .     S
O544   Zn1187  1.944   1_545 S
O545   Zn596   1.942   .     S
O546   Zn588   1.937   .     S
O547   Zn587   1.937   .     S
O548   Zn590   1.929   .     S
O549   Zn589   1.929   .     S
O550   Zn592   1.937   .     S
O551   Zn591   1.937   .     S
O552   Zn586   1.929   .     S
O553   Zn600   1.929   .     S
O554   Zn587   1.929   .     S
O555   Zn594   1.944   .     S
O555   Zn598   1.944   .     S
O555   Zn586   1.944   .     S
O556   Zn588   1.929   .     S
O557   Zn600   1.937   .     S
O558   Zn586   1.937   .     S
O559   Zn591   1.929   .     S
O560   Zn592   1.929   .     S
O561   Zn589   1.937   .     S
O562   Zn590   1.937   .     S
O563   Zn295   1.937   1_655 S
O564   Zn594   1.937   .     S
O565   Zn1197  1.929   .     S
O566   Zn589   1.944   .     S
O566   Zn595   1.944   .     S
O566   Zn599   1.944   .     S
O567   Zn596   1.929   .     S
O568   Zn599   1.937   .     S
O569   Zn298   1.937   1_655 S
O570   Zn593   1.929   .     S
O571   Zn1185  1.929   .     S
O572   Zn294   1.929   1_655 S
O573   Zn595   1.929   .     S
O574   Zn585   1.937   .     S
O575   Zn1193  1.937   .     S
O576   Zn598   1.929   .     S
O577   Zn592   1.942   .     S
O577   C1005   1.279   .     A
O578   Zn299   1.929   1_655 S
O579   Zn1196  1.937   .     S
O580   Zn597   1.937   .     S
O581   Zn591   1.942   .     S
O582   Zn586   1.942   .     S
O583   Zn600   1.942   .     S
O583   C108    1.281   1_655 S
O584   Zn588   1.942   .     S
Zn585  O1171   1.929   1_545 S
Zn587  O1144   1.944   .     S
Zn590  O255    1.944   1_655 S
Zn592  O1133   1.944   .     S
Zn593  O1175   1.937   1_545 S
Zn596  O1179   1.937   1_545 S
Zn597  O1165   1.929   1_545 S
Zn600  O266    1.944   1_655 S
C601   C678    1.401   .     A
C601   Cl769   1.773   .     S
C601   C96     1.403   1_565 S
C602   Cl770   1.772   .     S
C602   C688    1.401   .     A
C602   C701    1.405   .     A
C603   C751    1.410   .     A
C603   C744    1.410   .     A
C603   C715    1.458   .     S
C604   C754    1.408   .     A
C604   C716    1.451   .     S
C604   C743    1.407   .     A
C605   C742    1.408   .     A
C605   C717    1.451   .     S
C605   C753    1.407   .     A
C606   C741    1.410   .     A
C606   C756    1.410   .     A
C606   C718    1.458   .     S
C607   C719    1.458   .     S
C607   C740    1.410   .     A
C607   C755    1.411   .     A
C608   C729    1.458   .     S
C608   C759    1.411   .     A
C608   C739    1.410   .     A
C609   C738    1.410   .     A
C609   C757    1.410   .     A
C609   C730    1.458   .     S
C610   C722    1.451   .     S
C610   C761    1.407   .     A
C610   C737    1.408   .     A
C611   C760    1.408   .     A
C611   C735    1.408   .     A
C611   C723    1.451   .     S
C612   C763    1.411   .     A
C612   C734    1.410   .     A
C612   C724    1.458   .     S
C613   Cl771   1.773   .     S
C613   C689    1.401   .     A
C613   C102    1.403   1_565 S
C614   C726    1.458   .     S
C614   C733    1.410   .     A
C614   C762    1.410   .     A
C615   C732    1.408   .     A
C615   C727    1.451   .     S
C615   C765    1.407   .     A
C616   C764    1.408   .     A
C616   C731    1.407   .     A
C616   C728    1.451   .     S
C617   C683    1.417   .     A
C617   C712    1.476   .     S
C618   C684    1.413   .     A
C618   C711    1.468   .     S
C619   C980    1.417   1_455 A
C619   C685    1.417   .     S
C619   C710    1.476   .     S
C620   C982    1.413   1_455 A
C620   C686    1.413   .     S
C620   C709    1.468   .     S
C621   C708    1.476   .     S
C621   C691    1.417   .     A
C621   C987    1.417   1_455 S
C622   C707    1.468   .     S
C622   C993    1.413   1_455 A
C622   C688    1.413   .     S
C623   C694    1.417   .     A
C623   C706    1.476   .     S
C624   C690    1.401   .     A
C624   Cl772   1.772   .     S
C624   C704    1.405   .     A
C625   C705    1.468   .     S
C625   C690    1.413   .     S
C626   N785    1.157   .     T
C626   C731    1.452   .     S
C627   N796    1.157   .     T
C627   C732    1.452   .     S
C628   C733    1.453   .     S
C628   N807    1.157   .     T
C629   N818    1.157   .     T
C629   C734    1.453   .     S
C630   C735    1.452   .     S
C630   N828    1.157   .     T
C631   C737    1.452   .     S
C631   N829    1.157   .     T
C632   N830    1.157   .     T
C632   C738    1.453   .     S
C633   C739    1.453   .     S
C633   N831    1.157   .     T
C634   C740    1.453   .     S
C634   N832    1.157   .     T
C635   Cl773   1.773   .     S
C635   C691    1.401   .     A
C635   C700    1.403   .     S
C636   C741    1.453   .     S
C636   N786    1.157   .     T
C637   C742    1.452   .     S
C637   N787    1.157   .     T
C638   N788    1.157   .     T
C638   C743    1.452   .     S
C639   N789    1.157   .     T
C639   C744    1.453   .     S
C640   C745    1.453   .     S
C640   N790    1.157   .     T
C641   C746    1.452   .     S
C641   N791    1.157   .     T
C642   C748    1.452   .     S
C642   N792    1.157   .     T
C643   N793    1.157   .     T
C643   C749    1.452   .     S
C644   C750    1.452   .     S
C644   N794    1.157   .     T
C645   C751    1.453   .     S
C645   N795    1.157   .     T
C646   Cl774   1.772   .     S
C646   C693    1.401   .     A
C646   C1001   1.405   .     S
C647   C752    1.453   .     S
C647   N797    1.157   .     T
C648   C753    1.452   .     S
C648   N798    1.157   .     T
C649   N799    1.157   .     T
C649   C754    1.452   .     S
C650   C755    1.453   .     S
C650   N800    1.157   .     T
C651   N801    1.157   .     T
C651   C756    1.453   .     S
C652   N802    1.157   .     T
C652   C757    1.453   .     S
C653   C759    1.453   .     S
C653   N803    1.157   .     T
C654   N804    1.157   .     T
C654   C760    1.452   .     S
C655   C761    1.452   .     S
C655   N805    1.157   .     T
C656   C762    1.453   .     S
C656   N806    1.157   .     T
C657   C702    1.403   .     A
C657   Cl775   1.773   .     S
C657   C694    1.401   .     A
C658   N808    1.157   .     T
C658   C763    1.453   .     S
C659   C764    1.452   .     S
C659   N809    1.157   .     T
C660   C765    1.452   .     S
C660   N810    1.157   .     T
C661   N811    1.157   .     T
C661   C678    1.449   .     S
C662   N812    1.157   .     T
C662   C679    1.449   .     S
C663   C680    1.449   .     S
C663   N813    1.157   .     T
C664   N814    1.157   .     T
C664   C682    1.449   .     S
C665   N815    1.157   .     T
C665   C683    1.449   .     S
C666   N816    1.157   .     T
C666   C684    1.449   .     S
C667   C685    1.449   .     S
C667   N817    1.157   .     T
C668   Cl776   1.772   .     S
C668   C695    1.401   .     A
C668   C104    1.405   1_565 S
C669   N819    1.157   .     T
C669   C686    1.449   .     S
C670   C687    1.449   .     S
C670   N820    1.157   .     T
C671   N821    1.157   .     T
C671   C688    1.449   .     S
C672   N822    1.157   .     T
C672   C689    1.449   .     S
C673   N823    1.157   .     T
C673   C690    1.449   .     S
C674   N824    1.157   .     T
C674   C691    1.449   .     S
C675   C693    1.449   .     S
C675   N825    1.157   .     T
C676   C694    1.449   .     S
C676   N826    1.157   .     T
C677   N827    1.157   .     T
C677   C695    1.449   .     S
C678   C17     1.417   1_565 S
C679   C681    1.401   .     A
C679   C18     1.413   1_565 S
C680   C692    1.401   .     A
C680   C919    1.417   .     A
C681   Cl777   1.772   .     S
C681   C97     1.405   1_565 S
C682   C920    1.413   .     A
C682   C703    1.401   .     A
C683   C714    1.401   .     A
C684   C725    1.401   .     A
C685   C736    1.401   .     A
C686   C747    1.401   .     A
C687   C758    1.401   .     A
C687   C921    1.417   .     S
C689   C23     1.417   1_565 S
C692   C998    1.403   .     A
C692   Cl778   1.773   .     S
C693   C922    1.413   .     A
C695   C25     1.413   1_565 A
C696   C714    1.403   .     A
C696   C697    1.467   1_554 S
C697   C725    1.405   .     A
C697   C696    1.467   1_556 S
C698   C992    1.403   1_455 A
C698   C699    1.467   1_554 S
C698   C736    1.403   .     S
C699   C1003   1.405   1_455 A
C699   C698    1.467   1_556 S
C699   C747    1.405   .     S
C700   C1058   1.403   1_455 A
C700   C701    1.467   .     S
C701   C946    1.405   1_455 S
C702   C704    1.467   .     S
C703   C999    1.405   .     A
C703   Cl779   1.772   .     S
C705   O884    1.279   .     S
C706   O881    1.281   .     A
C707   O1135   1.279   1_455 A
C707   O882    1.279   .     S
C708   O836    1.281   .     A
C708   O1183   1.281   1_455 S
C709   O837    1.279   .     S
C709   O841    1.279   .     S
C710   O842    1.281   .     A
C710   O838    1.281   .     A
C711   O839    1.279   .     S
C711   O843    1.279   .     S
C712   O840    1.281   .     S
C712   O845    1.281   .     S
C713   C768    1.458   .     S
C713   O846    1.276   .     A
C713   O874    1.276   .     A
C714   Cl780   1.773   .     S
C715   O847    1.276   .     A
C715   O875    1.276   .     A
C716   O848    1.276   .     A
C716   O872    1.276   .     A
C717   O873    1.276   .     A
C717   O849    1.276   .     A
C718   O850    1.276   .     A
C718   O879    1.276   .     A
C719   O851    1.276   .     A
C719   O880    1.276   .     A
C720   C766    1.451   .     S
C720   O852    1.276   .     A
C720   O876    1.276   .     A
C721   C767    1.451   .     S
C721   O853    1.276   .     A
C721   O878    1.276   .     A
C722   O854    1.276   .     A
C722   O865    1.276   .     A
C723   O856    1.276   .     A
C723   O867    1.276   .     A
C724   O857    1.276   .     A
C724   O863    1.276   .     A
C725   Cl781   1.772   .     S
C726   O858    1.276   .     A
C726   O864    1.276   .     A
C727   O870    1.276   .     A
C727   O859    1.276   .     A
C728   O860    1.276   .     A
C728   O871    1.276   .     A
C729   O868    1.276   .     A
C729   O861    1.276   .     A
C730   O869    1.276   .     A
C730   O862    1.276   .     A
C731   C748    1.401   .     A
C732   C746    1.401   .     A
C733   C745    1.400   .     A
C734   C744    1.400   .     A
C735   C743    1.401   .     A
C736   Cl782   1.773   .     S
C737   C742    1.401   .     A
C738   C741    1.400   .     A
C739   C740    1.400   .     A
C745   C768    1.410   .     A
C746   C767    1.408   .     A
C747   Cl783   1.772   .     S
C748   C766    1.407   .     A
C749   C765    1.401   .     A
C749   C767    1.407   .     A
C750   C766    1.408   .     A
C750   C764    1.401   .     A
C751   C763    1.400   .     A
C752   C768    1.410   .     A
C752   C762    1.400   .     A
C753   C761    1.401   .     A
C754   C760    1.401   .     A
C755   C759    1.400   .     A
C756   C757    1.400   .     A
C758   C1000   1.403   .     A
C758   Cl784   1.773   .     S
O833   Zn888   1.944   .     S
O833   Zn896   1.944   .     S
O833   Zn885   1.944   .     S
O834   Zn887   1.942   .     S
O834   C106    1.281   1_565 S
O835   Zn890   1.942   .     S
O835   C1007   1.279   .     A
O836   Zn889   1.942   .     S
O837   Zn899   1.942   .     S
O838   Zn898   1.942   .     S
O839   Zn893   1.942   .     S
O840   Zn885   1.942   .     S
O841   Zn895   1.942   .     S
O842   Zn894   1.942   .     S
O843   Zn897   1.942   .     S
O844   Zn891   1.944   .     S
O844   Zn893   1.944   .     S
O844   Zn897   1.944   .     S
O845   Zn896   1.942   .     S
O846   Zn888   1.937   .     S
O847   Zn887   1.937   .     S
O848   Zn890   1.929   .     S
O849   Zn889   1.929   .     S
O850   Zn892   1.937   .     S
O851   Zn891   1.937   .     S
O852   Zn886   1.929   .     S
O853   Zn900   1.929   .     S
O854   Zn887   1.929   .     S
O855   Zn1190  1.944   1_455 S
O855   Zn894   1.944   .     S
O855   Zn898   1.944   .     S
O855   Zn886   1.944   .     S
O856   Zn888   1.929   .     S
O857   Zn900   1.937   .     S
O858   Zn886   1.937   .     S
O859   Zn891   1.929   .     S
O860   Zn892   1.929   .     S
O861   Zn889   1.937   .     S
O862   Zn890   1.937   .     S
O863   Zn1195  1.937   .     S
O864   Zn894   1.937   .     S
O865   Zn297   1.929   1_565 S
O866   Zn1200  1.944   1_455 S
O866   Zn889   1.944   .     S
O866   Zn895   1.944   .     S
O866   Zn899   1.944   .     S
O867   Zn896   1.929   .     S
O868   Zn899   1.937   .     S
O869   Zn1198  1.937   .     S
O870   Zn893   1.929   .     S
O871   Zn285   1.929   1_565 S
O872   Zn1194  1.929   .     S
O873   Zn895   1.929   .     S
O874   Zn885   1.937   .     S
O875   Zn293   1.937   1_565 S
O876   Zn898   1.929   .     S
O877   Zn892   1.942   .     S
O877   C105    1.279   1_565 A
O878   Zn1199  1.929   .     S
O879   Zn296   1.937   1_565 S
O880   Zn897   1.937   .     S
O881   Zn891   1.942   .     S
O882   Zn886   1.942   .     S
O883   Zn900   1.942   .     S
O883   C1008   1.281   .     S
O884   Zn888   1.942   .     S
Zn887  O244    1.944   1_565 S
Zn890  O1155   1.944   .     S
Zn892  O233    1.944   1_565 S
Zn894  O1172   1.929   1_455 S
Zn895  O1163   1.937   1_455 S
Zn898  O1169   1.937   1_455 S
Zn899  O1178   1.929   1_455 S
Zn900  O1166   1.944   .     S
C901   C978    1.401   .     A
C901   Cl1069  1.773   .     S
C901   C396    1.403   1_565 S
C902   Cl1070  1.772   .     S
C902   C988    1.401   .     A
C902   C1001   1.405   .     A
C903   C1051   1.410   .     A
C903   C1044   1.410   .     A
C903   C1015   1.458   .     S
C904   C1054   1.408   .     A
C904   C1016   1.451   .     S
C904   C1043   1.407   .     A
C905   C1042   1.408   .     A
C905   C1017   1.451   .     S
C905   C1053   1.407   .     A
C906   C1041   1.410   .     A
C906   C1056   1.410   .     A
C906   C1018   1.458   .     S
C907   C1019   1.458   .     S
C907   C1040   1.410   .     A
C907   C1055   1.411   .     A
C908   C1029   1.458   .     S
C908   C1059   1.411   .     A
C908   C1039   1.410   .     A
C909   C1038   1.410   .     A
C909   C1057   1.410   .     A
C909   C1030   1.458   .     S
C910   C1022   1.451   .     S
C910   C1061   1.407   .     A
C910   C1037   1.408   .     A
C911   C1060   1.408   .     A
C911   C1035   1.408   .     A
C911   C1023   1.451   .     S
C912   C1063   1.411   .     A
C912   C1034   1.410   .     A
C912   C1024   1.458   .     S
C913   Cl1071  1.773   .     S
C913   C989    1.401   .     A
C913   C402    1.403   1_565 S
C914   C1026   1.458   .     S
C914   C1033   1.410   .     A
C914   C1062   1.410   .     A
C915   C1032   1.408   .     A
C915   C1027   1.451   .     S
C915   C1065   1.407   .     A
C916   C1064   1.408   .     A
C916   C1031   1.407   .     A
C916   C1028   1.451   .     S
C917   C983    1.417   .     A
C917   C1012   1.476   .     S
C918   C984    1.413   .     A
C918   C1011   1.468   .     S
C919   C985    1.417   .     S
C919   C1010   1.476   .     S
C920   C986    1.413   .     S
C920   C1009   1.468   .     S
C921   C1008   1.476   .     S
C921   C991    1.417   .     A
C922   C1007   1.468   .     S
C922   C988    1.413   .     S
C923   C994    1.417   .     A
C923   C1006   1.476   .     S
C924   C990    1.401   .     A
C924   Cl1072  1.772   .     S
C924   C1004   1.405   .     A
C925   C1005   1.468   .     S
C925   C990    1.413   .     S
C926   N1085   1.157   .     T
C926   C1031   1.452   .     S
C927   N1096   1.157   .     T
C927   C1032   1.452   .     S
C928   C1033   1.453   .     S
C928   N1107   1.157   .     T
C929   N1118   1.157   .     T
C929   C1034   1.453   .     S
C930   C1035   1.452   .     S
C930   N1128   1.157   .     T
C931   C1037   1.452   .     S
C931   N1129   1.157   .     T
C932   N1130   1.157   .     T
C932   C1038   1.453   .     S
C933   C1039   1.453   .     S
C933   N1131   1.157   .     T
C934   C1040   1.453   .     S
C934   N1132   1.157   .     T
C935   Cl1073  1.773   .     S
C935   C991    1.401   .     A
C935   C1000   1.403   .     S
C936   C1041   1.453   .     S
C936   N1086   1.157   .     T
C937   C1042   1.452   .     S
C937   N1087   1.157   .     T
C938   N1088   1.157   .     T
C938   C1043   1.452   .     S
C939   N1089   1.157   .     T
C939   C1044   1.453   .     S
C940   C1045   1.453   .     S
C940   N1090   1.157   .     T
C941   C1046   1.452   .     S
C941   N1091   1.157   .     T
C942   C1048   1.452   .     S
C942   N1092   1.157   .     T
C943   N1093   1.157   .     T
C943   C1049   1.452   .     S
C944   C1050   1.452   .     S
C944   N1094   1.157   .     T
C945   C1051   1.453   .     S
C945   N1095   1.157   .     T
C946   Cl1074  1.772   .     S
C946   C993    1.401   .     A
C946   C701    1.405   1_655 S
C947   C1052   1.453   .     S
C947   N1097   1.157   .     T
C948   C1053   1.452   .     S
C948   N1098   1.157   .     T
C949   N1099   1.157   .     T
C949   C1054   1.452   .     S
C950   C1055   1.453   .     S
C950   N1100   1.157   .     T
C951   N1101   1.157   .     T
C951   C1056   1.453   .     S
C952   N1102   1.157   .     T
C952   C1057   1.453   .     S
C953   C1059   1.453   .     S
C953   N1103   1.157   .     T
C954   N1104   1.157   .     T
C954   C1060   1.452   .     S
C955   C1061   1.452   .     S
C955   N1105   1.157   .     T
C956   C1062   1.453   .     S
C956   N1106   1.157   .     T
C957   C1002   1.403   .     A
C957   Cl1075  1.773   .     S
C957   C994    1.401   .     A
C958   N1108   1.157   .     T
C958   C1063   1.453   .     S
C959   C1064   1.452   .     S
C959   N1109   1.157   .     T
C960   C1065   1.452   .     S
C960   N1110   1.157   .     T
C961   N1111   1.157   .     T
C961   C978    1.449   .     S
C962   N1112   1.157   .     T
C962   C979    1.449   .     S
C963   C980    1.449   .     S
C963   N1113   1.157   .     T
C964   N1114   1.157   .     T
C964   C982    1.449   .     S
C965   N1115   1.157   .     T
C965   C983    1.449   .     S
C966   N1116   1.157   .     T
C966   C984    1.449   .     S
C967   C985    1.449   .     S
C967   N1117   1.157   .     T
C968   Cl1076  1.772   .     S
C968   C995    1.401   .     A
C968   C404    1.405   1_565 S
C969   N1119   1.157   .     T
C969   C986    1.449   .     S
C970   C987    1.449   .     S
C970   N1120   1.157   .     T
C971   N1121   1.157   .     T
C971   C988    1.449   .     S
C972   N1122   1.157   .     T
C972   C989    1.449   .     S
C973   N1123   1.157   .     T
C973   C990    1.449   .     S
C974   N1124   1.157   .     T
C974   C991    1.449   .     S
C975   C993    1.449   .     S
C975   N1125   1.157   .     T
C976   C994    1.449   .     S
C976   N1126   1.157   .     T
C977   N1127   1.157   .     T
C977   C995    1.449   .     S
C978   C317    1.417   1_565 S
C979   C981    1.401   .     A
C979   C318    1.413   1_565 S
C980   C992    1.401   .     A
C980   C619    1.417   1_655 A
C981   Cl1077  1.772   .     S
C981   C397    1.405   1_565 S
C982   C620    1.413   1_655 A
C982   C1003   1.401   .     A
C983   C1014   1.401   .     A
C984   C1025   1.401   .     A
C985   C1036   1.401   .     A
C986   C1047   1.401   .     A
C987   C1058   1.401   .     A
C987   C621    1.417   1_655 S
C989   C323    1.417   1_565 S
C992   C698    1.403   1_655 A
C992   Cl1078  1.773   .     S
C993   C622    1.413   1_655 A
C995   C325    1.413   1_565 A
C996   C1014   1.403   .     A
C996   C997    1.467   1_554 S
C997   C1025   1.405   .     A
C997   C996    1.467   1_556 S
C998   C999    1.467   1_554 S
C998   C1036   1.403   .     S
C999   C998    1.467   1_556 S
C999   C1047   1.405   .     S
C1000  C1001   1.467   .     S
C1002  C1004   1.467   .     S
C1003  C699    1.405   1_655 A
C1003  Cl1079  1.772   .     S
C1005  O1184   1.279   .     S
C1006  O1181   1.281   .     A
C1007  O1182   1.279   .     S
C1008  O1136   1.281   .     A
C1009  O1137   1.279   .     S
C1009  O1141   1.279   .     S
C1010  O1142   1.281   .     A
C1010  O1138   1.281   .     A
C1011  O1139   1.279   .     S
C1011  O1143   1.279   .     S
C1012  O1140   1.281   .     S
C1012  O1145   1.281   .     S
C1013  C1068   1.458   .     S
C1013  O1146   1.276   .     A
C1013  O1174   1.276   .     A
C1014  Cl1080  1.773   .     S
C1015  O1147   1.276   .     A
C1015  O1175   1.276   .     A
C1016  O1148   1.276   .     A
C1016  O1172   1.276   .     A
C1017  O1173   1.276   .     A
C1017  O1149   1.276   .     A
C1018  O1150   1.276   .     A
C1018  O1179   1.276   .     A
C1019  O1151   1.276   .     A
C1019  O1180   1.276   .     A
C1020  C1066   1.451   .     S
C1020  O1152   1.276   .     A
C1020  O1176   1.276   .     A
C1021  C1067   1.451   .     S
C1021  O1153   1.276   .     A
C1021  O1178   1.276   .     A
C1022  O1154   1.276   .     A
C1022  O1165   1.276   .     A
C1023  O1156   1.276   .     A
C1023  O1167   1.276   .     A
C1024  O1157   1.276   .     A
C1024  O1163   1.276   .     A
C1025  Cl1081  1.772   .     S
C1026  O1158   1.276   .     A
C1026  O1164   1.276   .     A
C1027  O1170   1.276   .     A
C1027  O1159   1.276   .     A
C1028  O1160   1.276   .     A
C1028  O1171   1.276   .     A
C1029  O1168   1.276   .     A
C1029  O1161   1.276   .     A
C1030  O1169   1.276   .     A
C1030  O1162   1.276   .     A
C1031  C1048   1.401   .     A
C1032  C1046   1.401   .     A
C1033  C1045   1.400   .     A
C1034  C1044   1.400   .     A
C1035  C1043   1.401   .     A
C1036  Cl1082  1.773   .     S
C1037  C1042   1.401   .     A
C1038  C1041   1.400   .     A
C1039  C1040   1.400   .     A
C1045  C1068   1.410   .     A
C1046  C1067   1.408   .     A
C1047  Cl1083  1.772   .     S
C1048  C1066   1.407   .     A
C1049  C1065   1.401   .     A
C1049  C1067   1.407   .     A
C1050  C1066   1.408   .     A
C1050  C1064   1.401   .     A
C1051  C1063   1.400   .     A
C1052  C1068   1.410   .     A
C1052  C1062   1.400   .     A
C1053  C1061   1.401   .     A
C1054  C1060   1.401   .     A
C1055  C1059   1.400   .     A
C1056  C1057   1.400   .     A
C1058  C700    1.403   1_655 A
C1058  Cl1084  1.773   .     S
O1133  Zn1188  1.944   .     S
O1133  Zn1196  1.944   .     S
O1133  Zn1185  1.944   .     S
O1134  Zn1187  1.942   .     S
O1134  C406    1.281   1_565 S
O1135  Zn1190  1.942   .     S
O1135  C707    1.279   1_655 A
O1136  Zn1189  1.942   .     S
O1137  Zn1199  1.942   .     S
O1138  Zn1198  1.942   .     S
O1139  Zn1193  1.942   .     S
O1140  Zn1185  1.942   .     S
O1141  Zn1195  1.942   .     S
O1142  Zn1194  1.942   .     S
O1143  Zn1197  1.942   .     S
O1144  Zn1191  1.944   .     S
O1144  Zn1193  1.944   .     S
O1144  Zn1197  1.944   .     S
O1145  Zn1196  1.942   .     S
O1146  Zn1188  1.937   .     S
O1147  Zn1187  1.937   .     S
O1148  Zn1190  1.929   .     S
O1149  Zn1189  1.929   .     S
O1150  Zn1192  1.937   .     S
O1151  Zn1191  1.937   .     S
O1152  Zn1186  1.929   .     S
O1153  Zn1200  1.929   .     S
O1154  Zn1187  1.929   .     S
O1155  Zn1194  1.944   .     S
O1155  Zn1198  1.944   .     S
O1155  Zn1186  1.944   .     S
O1156  Zn1188  1.929   .     S
O1157  Zn1200  1.937   .     S
O1158  Zn1186  1.937   .     S
O1159  Zn1191  1.929   .     S
O1160  Zn1192  1.929   .     S
O1161  Zn1189  1.937   .     S
O1162  Zn1190  1.937   .     S
O1163  Zn895   1.937   1_655 S
O1164  Zn1194  1.937   .     S
O1165  Zn597   1.929   1_565 S
O1166  Zn1189  1.944   .     S
O1166  Zn1195  1.944   .     S
O1166  Zn1199  1.944   .     S
O1167  Zn1196  1.929   .     S
O1168  Zn1199  1.937   .     S
O1169  Zn898   1.937   1_655 S
O1170  Zn1193  1.929   .     S
O1171  Zn585   1.929   1_565 S
O1172  Zn894   1.929   1_655 S
O1173  Zn1195  1.929   .     S
O1174  Zn1185  1.937   .     S
O1175  Zn593   1.937   1_565 S
O1176  Zn1198  1.929   .     S
O1177  Zn1192  1.942   .     S
O1177  C405    1.279   1_565 A
O1178  Zn899   1.929   1_655 S
O1179  Zn596   1.937   1_565 S
O1180  Zn1197  1.937   .     S
O1181  Zn1191  1.942   .     S
O1182  Zn1186  1.942   .     S
O1183  Zn1200  1.942   .     S
O1183  C708    1.281   1_655 S
O1184  Zn1188  1.942   .     S
Zn1187 O544    1.944   1_565 S
Zn1190 O855    1.944   1_655 S
Zn1192 O533    1.944   1_565 S
Zn1200 O866    1.944   1_655 S
