data_str_m1_o10_o18_pcu_sym.78
_audit_creation_date              2020-01-03
_audit_creation_method            'Materials Studio'
_symmetry_space_group_name_H-M    'P1'
_symmetry_Int_Tables_number       1
_symmetry_cell_setting            triclinic
loop_
_symmetry_equiv_pos_as_xyz
  x,y,z
_cell_length_a                    32.5946
_cell_length_b                    32.4983
_cell_length_c                    35.6288
_cell_angle_alpha                 98.1399
_cell_angle_beta                  72.8940
_cell_angle_gamma                 98.9191
loop_
_atom_site_label
_atom_site_type_symbol
_atom_site_fract_x
_atom_site_fract_y
_atom_site_fract_z
_atom_site_U_iso_or_equiv
_atom_site_adp_type
_atom_site_occupancy
C1     C     0.05240   0.15955   0.25919   0.00000  Uiso   1.00
C2     C     0.17462   0.11759   0.46478   0.00000  Uiso   1.00
C3     C     0.18674   0.09090   0.48597   0.00000  Uiso   1.00
C4     C     0.28126   0.17339   0.24076   0.00000  Uiso   1.00
C5     C     0.18816   0.10409   0.02516   0.00000  Uiso   1.00
C6     C     0.17955   0.14564   0.04133   0.00000  Uiso   1.00
C7     C     0.19865   0.07774   0.04860   0.00000  Uiso   1.00
C8     C     0.19952   0.09264   0.08704   0.00000  Uiso   1.00
C9     C     0.19248   0.16283   0.07590   0.00000  Uiso   1.00
C10    C     0.32778   0.17525   0.23541   0.00000  Uiso   1.00
C11    C     0.00737   0.15817   0.26159   0.00000  Uiso   1.00
C12    C     0.13997   0.24230   0.41453   0.00000  Uiso   1.00
C13    C     0.18141   0.32215   0.23725   0.00000  Uiso   1.00
C14    C     0.15195   0.01201   0.26171   0.00000  Uiso   1.00
C15    C     0.15547   0.05618   0.25924   0.00000  Uiso   1.00
C16    C     0.17698   0.27770   0.24116   0.00000  Uiso   1.00
C17    C     0.18776   0.14565   0.14374   0.00000  Uiso   1.00
C18    C     0.14556   0.18781   0.35618   0.00000  Uiso   1.00
C19    C     0.14002   0.19966   0.39874   0.00000  Uiso   1.00
C20    C     0.19635   0.13469   0.10096   0.00000  Uiso   1.00
C21    C     0.13329   0.25226   0.45514   0.00000  Uiso   1.00
C22    C     0.11094   0.27291   0.04115   0.00000  Uiso   1.00
C23    C     0.13639   0.16843   0.42399   0.00000  Uiso   1.00
C24    C     0.10156   0.27900   0.08614   0.00000  Uiso   1.00
C25    C     0.02618   0.19613   0.20080   0.00000  Uiso   1.00
C26    C     0.03759   0.24261   0.21228   0.00000  Uiso   1.00
C27    C     0.21023   0.20904   0.08230   0.00000  Uiso   1.00
C28    C     0.24269   0.22503   0.04509   0.00000  Uiso   1.00
C29    C     0.14734   0.27835   0.38956   0.00000  Uiso   1.00
C30    C     0.10463   0.29252   0.39010   0.00000  Uiso   1.00
C31    C     0.10954   0.12621   0.41793   0.00000  Uiso   1.00
C32    C     0.13110   0.09509   0.38394   0.00000  Uiso   1.00
C33    C     0.14331   0.18134   0.46177   0.00000  Uiso   1.00
C34    C     0.13510   0.22235   0.47926   0.00000  Uiso   1.00
C35    C     0.15820   0.15521   0.48269   0.00000  Uiso   1.00
C36    C     0.15953   0.16865   0.02187   0.00000  Uiso   1.00
C37    C     0.13866   0.20354   0.04141   0.00000  Uiso   1.00
C38    C     0.12875   0.23228   0.02044   0.00000  Uiso   1.00
H39    H     0.31765   0.14410   0.28655   0.00000  Uiso   1.00
H40    H     0.13439   0.29976   0.02934   0.00000  Uiso   1.00
H41    H     0.08027   0.27449   0.03401   0.00000  Uiso   1.00
H42    H     0.23686   0.03144   0.03552   0.00000  Uiso   1.00
H43    H     0.18380   0.01590   0.05483   0.00000  Uiso   1.00
H44    H     0.00798   0.25872   0.22206   0.00000  Uiso   1.00
H45    H     0.05341   0.24700   0.23647   0.00000  Uiso   1.00
H46    H     0.06026   0.25711   0.18639   0.00000  Uiso   1.00
H47    H     0.05623   0.18077   0.18962   0.00000  Uiso   1.00
H48    H     0.01195   0.19274   0.17559   0.00000  Uiso   1.00
H49    H     0.20524   0.02011   0.18838   0.00000  Uiso   1.00
H50    H     0.12486   0.33184   0.28426   0.00000  Uiso   1.00
H51    H     0.23559   0.02996   0.22077   0.00000  Uiso   1.00
H52    H     0.26798   0.20365   0.03265   0.00000  Uiso   1.00
H53    H     0.22666   0.22786   0.02229   0.00000  Uiso   1.00
H54    H     0.25860   0.25660   0.05269   0.00000  Uiso   1.00
H55    H     0.18453   0.22973   0.09443   0.00000  Uiso   1.00
H56    H     0.22867   0.21356   0.10439   0.00000  Uiso   1.00
H57    H     0.22496   0.05642   0.44137   0.00000  Uiso   1.00
H58    H     0.17315   0.03443   0.45739   0.00000  Uiso   1.00
H59    H     0.11104   0.31742   0.37004   0.00000  Uiso   1.00
H60    H     0.08319   0.26601   0.38005   0.00000  Uiso   1.00
H61    H     0.20318   0.07115   0.10620   0.00000  Uiso   1.00
H62    H     0.08782   0.30530   0.42040   0.00000  Uiso   1.00
H63    H     0.16720   0.30530   0.40120   0.00000  Uiso   1.00
H64    H     0.16652   0.27042   0.35873   0.00000  Uiso   1.00
H65    H     0.16689   0.10102   0.37583   0.00000  Uiso   1.00
H66    H     0.12128   0.06271   0.39256   0.00000  Uiso   1.00
H67    H     0.12012   0.09650   0.35750   0.00000  Uiso   1.00
H68    H     0.09902   0.11057   0.44558   0.00000  Uiso   1.00
H69    H     0.07894   0.13224   0.41301   0.00000  Uiso   1.00
H70    H     0.12981   0.28446   0.46699   0.00000  Uiso   1.00
H71    H     0.13025   0.20800   0.07311   0.00000  Uiso   1.00
H72    H     0.17837   0.10812   0.43403   0.00000  Uiso   1.00
H73    H     0.07715   0.25358   0.09977   0.00000  Uiso   1.00
H74    H     0.13174   0.28006   0.09489   0.00000  Uiso   1.00
H75    H     0.08833   0.30927   0.09752   0.00000  Uiso   1.00
N76    N     0.20576   0.03509   0.03492   0.00000  Uiso   1.00
N77    N     0.21728   0.00652   0.20724   0.00000  Uiso   1.00
N78    N     0.19922   0.05117   0.46654   0.00000  Uiso   1.00
O79    O     0.16667   0.16667   0.25000   0.00000  Uiso   1.00
O80    O     0.15693   0.12393   0.16625   0.00000  Uiso   1.00
O81    O     0.12687   0.20646   0.33749   0.00000  Uiso   1.00
O82    O     0.21088   0.17493   0.15877   0.00000  Uiso   1.00
O83    O     0.17198   0.16135   0.33749   0.00000  Uiso   1.00
O84    O     0.17849   0.08101   0.27821   0.00000  Uiso   1.00
O85    O     0.14581   0.26136   0.26767   0.00000  Uiso   1.00
O86    O     0.07452   0.13251   0.23607   0.00000  Uiso   1.00
O87    O     0.26785   0.19179   0.21806   0.00000  Uiso   1.00
O88    O     0.06990   0.18960   0.27820   0.00000  Uiso   1.00
O89    O     0.25440   0.15277   0.26768   0.00000  Uiso   1.00
O90    O     0.13800   0.06903   0.23607   0.00000  Uiso   1.00
O91    O     0.20437   0.25527   0.21805   0.00000  Uiso   1.00
Zn92   Zn    0.19244   0.14090   0.28278   0.00000  Uiso   1.00
Zn93   Zn    0.13459   0.12378   0.22258   0.00000  Uiso   1.00
Zn94   Zn    0.21166   0.19664   0.21188   0.00000  Uiso   1.00
Zn95   Zn    0.12798   0.20535   0.28277   0.00000  Uiso   1.00
C96    C     0.38573   0.15955   0.25919   0.00000  Uiso   1.00
C97    C     0.50795   0.11759   0.46478   0.00000  Uiso   1.00
C98    C     0.52007   0.09090   0.48597   0.00000  Uiso   1.00
C99    C     0.61459   0.17339   0.24076   0.00000  Uiso   1.00
C100   C     0.52149   0.10409   0.02516   0.00000  Uiso   1.00
C101   C     0.51288   0.14564   0.04133   0.00000  Uiso   1.00
C102   C     0.53198   0.07774   0.04860   0.00000  Uiso   1.00
C103   C     0.53285   0.09264   0.08704   0.00000  Uiso   1.00
C104   C     0.52582   0.16283   0.07590   0.00000  Uiso   1.00
C105   C     0.66111   0.17525   0.23541   0.00000  Uiso   1.00
C106   C     0.34070   0.15817   0.26159   0.00000  Uiso   1.00
C107   C     0.47330   0.24230   0.41453   0.00000  Uiso   1.00
C108   C     0.51474   0.32215   0.23725   0.00000  Uiso   1.00
C109   C     0.48528   0.01201   0.26171   0.00000  Uiso   1.00
C110   C     0.48881   0.05618   0.25924   0.00000  Uiso   1.00
C111   C     0.51031   0.27770   0.24116   0.00000  Uiso   1.00
C112   C     0.52109   0.14565   0.14374   0.00000  Uiso   1.00
C113   C     0.47889   0.18781   0.35618   0.00000  Uiso   1.00
C114   C     0.47335   0.19966   0.39874   0.00000  Uiso   1.00
C115   C     0.52968   0.13469   0.10096   0.00000  Uiso   1.00
C116   C     0.46662   0.25226   0.45514   0.00000  Uiso   1.00
C117   C     0.44427   0.27291   0.04115   0.00000  Uiso   1.00
C118   C     0.46972   0.16843   0.42399   0.00000  Uiso   1.00
C119   C     0.43489   0.27900   0.08614   0.00000  Uiso   1.00
C120   C     0.35951   0.19613   0.20080   0.00000  Uiso   1.00
C121   C     0.37092   0.24261   0.21228   0.00000  Uiso   1.00
C122   C     0.54356   0.20904   0.08230   0.00000  Uiso   1.00
C123   C     0.57602   0.22503   0.04509   0.00000  Uiso   1.00
C124   C     0.48068   0.27835   0.38956   0.00000  Uiso   1.00
C125   C     0.43797   0.29252   0.39010   0.00000  Uiso   1.00
C126   C     0.44287   0.12621   0.41793   0.00000  Uiso   1.00
C127   C     0.46443   0.09509   0.38394   0.00000  Uiso   1.00
C128   C     0.47664   0.18134   0.46177   0.00000  Uiso   1.00
C129   C     0.46843   0.22235   0.47926   0.00000  Uiso   1.00
C130   C     0.49154   0.15521   0.48269   0.00000  Uiso   1.00
C131   C     0.49286   0.16865   0.02187   0.00000  Uiso   1.00
C132   C     0.47199   0.20354   0.04141   0.00000  Uiso   1.00
C133   C     0.46208   0.23228   0.02044   0.00000  Uiso   1.00
H134   H     0.65098   0.14410   0.28655   0.00000  Uiso   1.00
H135   H     0.46773   0.29976   0.02934   0.00000  Uiso   1.00
H136   H     0.41360   0.27449   0.03401   0.00000  Uiso   1.00
H137   H     0.57019   0.03144   0.03552   0.00000  Uiso   1.00
H138   H     0.51714   0.01590   0.05483   0.00000  Uiso   1.00
H139   H     0.34131   0.25872   0.22206   0.00000  Uiso   1.00
H140   H     0.38674   0.24700   0.23647   0.00000  Uiso   1.00
H141   H     0.39360   0.25711   0.18639   0.00000  Uiso   1.00
H142   H     0.38956   0.18077   0.18962   0.00000  Uiso   1.00
H143   H     0.34528   0.19274   0.17559   0.00000  Uiso   1.00
H144   H     0.53858   0.02011   0.18838   0.00000  Uiso   1.00
H145   H     0.45819   0.33184   0.28426   0.00000  Uiso   1.00
H146   H     0.56892   0.02996   0.22077   0.00000  Uiso   1.00
H147   H     0.60132   0.20365   0.03265   0.00000  Uiso   1.00
H148   H     0.56000   0.22786   0.02229   0.00000  Uiso   1.00
H149   H     0.59193   0.25660   0.05269   0.00000  Uiso   1.00
H150   H     0.51786   0.22973   0.09443   0.00000  Uiso   1.00
H151   H     0.56200   0.21356   0.10439   0.00000  Uiso   1.00
H152   H     0.55830   0.05642   0.44137   0.00000  Uiso   1.00
H153   H     0.50648   0.03443   0.45739   0.00000  Uiso   1.00
H154   H     0.44437   0.31742   0.37004   0.00000  Uiso   1.00
H155   H     0.41653   0.26601   0.38005   0.00000  Uiso   1.00
H156   H     0.53651   0.07115   0.10620   0.00000  Uiso   1.00
H157   H     0.42116   0.30530   0.42040   0.00000  Uiso   1.00
H158   H     0.50053   0.30530   0.40120   0.00000  Uiso   1.00
H159   H     0.49985   0.27042   0.35873   0.00000  Uiso   1.00
H160   H     0.50022   0.10102   0.37583   0.00000  Uiso   1.00
H161   H     0.45461   0.06271   0.39256   0.00000  Uiso   1.00
H162   H     0.45346   0.09650   0.35750   0.00000  Uiso   1.00
H163   H     0.43236   0.11057   0.44558   0.00000  Uiso   1.00
H164   H     0.41228   0.13224   0.41301   0.00000  Uiso   1.00
H165   H     0.46314   0.28446   0.46699   0.00000  Uiso   1.00
H166   H     0.46358   0.20800   0.07311   0.00000  Uiso   1.00
H167   H     0.51170   0.10812   0.43403   0.00000  Uiso   1.00
H168   H     0.41048   0.25358   0.09977   0.00000  Uiso   1.00
H169   H     0.46508   0.28006   0.09489   0.00000  Uiso   1.00
H170   H     0.42166   0.30927   0.09752   0.00000  Uiso   1.00
N171   N     0.53909   0.03509   0.03492   0.00000  Uiso   1.00
N172   N     0.55061   0.00652   0.20724   0.00000  Uiso   1.00
N173   N     0.53256   0.05117   0.46654   0.00000  Uiso   1.00
O174   O     0.50000   0.16667   0.25000   0.00000  Uiso   1.00
O175   O     0.49027   0.12393   0.16625   0.00000  Uiso   1.00
O176   O     0.46020   0.20646   0.33749   0.00000  Uiso   1.00
O177   O     0.54421   0.17493   0.15877   0.00000  Uiso   1.00
O178   O     0.50532   0.16135   0.33749   0.00000  Uiso   1.00
O179   O     0.51182   0.08101   0.27821   0.00000  Uiso   1.00
O180   O     0.47914   0.26136   0.26767   0.00000  Uiso   1.00
O181   O     0.40785   0.13251   0.23607   0.00000  Uiso   1.00
O182   O     0.60119   0.19179   0.21806   0.00000  Uiso   1.00
O183   O     0.40323   0.18960   0.27820   0.00000  Uiso   1.00
O184   O     0.58773   0.15277   0.26768   0.00000  Uiso   1.00
O185   O     0.47133   0.06903   0.23607   0.00000  Uiso   1.00
O186   O     0.53771   0.25527   0.21805   0.00000  Uiso   1.00
Zn187  Zn    0.52577   0.14090   0.28278   0.00000  Uiso   1.00
Zn188  Zn    0.46792   0.12378   0.22258   0.00000  Uiso   1.00
Zn189  Zn    0.54500   0.19664   0.21188   0.00000  Uiso   1.00
Zn190  Zn    0.46131   0.20535   0.28277   0.00000  Uiso   1.00
C191   C     0.71907   0.15955   0.25919   0.00000  Uiso   1.00
C192   C     0.84128   0.11759   0.46478   0.00000  Uiso   1.00
C193   C     0.85341   0.09090   0.48597   0.00000  Uiso   1.00
C194   C     0.94792   0.17339   0.24076   0.00000  Uiso   1.00
C195   C     0.85483   0.10409   0.02516   0.00000  Uiso   1.00
C196   C     0.84621   0.14564   0.04133   0.00000  Uiso   1.00
C197   C     0.86531   0.07774   0.04860   0.00000  Uiso   1.00
C198   C     0.86619   0.09264   0.08704   0.00000  Uiso   1.00
C199   C     0.85915   0.16283   0.07590   0.00000  Uiso   1.00
C200   C     0.99444   0.17525   0.23541   0.00000  Uiso   1.00
C201   C     0.67404   0.15817   0.26159   0.00000  Uiso   1.00
C202   C     0.80664   0.24230   0.41453   0.00000  Uiso   1.00
C203   C     0.84807   0.32215   0.23725   0.00000  Uiso   1.00
C204   C     0.81862   0.01201   0.26171   0.00000  Uiso   1.00
C205   C     0.82214   0.05618   0.25924   0.00000  Uiso   1.00
C206   C     0.84364   0.27770   0.24116   0.00000  Uiso   1.00
C207   C     0.85443   0.14565   0.14374   0.00000  Uiso   1.00
C208   C     0.81223   0.18781   0.35618   0.00000  Uiso   1.00
C209   C     0.80668   0.19966   0.39874   0.00000  Uiso   1.00
C210   C     0.86302   0.13469   0.10096   0.00000  Uiso   1.00
C211   C     0.79995   0.25226   0.45514   0.00000  Uiso   1.00
C212   C     0.77760   0.27291   0.04115   0.00000  Uiso   1.00
C213   C     0.80306   0.16843   0.42399   0.00000  Uiso   1.00
C214   C     0.76823   0.27900   0.08614   0.00000  Uiso   1.00
C215   C     0.69284   0.19613   0.20080   0.00000  Uiso   1.00
C216   C     0.70425   0.24261   0.21228   0.00000  Uiso   1.00
C217   C     0.87689   0.20904   0.08230   0.00000  Uiso   1.00
C218   C     0.90935   0.22503   0.04509   0.00000  Uiso   1.00
C219   C     0.81401   0.27835   0.38956   0.00000  Uiso   1.00
C220   C     0.77130   0.29252   0.39010   0.00000  Uiso   1.00
C221   C     0.77620   0.12621   0.41793   0.00000  Uiso   1.00
C222   C     0.79777   0.09509   0.38394   0.00000  Uiso   1.00
C223   C     0.80998   0.18134   0.46177   0.00000  Uiso   1.00
C224   C     0.80177   0.22235   0.47926   0.00000  Uiso   1.00
C225   C     0.82487   0.15521   0.48269   0.00000  Uiso   1.00
C226   C     0.82619   0.16865   0.02187   0.00000  Uiso   1.00
C227   C     0.80532   0.20354   0.04141   0.00000  Uiso   1.00
C228   C     0.79542   0.23228   0.02044   0.00000  Uiso   1.00
H229   H     0.98432   0.14410   0.28655   0.00000  Uiso   1.00
H230   H     0.80106   0.29976   0.02934   0.00000  Uiso   1.00
H231   H     0.74693   0.27449   0.03401   0.00000  Uiso   1.00
H232   H     0.90352   0.03144   0.03552   0.00000  Uiso   1.00
H233   H     0.85047   0.01590   0.05483   0.00000  Uiso   1.00
H234   H     0.67465   0.25872   0.22206   0.00000  Uiso   1.00
H235   H     0.72008   0.24700   0.23647   0.00000  Uiso   1.00
H236   H     0.72693   0.25711   0.18639   0.00000  Uiso   1.00
H237   H     0.72290   0.18077   0.18962   0.00000  Uiso   1.00
H238   H     0.67862   0.19274   0.17559   0.00000  Uiso   1.00
H239   H     0.87191   0.02011   0.18838   0.00000  Uiso   1.00
H240   H     0.79152   0.33184   0.28426   0.00000  Uiso   1.00
H241   H     0.90226   0.02996   0.22077   0.00000  Uiso   1.00
H242   H     0.93465   0.20365   0.03265   0.00000  Uiso   1.00
H243   H     0.89333   0.22786   0.02229   0.00000  Uiso   1.00
H244   H     0.92526   0.25660   0.05269   0.00000  Uiso   1.00
H245   H     0.85120   0.22973   0.09443   0.00000  Uiso   1.00
H246   H     0.89534   0.21356   0.10439   0.00000  Uiso   1.00
H247   H     0.89163   0.05642   0.44137   0.00000  Uiso   1.00
H248   H     0.83982   0.03443   0.45739   0.00000  Uiso   1.00
H249   H     0.77770   0.31742   0.37004   0.00000  Uiso   1.00
H250   H     0.74986   0.26601   0.38005   0.00000  Uiso   1.00
H251   H     0.86984   0.07115   0.10620   0.00000  Uiso   1.00
H252   H     0.75449   0.30530   0.42040   0.00000  Uiso   1.00
H253   H     0.83386   0.30530   0.40120   0.00000  Uiso   1.00
H254   H     0.83318   0.27042   0.35873   0.00000  Uiso   1.00
H255   H     0.83356   0.10102   0.37583   0.00000  Uiso   1.00
H256   H     0.78794   0.06271   0.39256   0.00000  Uiso   1.00
H257   H     0.78679   0.09650   0.35750   0.00000  Uiso   1.00
H258   H     0.76569   0.11057   0.44558   0.00000  Uiso   1.00
H259   H     0.74561   0.13224   0.41301   0.00000  Uiso   1.00
H260   H     0.79647   0.28446   0.46699   0.00000  Uiso   1.00
H261   H     0.79692   0.20800   0.07311   0.00000  Uiso   1.00
H262   H     0.84503   0.10812   0.43403   0.00000  Uiso   1.00
H263   H     0.74381   0.25358   0.09977   0.00000  Uiso   1.00
H264   H     0.79841   0.28006   0.09489   0.00000  Uiso   1.00
H265   H     0.75499   0.30927   0.09752   0.00000  Uiso   1.00
N266   N     0.87242   0.03509   0.03492   0.00000  Uiso   1.00
N267   N     0.88394   0.00652   0.20724   0.00000  Uiso   1.00
N268   N     0.86589   0.05117   0.46654   0.00000  Uiso   1.00
O269   O     0.83333   0.16667   0.25000   0.00000  Uiso   1.00
O270   O     0.82360   0.12393   0.16625   0.00000  Uiso   1.00
O271   O     0.79354   0.20646   0.33749   0.00000  Uiso   1.00
O272   O     0.87755   0.17493   0.15877   0.00000  Uiso   1.00
O273   O     0.83865   0.16135   0.33749   0.00000  Uiso   1.00
O274   O     0.84515   0.08101   0.27821   0.00000  Uiso   1.00
O275   O     0.81247   0.26136   0.26767   0.00000  Uiso   1.00
O276   O     0.74119   0.13251   0.23607   0.00000  Uiso   1.00
O277   O     0.93452   0.19179   0.21806   0.00000  Uiso   1.00
O278   O     0.73656   0.18960   0.27820   0.00000  Uiso   1.00
O279   O     0.92106   0.15277   0.26768   0.00000  Uiso   1.00
O280   O     0.80467   0.06903   0.23607   0.00000  Uiso   1.00
O281   O     0.87104   0.25527   0.21805   0.00000  Uiso   1.00
Zn282  Zn    0.85910   0.14090   0.28278   0.00000  Uiso   1.00
Zn283  Zn    0.80125   0.12378   0.22258   0.00000  Uiso   1.00
Zn284  Zn    0.87833   0.19664   0.21188   0.00000  Uiso   1.00
Zn285  Zn    0.79465   0.20535   0.28277   0.00000  Uiso   1.00
C286   C     0.05240   0.49288   0.25919   0.00000  Uiso   1.00
C287   C     0.17462   0.45092   0.46478   0.00000  Uiso   1.00
C288   C     0.18674   0.42423   0.48597   0.00000  Uiso   1.00
C289   C     0.28126   0.50672   0.24076   0.00000  Uiso   1.00
C290   C     0.18816   0.43743   0.02516   0.00000  Uiso   1.00
C291   C     0.17955   0.47897   0.04133   0.00000  Uiso   1.00
C292   C     0.19865   0.41107   0.04860   0.00000  Uiso   1.00
C293   C     0.19952   0.42597   0.08704   0.00000  Uiso   1.00
C294   C     0.19248   0.49617   0.07590   0.00000  Uiso   1.00
C295   C     0.32778   0.50859   0.23541   0.00000  Uiso   1.00
C296   C     0.00737   0.49150   0.26159   0.00000  Uiso   1.00
C297   C     0.13997   0.57563   0.41453   0.00000  Uiso   1.00
C298   C     0.18141   0.65549   0.23725   0.00000  Uiso   1.00
C299   C     0.15195   0.34535   0.26171   0.00000  Uiso   1.00
C300   C     0.15547   0.38951   0.25924   0.00000  Uiso   1.00
C301   C     0.17698   0.61103   0.24116   0.00000  Uiso   1.00
C302   C     0.18776   0.47899   0.14374   0.00000  Uiso   1.00
C303   C     0.14556   0.52114   0.35618   0.00000  Uiso   1.00
C304   C     0.14002   0.53299   0.39874   0.00000  Uiso   1.00
C305   C     0.19635   0.46802   0.10096   0.00000  Uiso   1.00
C306   C     0.13329   0.58559   0.45514   0.00000  Uiso   1.00
C307   C     0.11094   0.60625   0.04115   0.00000  Uiso   1.00
C308   C     0.13639   0.50177   0.42399   0.00000  Uiso   1.00
C309   C     0.10156   0.61234   0.08614   0.00000  Uiso   1.00
C310   C     0.02618   0.52946   0.20080   0.00000  Uiso   1.00
C311   C     0.03759   0.57595   0.21228   0.00000  Uiso   1.00
C312   C     0.21023   0.54238   0.08230   0.00000  Uiso   1.00
C313   C     0.24269   0.55836   0.04509   0.00000  Uiso   1.00
C314   C     0.14734   0.61169   0.38956   0.00000  Uiso   1.00
C315   C     0.10463   0.62585   0.39010   0.00000  Uiso   1.00
C316   C     0.10954   0.45955   0.41793   0.00000  Uiso   1.00
C317   C     0.13110   0.42843   0.38394   0.00000  Uiso   1.00
C318   C     0.14331   0.51467   0.46177   0.00000  Uiso   1.00
C319   C     0.13510   0.55568   0.47926   0.00000  Uiso   1.00
C320   C     0.15820   0.48854   0.48269   0.00000  Uiso   1.00
C321   C     0.15953   0.50198   0.02187   0.00000  Uiso   1.00
C322   C     0.13866   0.53688   0.04141   0.00000  Uiso   1.00
C323   C     0.12875   0.56562   0.02044   0.00000  Uiso   1.00
H324   H     0.31765   0.47744   0.28655   0.00000  Uiso   1.00
H325   H     0.13439   0.63309   0.02934   0.00000  Uiso   1.00
H326   H     0.08027   0.60783   0.03401   0.00000  Uiso   1.00
H327   H     0.23686   0.36477   0.03552   0.00000  Uiso   1.00
H328   H     0.18380   0.34924   0.05483   0.00000  Uiso   1.00
H329   H     0.00798   0.59206   0.22206   0.00000  Uiso   1.00
H330   H     0.05341   0.58033   0.23647   0.00000  Uiso   1.00
H331   H     0.06026   0.59044   0.18639   0.00000  Uiso   1.00
H332   H     0.05623   0.51410   0.18962   0.00000  Uiso   1.00
H333   H     0.01195   0.52607   0.17559   0.00000  Uiso   1.00
H334   H     0.20524   0.35344   0.18838   0.00000  Uiso   1.00
H335   H     0.12486   0.66518   0.28426   0.00000  Uiso   1.00
H336   H     0.23559   0.36330   0.22077   0.00000  Uiso   1.00
H337   H     0.26798   0.53699   0.03265   0.00000  Uiso   1.00
H338   H     0.22666   0.56120   0.02229   0.00000  Uiso   1.00
H339   H     0.25860   0.58993   0.05269   0.00000  Uiso   1.00
H340   H     0.18453   0.56306   0.09443   0.00000  Uiso   1.00
H341   H     0.22867   0.54689   0.10439   0.00000  Uiso   1.00
H342   H     0.22496   0.38975   0.44137   0.00000  Uiso   1.00
H343   H     0.17315   0.36776   0.45739   0.00000  Uiso   1.00
H344   H     0.11104   0.65075   0.37004   0.00000  Uiso   1.00
H345   H     0.08319   0.59934   0.38005   0.00000  Uiso   1.00
H346   H     0.20318   0.40448   0.10620   0.00000  Uiso   1.00
H347   H     0.08782   0.63864   0.42040   0.00000  Uiso   1.00
H348   H     0.16720   0.63863   0.40120   0.00000  Uiso   1.00
H349   H     0.16652   0.60375   0.35873   0.00000  Uiso   1.00
H350   H     0.16689   0.43435   0.37583   0.00000  Uiso   1.00
H351   H     0.12128   0.39605   0.39256   0.00000  Uiso   1.00
H352   H     0.12012   0.42983   0.35750   0.00000  Uiso   1.00
H353   H     0.09902   0.44390   0.44558   0.00000  Uiso   1.00
H354   H     0.07894   0.46558   0.41301   0.00000  Uiso   1.00
H355   H     0.12981   0.61779   0.46699   0.00000  Uiso   1.00
H356   H     0.13025   0.54133   0.07311   0.00000  Uiso   1.00
H357   H     0.17837   0.44146   0.43403   0.00000  Uiso   1.00
H358   H     0.07715   0.58691   0.09977   0.00000  Uiso   1.00
H359   H     0.13174   0.61340   0.09489   0.00000  Uiso   1.00
H360   H     0.08833   0.64260   0.09752   0.00000  Uiso   1.00
N361   N     0.20576   0.36843   0.03492   0.00000  Uiso   1.00
N362   N     0.21728   0.33985   0.20724   0.00000  Uiso   1.00
N363   N     0.19922   0.38450   0.46654   0.00000  Uiso   1.00
O364   O     0.16667   0.50000   0.25000   0.00000  Uiso   1.00
O365   O     0.15693   0.45726   0.16625   0.00000  Uiso   1.00
O366   O     0.12687   0.53979   0.33749   0.00000  Uiso   1.00
O367   O     0.21088   0.50826   0.15877   0.00000  Uiso   1.00
O368   O     0.17198   0.49468   0.33749   0.00000  Uiso   1.00
O369   O     0.17849   0.41434   0.27821   0.00000  Uiso   1.00
O370   O     0.14581   0.59469   0.26767   0.00000  Uiso   1.00
O371   O     0.07452   0.46584   0.23607   0.00000  Uiso   1.00
O372   O     0.26785   0.52512   0.21806   0.00000  Uiso   1.00
O373   O     0.06990   0.52293   0.27820   0.00000  Uiso   1.00
O374   O     0.25440   0.48610   0.26768   0.00000  Uiso   1.00
O375   O     0.13800   0.40236   0.23607   0.00000  Uiso   1.00
O376   O     0.20437   0.58860   0.21805   0.00000  Uiso   1.00
Zn377  Zn    0.19244   0.47423   0.28278   0.00000  Uiso   1.00
Zn378  Zn    0.13459   0.45711   0.22258   0.00000  Uiso   1.00
Zn379  Zn    0.21166   0.52997   0.21188   0.00000  Uiso   1.00
Zn380  Zn    0.12798   0.53868   0.28277   0.00000  Uiso   1.00
C381   C     0.38573   0.49288   0.25919   0.00000  Uiso   1.00
C382   C     0.50795   0.45092   0.46478   0.00000  Uiso   1.00
C383   C     0.52007   0.42423   0.48597   0.00000  Uiso   1.00
C384   C     0.61459   0.50672   0.24076   0.00000  Uiso   1.00
C385   C     0.52149   0.43743   0.02516   0.00000  Uiso   1.00
C386   C     0.51288   0.47897   0.04133   0.00000  Uiso   1.00
C387   C     0.53198   0.41107   0.04860   0.00000  Uiso   1.00
C388   C     0.53285   0.42597   0.08704   0.00000  Uiso   1.00
C389   C     0.52582   0.49617   0.07590   0.00000  Uiso   1.00
C390   C     0.66111   0.50859   0.23541   0.00000  Uiso   1.00
C391   C     0.34070   0.49150   0.26159   0.00000  Uiso   1.00
C392   C     0.47330   0.57563   0.41453   0.00000  Uiso   1.00
C393   C     0.51474   0.65549   0.23725   0.00000  Uiso   1.00
C394   C     0.48528   0.34535   0.26171   0.00000  Uiso   1.00
C395   C     0.48881   0.38951   0.25924   0.00000  Uiso   1.00
C396   C     0.51031   0.61103   0.24116   0.00000  Uiso   1.00
C397   C     0.52109   0.47899   0.14374   0.00000  Uiso   1.00
C398   C     0.47889   0.52114   0.35618   0.00000  Uiso   1.00
C399   C     0.47335   0.53299   0.39874   0.00000  Uiso   1.00
C400   C     0.52968   0.46802   0.10096   0.00000  Uiso   1.00
C401   C     0.46662   0.58559   0.45514   0.00000  Uiso   1.00
C402   C     0.44427   0.60625   0.04115   0.00000  Uiso   1.00
C403   C     0.46972   0.50177   0.42399   0.00000  Uiso   1.00
C404   C     0.43489   0.61234   0.08614   0.00000  Uiso   1.00
C405   C     0.35951   0.52946   0.20080   0.00000  Uiso   1.00
C406   C     0.37092   0.57595   0.21228   0.00000  Uiso   1.00
C407   C     0.54356   0.54238   0.08230   0.00000  Uiso   1.00
C408   C     0.57602   0.55836   0.04509   0.00000  Uiso   1.00
C409   C     0.48068   0.61169   0.38956   0.00000  Uiso   1.00
C410   C     0.43797   0.62585   0.39010   0.00000  Uiso   1.00
C411   C     0.44287   0.45955   0.41793   0.00000  Uiso   1.00
C412   C     0.46443   0.42843   0.38394   0.00000  Uiso   1.00
C413   C     0.47664   0.51467   0.46177   0.00000  Uiso   1.00
C414   C     0.46843   0.55568   0.47926   0.00000  Uiso   1.00
C415   C     0.49154   0.48854   0.48269   0.00000  Uiso   1.00
C416   C     0.49286   0.50198   0.02187   0.00000  Uiso   1.00
C417   C     0.47199   0.53688   0.04141   0.00000  Uiso   1.00
C418   C     0.46208   0.56562   0.02044   0.00000  Uiso   1.00
H419   H     0.65098   0.47744   0.28655   0.00000  Uiso   1.00
H420   H     0.46773   0.63309   0.02934   0.00000  Uiso   1.00
H421   H     0.41360   0.60783   0.03401   0.00000  Uiso   1.00
H422   H     0.57019   0.36477   0.03552   0.00000  Uiso   1.00
H423   H     0.51714   0.34924   0.05483   0.00000  Uiso   1.00
H424   H     0.34131   0.59206   0.22206   0.00000  Uiso   1.00
H425   H     0.38674   0.58033   0.23647   0.00000  Uiso   1.00
H426   H     0.39360   0.59044   0.18639   0.00000  Uiso   1.00
H427   H     0.38956   0.51410   0.18962   0.00000  Uiso   1.00
H428   H     0.34528   0.52607   0.17559   0.00000  Uiso   1.00
H429   H     0.53858   0.35344   0.18838   0.00000  Uiso   1.00
H430   H     0.45819   0.66518   0.28426   0.00000  Uiso   1.00
H431   H     0.56892   0.36330   0.22077   0.00000  Uiso   1.00
H432   H     0.60132   0.53699   0.03265   0.00000  Uiso   1.00
H433   H     0.56000   0.56120   0.02229   0.00000  Uiso   1.00
H434   H     0.59193   0.58993   0.05269   0.00000  Uiso   1.00
H435   H     0.51786   0.56306   0.09443   0.00000  Uiso   1.00
H436   H     0.56200   0.54689   0.10439   0.00000  Uiso   1.00
H437   H     0.55830   0.38975   0.44137   0.00000  Uiso   1.00
H438   H     0.50648   0.36776   0.45739   0.00000  Uiso   1.00
H439   H     0.44437   0.65075   0.37004   0.00000  Uiso   1.00
H440   H     0.41653   0.59934   0.38005   0.00000  Uiso   1.00
H441   H     0.53651   0.40448   0.10620   0.00000  Uiso   1.00
H442   H     0.42116   0.63864   0.42040   0.00000  Uiso   1.00
H443   H     0.50053   0.63863   0.40120   0.00000  Uiso   1.00
H444   H     0.49985   0.60375   0.35873   0.00000  Uiso   1.00
H445   H     0.50022   0.43435   0.37583   0.00000  Uiso   1.00
H446   H     0.45461   0.39605   0.39256   0.00000  Uiso   1.00
H447   H     0.45346   0.42983   0.35750   0.00000  Uiso   1.00
H448   H     0.43236   0.44390   0.44558   0.00000  Uiso   1.00
H449   H     0.41228   0.46558   0.41301   0.00000  Uiso   1.00
H450   H     0.46314   0.61779   0.46699   0.00000  Uiso   1.00
H451   H     0.46358   0.54133   0.07311   0.00000  Uiso   1.00
H452   H     0.51170   0.44146   0.43403   0.00000  Uiso   1.00
H453   H     0.41048   0.58691   0.09977   0.00000  Uiso   1.00
H454   H     0.46508   0.61340   0.09489   0.00000  Uiso   1.00
H455   H     0.42166   0.64260   0.09752   0.00000  Uiso   1.00
N456   N     0.53909   0.36843   0.03492   0.00000  Uiso   1.00
N457   N     0.55061   0.33985   0.20724   0.00000  Uiso   1.00
N458   N     0.53256   0.38450   0.46654   0.00000  Uiso   1.00
O459   O     0.50000   0.50000   0.25000   0.00000  Uiso   1.00
O460   O     0.49027   0.45726   0.16625   0.00000  Uiso   1.00
O461   O     0.46020   0.53979   0.33749   0.00000  Uiso   1.00
O462   O     0.54421   0.50826   0.15877   0.00000  Uiso   1.00
O463   O     0.50532   0.49468   0.33749   0.00000  Uiso   1.00
O464   O     0.51182   0.41434   0.27821   0.00000  Uiso   1.00
O465   O     0.47914   0.59469   0.26767   0.00000  Uiso   1.00
O466   O     0.40785   0.46584   0.23607   0.00000  Uiso   1.00
O467   O     0.60119   0.52512   0.21806   0.00000  Uiso   1.00
O468   O     0.40323   0.52293   0.27820   0.00000  Uiso   1.00
O469   O     0.58773   0.48610   0.26768   0.00000  Uiso   1.00
O470   O     0.47133   0.40236   0.23607   0.00000  Uiso   1.00
O471   O     0.53771   0.58860   0.21805   0.00000  Uiso   1.00
Zn472  Zn    0.52577   0.47423   0.28278   0.00000  Uiso   1.00
Zn473  Zn    0.46792   0.45711   0.22258   0.00000  Uiso   1.00
Zn474  Zn    0.54500   0.52997   0.21188   0.00000  Uiso   1.00
Zn475  Zn    0.46131   0.53868   0.28277   0.00000  Uiso   1.00
C476   C     0.71907   0.49288   0.25919   0.00000  Uiso   1.00
C477   C     0.84128   0.45092   0.46478   0.00000  Uiso   1.00
C478   C     0.85341   0.42423   0.48597   0.00000  Uiso   1.00
C479   C     0.94792   0.50672   0.24076   0.00000  Uiso   1.00
C480   C     0.85483   0.43743   0.02516   0.00000  Uiso   1.00
C481   C     0.84621   0.47897   0.04133   0.00000  Uiso   1.00
C482   C     0.86531   0.41107   0.04860   0.00000  Uiso   1.00
C483   C     0.86619   0.42597   0.08704   0.00000  Uiso   1.00
C484   C     0.85915   0.49617   0.07590   0.00000  Uiso   1.00
C485   C     0.99444   0.50859   0.23541   0.00000  Uiso   1.00
C486   C     0.67404   0.49150   0.26159   0.00000  Uiso   1.00
C487   C     0.80664   0.57563   0.41453   0.00000  Uiso   1.00
C488   C     0.84807   0.65549   0.23725   0.00000  Uiso   1.00
C489   C     0.81862   0.34535   0.26171   0.00000  Uiso   1.00
C490   C     0.82214   0.38951   0.25924   0.00000  Uiso   1.00
C491   C     0.84364   0.61103   0.24116   0.00000  Uiso   1.00
C492   C     0.85443   0.47899   0.14374   0.00000  Uiso   1.00
C493   C     0.81223   0.52114   0.35618   0.00000  Uiso   1.00
C494   C     0.80668   0.53299   0.39874   0.00000  Uiso   1.00
C495   C     0.86302   0.46802   0.10096   0.00000  Uiso   1.00
C496   C     0.79995   0.58559   0.45514   0.00000  Uiso   1.00
C497   C     0.77760   0.60625   0.04115   0.00000  Uiso   1.00
C498   C     0.80306   0.50177   0.42399   0.00000  Uiso   1.00
C499   C     0.76823   0.61234   0.08614   0.00000  Uiso   1.00
C500   C     0.69284   0.52946   0.20080   0.00000  Uiso   1.00
C501   C     0.70425   0.57595   0.21228   0.00000  Uiso   1.00
C502   C     0.87689   0.54238   0.08230   0.00000  Uiso   1.00
C503   C     0.90935   0.55836   0.04509   0.00000  Uiso   1.00
C504   C     0.81401   0.61169   0.38956   0.00000  Uiso   1.00
C505   C     0.77130   0.62585   0.39010   0.00000  Uiso   1.00
C506   C     0.77620   0.45955   0.41793   0.00000  Uiso   1.00
C507   C     0.79777   0.42843   0.38394   0.00000  Uiso   1.00
C508   C     0.80998   0.51467   0.46177   0.00000  Uiso   1.00
C509   C     0.80177   0.55568   0.47926   0.00000  Uiso   1.00
C510   C     0.82487   0.48854   0.48269   0.00000  Uiso   1.00
C511   C     0.82619   0.50198   0.02187   0.00000  Uiso   1.00
C512   C     0.80532   0.53688   0.04141   0.00000  Uiso   1.00
C513   C     0.79542   0.56562   0.02044   0.00000  Uiso   1.00
H514   H     0.98432   0.47744   0.28655   0.00000  Uiso   1.00
H515   H     0.80106   0.63309   0.02934   0.00000  Uiso   1.00
H516   H     0.74693   0.60783   0.03401   0.00000  Uiso   1.00
H517   H     0.90352   0.36477   0.03552   0.00000  Uiso   1.00
H518   H     0.85047   0.34924   0.05483   0.00000  Uiso   1.00
H519   H     0.67465   0.59206   0.22206   0.00000  Uiso   1.00
H520   H     0.72008   0.58033   0.23647   0.00000  Uiso   1.00
H521   H     0.72693   0.59044   0.18639   0.00000  Uiso   1.00
H522   H     0.72290   0.51410   0.18962   0.00000  Uiso   1.00
H523   H     0.67862   0.52607   0.17559   0.00000  Uiso   1.00
H524   H     0.87191   0.35344   0.18838   0.00000  Uiso   1.00
H525   H     0.79152   0.66518   0.28426   0.00000  Uiso   1.00
H526   H     0.90226   0.36330   0.22077   0.00000  Uiso   1.00
H527   H     0.93465   0.53699   0.03265   0.00000  Uiso   1.00
H528   H     0.89333   0.56120   0.02229   0.00000  Uiso   1.00
H529   H     0.92526   0.58993   0.05269   0.00000  Uiso   1.00
H530   H     0.85120   0.56306   0.09443   0.00000  Uiso   1.00
H531   H     0.89534   0.54689   0.10439   0.00000  Uiso   1.00
H532   H     0.89163   0.38975   0.44137   0.00000  Uiso   1.00
H533   H     0.83982   0.36776   0.45739   0.00000  Uiso   1.00
H534   H     0.77770   0.65075   0.37004   0.00000  Uiso   1.00
H535   H     0.74986   0.59934   0.38005   0.00000  Uiso   1.00
H536   H     0.86984   0.40448   0.10620   0.00000  Uiso   1.00
H537   H     0.75449   0.63864   0.42040   0.00000  Uiso   1.00
H538   H     0.83386   0.63863   0.40120   0.00000  Uiso   1.00
H539   H     0.83318   0.60375   0.35873   0.00000  Uiso   1.00
H540   H     0.83356   0.43435   0.37583   0.00000  Uiso   1.00
H541   H     0.78794   0.39605   0.39256   0.00000  Uiso   1.00
H542   H     0.78679   0.42983   0.35750   0.00000  Uiso   1.00
H543   H     0.76569   0.44390   0.44558   0.00000  Uiso   1.00
H544   H     0.74561   0.46558   0.41301   0.00000  Uiso   1.00
H545   H     0.79647   0.61779   0.46699   0.00000  Uiso   1.00
H546   H     0.79692   0.54133   0.07311   0.00000  Uiso   1.00
H547   H     0.84503   0.44146   0.43403   0.00000  Uiso   1.00
H548   H     0.74381   0.58691   0.09977   0.00000  Uiso   1.00
H549   H     0.79841   0.61340   0.09489   0.00000  Uiso   1.00
H550   H     0.75499   0.64260   0.09752   0.00000  Uiso   1.00
N551   N     0.87242   0.36843   0.03492   0.00000  Uiso   1.00
N552   N     0.88394   0.33985   0.20724   0.00000  Uiso   1.00
N553   N     0.86589   0.38450   0.46654   0.00000  Uiso   1.00
O554   O     0.83333   0.50000   0.25000   0.00000  Uiso   1.00
O555   O     0.82360   0.45726   0.16625   0.00000  Uiso   1.00
O556   O     0.79354   0.53979   0.33749   0.00000  Uiso   1.00
O557   O     0.87755   0.50826   0.15877   0.00000  Uiso   1.00
O558   O     0.83865   0.49468   0.33749   0.00000  Uiso   1.00
O559   O     0.84515   0.41434   0.27821   0.00000  Uiso   1.00
O560   O     0.81247   0.59469   0.26767   0.00000  Uiso   1.00
O561   O     0.74119   0.46584   0.23607   0.00000  Uiso   1.00
O562   O     0.93452   0.52512   0.21806   0.00000  Uiso   1.00
O563   O     0.73656   0.52293   0.27820   0.00000  Uiso   1.00
O564   O     0.92106   0.48610   0.26768   0.00000  Uiso   1.00
O565   O     0.80467   0.40236   0.23607   0.00000  Uiso   1.00
O566   O     0.87104   0.58860   0.21805   0.00000  Uiso   1.00
Zn567  Zn    0.85910   0.47423   0.28278   0.00000  Uiso   1.00
Zn568  Zn    0.80125   0.45711   0.22258   0.00000  Uiso   1.00
Zn569  Zn    0.87833   0.52997   0.21188   0.00000  Uiso   1.00
Zn570  Zn    0.79465   0.53868   0.28277   0.00000  Uiso   1.00
C571   C     0.05240   0.82621   0.25919   0.00000  Uiso   1.00
C572   C     0.17462   0.78425   0.46478   0.00000  Uiso   1.00
C573   C     0.18674   0.75757   0.48597   0.00000  Uiso   1.00
C574   C     0.28126   0.84006   0.24076   0.00000  Uiso   1.00
C575   C     0.18816   0.77076   0.02516   0.00000  Uiso   1.00
C576   C     0.17955   0.81231   0.04133   0.00000  Uiso   1.00
C577   C     0.19865   0.74440   0.04860   0.00000  Uiso   1.00
C578   C     0.19952   0.75931   0.08704   0.00000  Uiso   1.00
C579   C     0.19248   0.82950   0.07590   0.00000  Uiso   1.00
C580   C     0.32778   0.84192   0.23541   0.00000  Uiso   1.00
C581   C     0.00737   0.82484   0.26159   0.00000  Uiso   1.00
C582   C     0.13997   0.90897   0.41453   0.00000  Uiso   1.00
C583   C     0.18141   0.98882   0.23725   0.00000  Uiso   1.00
C584   C     0.15195   0.67868   0.26171   0.00000  Uiso   1.00
C585   C     0.15547   0.72284   0.25924   0.00000  Uiso   1.00
C586   C     0.17698   0.94436   0.24116   0.00000  Uiso   1.00
C587   C     0.18776   0.81232   0.14374   0.00000  Uiso   1.00
C588   C     0.14556   0.85448   0.35618   0.00000  Uiso   1.00
C589   C     0.14002   0.86632   0.39874   0.00000  Uiso   1.00
C590   C     0.19635   0.80136   0.10096   0.00000  Uiso   1.00
C591   C     0.13329   0.91893   0.45514   0.00000  Uiso   1.00
C592   C     0.11094   0.93958   0.04115   0.00000  Uiso   1.00
C593   C     0.13639   0.83510   0.42399   0.00000  Uiso   1.00
C594   C     0.10156   0.94567   0.08614   0.00000  Uiso   1.00
C595   C     0.02618   0.86280   0.20080   0.00000  Uiso   1.00
C596   C     0.03759   0.90928   0.21228   0.00000  Uiso   1.00
C597   C     0.21023   0.87571   0.08230   0.00000  Uiso   1.00
C598   C     0.24269   0.89170   0.04509   0.00000  Uiso   1.00
C599   C     0.14734   0.94502   0.38956   0.00000  Uiso   1.00
C600   C     0.10463   0.95919   0.39010   0.00000  Uiso   1.00
C601   C     0.10954   0.79288   0.41793   0.00000  Uiso   1.00
C602   C     0.13110   0.76176   0.38394   0.00000  Uiso   1.00
C603   C     0.14331   0.84800   0.46177   0.00000  Uiso   1.00
C604   C     0.13510   0.88902   0.47926   0.00000  Uiso   1.00
C605   C     0.15820   0.82187   0.48269   0.00000  Uiso   1.00
C606   C     0.15953   0.83532   0.02187   0.00000  Uiso   1.00
C607   C     0.13866   0.87021   0.04141   0.00000  Uiso   1.00
C608   C     0.12875   0.89895   0.02044   0.00000  Uiso   1.00
H609   H     0.31765   0.81077   0.28655   0.00000  Uiso   1.00
H610   H     0.13439   0.96642   0.02934   0.00000  Uiso   1.00
H611   H     0.08027   0.94116   0.03401   0.00000  Uiso   1.00
H612   H     0.23686   0.69811   0.03552   0.00000  Uiso   1.00
H613   H     0.18380   0.68257   0.05483   0.00000  Uiso   1.00
H614   H     0.00798   0.92539   0.22206   0.00000  Uiso   1.00
H615   H     0.05341   0.91367   0.23647   0.00000  Uiso   1.00
H616   H     0.06026   0.92377   0.18639   0.00000  Uiso   1.00
H617   H     0.05623   0.84743   0.18962   0.00000  Uiso   1.00
H618   H     0.01195   0.85940   0.17559   0.00000  Uiso   1.00
H619   H     0.20524   0.68678   0.18838   0.00000  Uiso   1.00
H620   H     0.12486   0.99851   0.28426   0.00000  Uiso   1.00
H621   H     0.23559   0.69663   0.22077   0.00000  Uiso   1.00
H622   H     0.26798   0.87032   0.03265   0.00000  Uiso   1.00
H623   H     0.22666   0.89453   0.02229   0.00000  Uiso   1.00
H624   H     0.25860   0.92327   0.05269   0.00000  Uiso   1.00
H625   H     0.18453   0.89639   0.09443   0.00000  Uiso   1.00
H626   H     0.22867   0.88023   0.10439   0.00000  Uiso   1.00
H627   H     0.22496   0.72309   0.44137   0.00000  Uiso   1.00
H628   H     0.17315   0.70109   0.45739   0.00000  Uiso   1.00
H629   H     0.11104   0.98409   0.37004   0.00000  Uiso   1.00
H630   H     0.08319   0.93268   0.38005   0.00000  Uiso   1.00
H631   H     0.20318   0.73782   0.10620   0.00000  Uiso   1.00
H632   H     0.08782   0.97197   0.42040   0.00000  Uiso   1.00
H633   H     0.16720   0.97197   0.40120   0.00000  Uiso   1.00
H634   H     0.16652   0.93709   0.35873   0.00000  Uiso   1.00
H635   H     0.16689   0.76769   0.37583   0.00000  Uiso   1.00
H636   H     0.12128   0.72938   0.39256   0.00000  Uiso   1.00
H637   H     0.12012   0.76316   0.35750   0.00000  Uiso   1.00
H638   H     0.09902   0.77723   0.44558   0.00000  Uiso   1.00
H639   H     0.07894   0.79891   0.41301   0.00000  Uiso   1.00
H640   H     0.12981   0.95113   0.46699   0.00000  Uiso   1.00
H641   H     0.13025   0.87467   0.07311   0.00000  Uiso   1.00
H642   H     0.17837   0.77479   0.43403   0.00000  Uiso   1.00
H643   H     0.07715   0.92025   0.09977   0.00000  Uiso   1.00
H644   H     0.13174   0.94673   0.09489   0.00000  Uiso   1.00
H645   H     0.08833   0.97593   0.09752   0.00000  Uiso   1.00
N646   N     0.20576   0.70176   0.03492   0.00000  Uiso   1.00
N647   N     0.21728   0.67319   0.20724   0.00000  Uiso   1.00
N648   N     0.19922   0.71783   0.46654   0.00000  Uiso   1.00
O649   O     0.16667   0.83333   0.25000   0.00000  Uiso   1.00
O650   O     0.15693   0.79060   0.16625   0.00000  Uiso   1.00
O651   O     0.12687   0.87313   0.33749   0.00000  Uiso   1.00
O652   O     0.21088   0.84159   0.15877   0.00000  Uiso   1.00
O653   O     0.17198   0.82802   0.33749   0.00000  Uiso   1.00
O654   O     0.17849   0.74768   0.27821   0.00000  Uiso   1.00
O655   O     0.14581   0.92803   0.26767   0.00000  Uiso   1.00
O656   O     0.07452   0.79917   0.23607   0.00000  Uiso   1.00
O657   O     0.26785   0.85845   0.21806   0.00000  Uiso   1.00
O658   O     0.06990   0.85627   0.27820   0.00000  Uiso   1.00
O659   O     0.25440   0.81944   0.26768   0.00000  Uiso   1.00
O660   O     0.13800   0.73570   0.23607   0.00000  Uiso   1.00
O661   O     0.20437   0.92193   0.21805   0.00000  Uiso   1.00
Zn662  Zn    0.19244   0.80756   0.28278   0.00000  Uiso   1.00
Zn663  Zn    0.13459   0.79044   0.22258   0.00000  Uiso   1.00
Zn664  Zn    0.21166   0.86331   0.21188   0.00000  Uiso   1.00
Zn665  Zn    0.12798   0.87202   0.28277   0.00000  Uiso   1.00
C666   C     0.38573   0.82621   0.25919   0.00000  Uiso   1.00
C667   C     0.50795   0.78425   0.46478   0.00000  Uiso   1.00
C668   C     0.52007   0.75757   0.48597   0.00000  Uiso   1.00
C669   C     0.61459   0.84006   0.24076   0.00000  Uiso   1.00
C670   C     0.52149   0.77076   0.02516   0.00000  Uiso   1.00
C671   C     0.51288   0.81231   0.04133   0.00000  Uiso   1.00
C672   C     0.53198   0.74440   0.04860   0.00000  Uiso   1.00
C673   C     0.53285   0.75931   0.08704   0.00000  Uiso   1.00
C674   C     0.52582   0.82950   0.07590   0.00000  Uiso   1.00
C675   C     0.66111   0.84192   0.23541   0.00000  Uiso   1.00
C676   C     0.34070   0.82484   0.26159   0.00000  Uiso   1.00
C677   C     0.47330   0.90897   0.41453   0.00000  Uiso   1.00
C678   C     0.51474   0.98882   0.23725   0.00000  Uiso   1.00
C679   C     0.48528   0.67868   0.26171   0.00000  Uiso   1.00
C680   C     0.48881   0.72284   0.25924   0.00000  Uiso   1.00
C681   C     0.51031   0.94436   0.24116   0.00000  Uiso   1.00
C682   C     0.52109   0.81232   0.14374   0.00000  Uiso   1.00
C683   C     0.47889   0.85448   0.35618   0.00000  Uiso   1.00
C684   C     0.47335   0.86632   0.39874   0.00000  Uiso   1.00
C685   C     0.52968   0.80136   0.10096   0.00000  Uiso   1.00
C686   C     0.46662   0.91893   0.45514   0.00000  Uiso   1.00
C687   C     0.44427   0.93958   0.04115   0.00000  Uiso   1.00
C688   C     0.46972   0.83510   0.42399   0.00000  Uiso   1.00
C689   C     0.43489   0.94567   0.08614   0.00000  Uiso   1.00
C690   C     0.35951   0.86280   0.20080   0.00000  Uiso   1.00
C691   C     0.37092   0.90928   0.21228   0.00000  Uiso   1.00
C692   C     0.54356   0.87571   0.08230   0.00000  Uiso   1.00
C693   C     0.57602   0.89170   0.04509   0.00000  Uiso   1.00
C694   C     0.48068   0.94502   0.38956   0.00000  Uiso   1.00
C695   C     0.43797   0.95919   0.39010   0.00000  Uiso   1.00
C696   C     0.44287   0.79288   0.41793   0.00000  Uiso   1.00
C697   C     0.46443   0.76176   0.38394   0.00000  Uiso   1.00
C698   C     0.47664   0.84800   0.46177   0.00000  Uiso   1.00
C699   C     0.46843   0.88902   0.47926   0.00000  Uiso   1.00
C700   C     0.49154   0.82187   0.48269   0.00000  Uiso   1.00
C701   C     0.49286   0.83532   0.02187   0.00000  Uiso   1.00
C702   C     0.47199   0.87021   0.04141   0.00000  Uiso   1.00
C703   C     0.46208   0.89895   0.02044   0.00000  Uiso   1.00
H704   H     0.65098   0.81077   0.28655   0.00000  Uiso   1.00
H705   H     0.46773   0.96642   0.02934   0.00000  Uiso   1.00
H706   H     0.41360   0.94116   0.03401   0.00000  Uiso   1.00
H707   H     0.57019   0.69811   0.03552   0.00000  Uiso   1.00
H708   H     0.51714   0.68257   0.05483   0.00000  Uiso   1.00
H709   H     0.34131   0.92539   0.22206   0.00000  Uiso   1.00
H710   H     0.38674   0.91367   0.23647   0.00000  Uiso   1.00
H711   H     0.39360   0.92377   0.18639   0.00000  Uiso   1.00
H712   H     0.38956   0.84743   0.18962   0.00000  Uiso   1.00
H713   H     0.34528   0.85940   0.17559   0.00000  Uiso   1.00
H714   H     0.53858   0.68678   0.18838   0.00000  Uiso   1.00
H715   H     0.45819   0.99851   0.28426   0.00000  Uiso   1.00
H716   H     0.56892   0.69663   0.22077   0.00000  Uiso   1.00
H717   H     0.60132   0.87032   0.03265   0.00000  Uiso   1.00
H718   H     0.56000   0.89453   0.02229   0.00000  Uiso   1.00
H719   H     0.59193   0.92327   0.05269   0.00000  Uiso   1.00
H720   H     0.51786   0.89639   0.09443   0.00000  Uiso   1.00
H721   H     0.56200   0.88023   0.10439   0.00000  Uiso   1.00
H722   H     0.55830   0.72309   0.44137   0.00000  Uiso   1.00
H723   H     0.50648   0.70109   0.45739   0.00000  Uiso   1.00
H724   H     0.44437   0.98409   0.37004   0.00000  Uiso   1.00
H725   H     0.41653   0.93268   0.38005   0.00000  Uiso   1.00
H726   H     0.53651   0.73782   0.10620   0.00000  Uiso   1.00
H727   H     0.42116   0.97197   0.42040   0.00000  Uiso   1.00
H728   H     0.50053   0.97197   0.40120   0.00000  Uiso   1.00
H729   H     0.49985   0.93709   0.35873   0.00000  Uiso   1.00
H730   H     0.50022   0.76769   0.37583   0.00000  Uiso   1.00
H731   H     0.45461   0.72938   0.39256   0.00000  Uiso   1.00
H732   H     0.45346   0.76316   0.35750   0.00000  Uiso   1.00
H733   H     0.43236   0.77723   0.44558   0.00000  Uiso   1.00
H734   H     0.41228   0.79891   0.41301   0.00000  Uiso   1.00
H735   H     0.46314   0.95113   0.46699   0.00000  Uiso   1.00
H736   H     0.46358   0.87467   0.07311   0.00000  Uiso   1.00
H737   H     0.51170   0.77479   0.43403   0.00000  Uiso   1.00
H738   H     0.41048   0.92025   0.09977   0.00000  Uiso   1.00
H739   H     0.46508   0.94673   0.09489   0.00000  Uiso   1.00
H740   H     0.42166   0.97593   0.09752   0.00000  Uiso   1.00
N741   N     0.53909   0.70176   0.03492   0.00000  Uiso   1.00
N742   N     0.55061   0.67319   0.20724   0.00000  Uiso   1.00
N743   N     0.53256   0.71783   0.46654   0.00000  Uiso   1.00
O744   O     0.50000   0.83333   0.25000   0.00000  Uiso   1.00
O745   O     0.49027   0.79060   0.16625   0.00000  Uiso   1.00
O746   O     0.46020   0.87313   0.33749   0.00000  Uiso   1.00
O747   O     0.54421   0.84159   0.15877   0.00000  Uiso   1.00
O748   O     0.50532   0.82802   0.33749   0.00000  Uiso   1.00
O749   O     0.51182   0.74768   0.27821   0.00000  Uiso   1.00
O750   O     0.47914   0.92803   0.26767   0.00000  Uiso   1.00
O751   O     0.40785   0.79917   0.23607   0.00000  Uiso   1.00
O752   O     0.60119   0.85845   0.21806   0.00000  Uiso   1.00
O753   O     0.40323   0.85627   0.27820   0.00000  Uiso   1.00
O754   O     0.58773   0.81944   0.26768   0.00000  Uiso   1.00
O755   O     0.47133   0.73570   0.23607   0.00000  Uiso   1.00
O756   O     0.53771   0.92193   0.21805   0.00000  Uiso   1.00
Zn757  Zn    0.52577   0.80756   0.28278   0.00000  Uiso   1.00
Zn758  Zn    0.46792   0.79044   0.22258   0.00000  Uiso   1.00
Zn759  Zn    0.54500   0.86331   0.21188   0.00000  Uiso   1.00
Zn760  Zn    0.46131   0.87202   0.28277   0.00000  Uiso   1.00
C761   C     0.71907   0.82621   0.25919   0.00000  Uiso   1.00
C762   C     0.84128   0.78425   0.46478   0.00000  Uiso   1.00
C763   C     0.85341   0.75757   0.48597   0.00000  Uiso   1.00
C764   C     0.94792   0.84006   0.24076   0.00000  Uiso   1.00
C765   C     0.85483   0.77076   0.02516   0.00000  Uiso   1.00
C766   C     0.84621   0.81231   0.04133   0.00000  Uiso   1.00
C767   C     0.86531   0.74440   0.04860   0.00000  Uiso   1.00
C768   C     0.86619   0.75931   0.08704   0.00000  Uiso   1.00
C769   C     0.85915   0.82950   0.07590   0.00000  Uiso   1.00
C770   C     0.99444   0.84192   0.23541   0.00000  Uiso   1.00
C771   C     0.67404   0.82484   0.26159   0.00000  Uiso   1.00
C772   C     0.80664   0.90897   0.41453   0.00000  Uiso   1.00
C773   C     0.84807   0.98882   0.23725   0.00000  Uiso   1.00
C774   C     0.81862   0.67868   0.26171   0.00000  Uiso   1.00
C775   C     0.82214   0.72284   0.25924   0.00000  Uiso   1.00
C776   C     0.84364   0.94436   0.24116   0.00000  Uiso   1.00
C777   C     0.85443   0.81232   0.14374   0.00000  Uiso   1.00
C778   C     0.81223   0.85448   0.35618   0.00000  Uiso   1.00
C779   C     0.80668   0.86632   0.39874   0.00000  Uiso   1.00
C780   C     0.86302   0.80136   0.10096   0.00000  Uiso   1.00
C781   C     0.79995   0.91893   0.45514   0.00000  Uiso   1.00
C782   C     0.77760   0.93958   0.04115   0.00000  Uiso   1.00
C783   C     0.80306   0.83510   0.42399   0.00000  Uiso   1.00
C784   C     0.76823   0.94567   0.08614   0.00000  Uiso   1.00
C785   C     0.69284   0.86280   0.20080   0.00000  Uiso   1.00
C786   C     0.70425   0.90928   0.21228   0.00000  Uiso   1.00
C787   C     0.87689   0.87571   0.08230   0.00000  Uiso   1.00
C788   C     0.90935   0.89170   0.04509   0.00000  Uiso   1.00
C789   C     0.81401   0.94502   0.38956   0.00000  Uiso   1.00
C790   C     0.77130   0.95919   0.39010   0.00000  Uiso   1.00
C791   C     0.77620   0.79288   0.41793   0.00000  Uiso   1.00
C792   C     0.79777   0.76176   0.38394   0.00000  Uiso   1.00
C793   C     0.80998   0.84800   0.46177   0.00000  Uiso   1.00
C794   C     0.80177   0.88902   0.47926   0.00000  Uiso   1.00
C795   C     0.82487   0.82187   0.48269   0.00000  Uiso   1.00
C796   C     0.82619   0.83532   0.02187   0.00000  Uiso   1.00
C797   C     0.80532   0.87021   0.04141   0.00000  Uiso   1.00
C798   C     0.79542   0.89895   0.02044   0.00000  Uiso   1.00
H799   H     0.98432   0.81077   0.28655   0.00000  Uiso   1.00
H800   H     0.80106   0.96642   0.02934   0.00000  Uiso   1.00
H801   H     0.74693   0.94116   0.03401   0.00000  Uiso   1.00
H802   H     0.90352   0.69811   0.03552   0.00000  Uiso   1.00
H803   H     0.85047   0.68257   0.05483   0.00000  Uiso   1.00
H804   H     0.67465   0.92539   0.22206   0.00000  Uiso   1.00
H805   H     0.72008   0.91367   0.23647   0.00000  Uiso   1.00
H806   H     0.72693   0.92377   0.18639   0.00000  Uiso   1.00
H807   H     0.72290   0.84743   0.18962   0.00000  Uiso   1.00
H808   H     0.67862   0.85940   0.17559   0.00000  Uiso   1.00
H809   H     0.87191   0.68678   0.18838   0.00000  Uiso   1.00
H810   H     0.79152   0.99851   0.28426   0.00000  Uiso   1.00
H811   H     0.90226   0.69663   0.22077   0.00000  Uiso   1.00
H812   H     0.93465   0.87032   0.03265   0.00000  Uiso   1.00
H813   H     0.89333   0.89453   0.02229   0.00000  Uiso   1.00
H814   H     0.92526   0.92327   0.05269   0.00000  Uiso   1.00
H815   H     0.85120   0.89639   0.09443   0.00000  Uiso   1.00
H816   H     0.89534   0.88023   0.10439   0.00000  Uiso   1.00
H817   H     0.89163   0.72309   0.44137   0.00000  Uiso   1.00
H818   H     0.83982   0.70109   0.45739   0.00000  Uiso   1.00
H819   H     0.77770   0.98409   0.37004   0.00000  Uiso   1.00
H820   H     0.74986   0.93268   0.38005   0.00000  Uiso   1.00
H821   H     0.86984   0.73782   0.10620   0.00000  Uiso   1.00
H822   H     0.75449   0.97197   0.42040   0.00000  Uiso   1.00
H823   H     0.83386   0.97197   0.40120   0.00000  Uiso   1.00
H824   H     0.83318   0.93709   0.35873   0.00000  Uiso   1.00
H825   H     0.83356   0.76769   0.37583   0.00000  Uiso   1.00
H826   H     0.78794   0.72938   0.39256   0.00000  Uiso   1.00
H827   H     0.78679   0.76316   0.35750   0.00000  Uiso   1.00
H828   H     0.76569   0.77723   0.44558   0.00000  Uiso   1.00
H829   H     0.74561   0.79891   0.41301   0.00000  Uiso   1.00
H830   H     0.79647   0.95113   0.46699   0.00000  Uiso   1.00
H831   H     0.79692   0.87467   0.07311   0.00000  Uiso   1.00
H832   H     0.84503   0.77479   0.43403   0.00000  Uiso   1.00
H833   H     0.74381   0.92025   0.09977   0.00000  Uiso   1.00
H834   H     0.79841   0.94673   0.09489   0.00000  Uiso   1.00
H835   H     0.75499   0.97593   0.09752   0.00000  Uiso   1.00
N836   N     0.87242   0.70176   0.03492   0.00000  Uiso   1.00
N837   N     0.88394   0.67319   0.20724   0.00000  Uiso   1.00
N838   N     0.86589   0.71783   0.46654   0.00000  Uiso   1.00
O839   O     0.83333   0.83333   0.25000   0.00000  Uiso   1.00
O840   O     0.82360   0.79060   0.16625   0.00000  Uiso   1.00
O841   O     0.79354   0.87313   0.33749   0.00000  Uiso   1.00
O842   O     0.87755   0.84159   0.15877   0.00000  Uiso   1.00
O843   O     0.83865   0.82802   0.33749   0.00000  Uiso   1.00
O844   O     0.84515   0.74768   0.27821   0.00000  Uiso   1.00
O845   O     0.81247   0.92803   0.26767   0.00000  Uiso   1.00
O846   O     0.74119   0.79917   0.23607   0.00000  Uiso   1.00
O847   O     0.93452   0.85845   0.21806   0.00000  Uiso   1.00
O848   O     0.73656   0.85627   0.27820   0.00000  Uiso   1.00
O849   O     0.92106   0.81944   0.26768   0.00000  Uiso   1.00
O850   O     0.80467   0.73570   0.23607   0.00000  Uiso   1.00
O851   O     0.87104   0.92193   0.21805   0.00000  Uiso   1.00
Zn852  Zn    0.85910   0.80756   0.28278   0.00000  Uiso   1.00
Zn853  Zn    0.80125   0.79044   0.22258   0.00000  Uiso   1.00
Zn854  Zn    0.87833   0.86331   0.21188   0.00000  Uiso   1.00
Zn855  Zn    0.79465   0.87202   0.28277   0.00000  Uiso   1.00
C856   C     0.05240   0.15955   0.75919   0.00000  Uiso   1.00
C857   C     0.17462   0.11759   0.96478   0.00000  Uiso   1.00
C858   C     0.18674   0.09090   0.98597   0.00000  Uiso   1.00
C859   C     0.28126   0.17339   0.74076   0.00000  Uiso   1.00
C860   C     0.18816   0.10409   0.52516   0.00000  Uiso   1.00
C861   C     0.17955   0.14564   0.54133   0.00000  Uiso   1.00
C862   C     0.19865   0.07774   0.54860   0.00000  Uiso   1.00
C863   C     0.19952   0.09264   0.58704   0.00000  Uiso   1.00
C864   C     0.19248   0.16283   0.57590   0.00000  Uiso   1.00
C865   C     0.32778   0.17525   0.73541   0.00000  Uiso   1.00
C866   C     0.00737   0.15817   0.76159   0.00000  Uiso   1.00
C867   C     0.13997   0.24230   0.91453   0.00000  Uiso   1.00
C868   C     0.18141   0.32215   0.73725   0.00000  Uiso   1.00
C869   C     0.15195   0.01201   0.76171   0.00000  Uiso   1.00
C870   C     0.15547   0.05618   0.75924   0.00000  Uiso   1.00
C871   C     0.17698   0.27770   0.74116   0.00000  Uiso   1.00
C872   C     0.18776   0.14565   0.64374   0.00000  Uiso   1.00
C873   C     0.14556   0.18781   0.85618   0.00000  Uiso   1.00
C874   C     0.14002   0.19966   0.89874   0.00000  Uiso   1.00
C875   C     0.19635   0.13469   0.60096   0.00000  Uiso   1.00
C876   C     0.13329   0.25226   0.95514   0.00000  Uiso   1.00
C877   C     0.11094   0.27291   0.54115   0.00000  Uiso   1.00
C878   C     0.13639   0.16843   0.92399   0.00000  Uiso   1.00
C879   C     0.10156   0.27900   0.58614   0.00000  Uiso   1.00
C880   C     0.02618   0.19613   0.70080   0.00000  Uiso   1.00
C881   C     0.03759   0.24261   0.71228   0.00000  Uiso   1.00
C882   C     0.21023   0.20904   0.58230   0.00000  Uiso   1.00
C883   C     0.24269   0.22503   0.54509   0.00000  Uiso   1.00
C884   C     0.14734   0.27835   0.88956   0.00000  Uiso   1.00
C885   C     0.10463   0.29252   0.89010   0.00000  Uiso   1.00
C886   C     0.10954   0.12621   0.91793   0.00000  Uiso   1.00
C887   C     0.13110   0.09509   0.88394   0.00000  Uiso   1.00
C888   C     0.14331   0.18134   0.96177   0.00000  Uiso   1.00
C889   C     0.13510   0.22235   0.97926   0.00000  Uiso   1.00
C890   C     0.15820   0.15521   0.98269   0.00000  Uiso   1.00
C891   C     0.15953   0.16865   0.52187   0.00000  Uiso   1.00
C892   C     0.13866   0.20354   0.54141   0.00000  Uiso   1.00
C893   C     0.12875   0.23228   0.52044   0.00000  Uiso   1.00
H894   H     0.31765   0.14410   0.78655   0.00000  Uiso   1.00
H895   H     0.13439   0.29976   0.52934   0.00000  Uiso   1.00
H896   H     0.08027   0.27449   0.53401   0.00000  Uiso   1.00
H897   H     0.23686   0.03144   0.53552   0.00000  Uiso   1.00
H898   H     0.18380   0.01590   0.55483   0.00000  Uiso   1.00
H899   H     0.00798   0.25872   0.72206   0.00000  Uiso   1.00
H900   H     0.05341   0.24700   0.73647   0.00000  Uiso   1.00
H901   H     0.06026   0.25711   0.68639   0.00000  Uiso   1.00
H902   H     0.05623   0.18077   0.68962   0.00000  Uiso   1.00
H903   H     0.01195   0.19274   0.67559   0.00000  Uiso   1.00
H904   H     0.20524   0.02011   0.68838   0.00000  Uiso   1.00
H905   H     0.12486   0.33184   0.78426   0.00000  Uiso   1.00
H906   H     0.23559   0.02996   0.72077   0.00000  Uiso   1.00
H907   H     0.26798   0.20365   0.53265   0.00000  Uiso   1.00
H908   H     0.22666   0.22786   0.52229   0.00000  Uiso   1.00
H909   H     0.25860   0.25660   0.55269   0.00000  Uiso   1.00
H910   H     0.18453   0.22973   0.59443   0.00000  Uiso   1.00
H911   H     0.22867   0.21356   0.60439   0.00000  Uiso   1.00
H912   H     0.22496   0.05642   0.94137   0.00000  Uiso   1.00
H913   H     0.17315   0.03443   0.95739   0.00000  Uiso   1.00
H914   H     0.11104   0.31742   0.87004   0.00000  Uiso   1.00
H915   H     0.08319   0.26601   0.88005   0.00000  Uiso   1.00
H916   H     0.20318   0.07115   0.60620   0.00000  Uiso   1.00
H917   H     0.08782   0.30530   0.92040   0.00000  Uiso   1.00
H918   H     0.16720   0.30530   0.90120   0.00000  Uiso   1.00
H919   H     0.16652   0.27042   0.85873   0.00000  Uiso   1.00
H920   H     0.16689   0.10102   0.87583   0.00000  Uiso   1.00
H921   H     0.12128   0.06271   0.89256   0.00000  Uiso   1.00
H922   H     0.12012   0.09650   0.85750   0.00000  Uiso   1.00
H923   H     0.09902   0.11057   0.94558   0.00000  Uiso   1.00
H924   H     0.07894   0.13224   0.91301   0.00000  Uiso   1.00
H925   H     0.12981   0.28446   0.96699   0.00000  Uiso   1.00
H926   H     0.13025   0.20800   0.57311   0.00000  Uiso   1.00
H927   H     0.17837   0.10812   0.93403   0.00000  Uiso   1.00
H928   H     0.07715   0.25358   0.59977   0.00000  Uiso   1.00
H929   H     0.13174   0.28006   0.59489   0.00000  Uiso   1.00
H930   H     0.08833   0.30927   0.59752   0.00000  Uiso   1.00
N931   N     0.20576   0.03509   0.53492   0.00000  Uiso   1.00
N932   N     0.21728   0.00652   0.70724   0.00000  Uiso   1.00
N933   N     0.19922   0.05117   0.96654   0.00000  Uiso   1.00
O934   O     0.16667   0.16667   0.75000   0.00000  Uiso   1.00
O935   O     0.15693   0.12393   0.66625   0.00000  Uiso   1.00
O936   O     0.12687   0.20646   0.83749   0.00000  Uiso   1.00
O937   O     0.21088   0.17493   0.65877   0.00000  Uiso   1.00
O938   O     0.17198   0.16135   0.83749   0.00000  Uiso   1.00
O939   O     0.17849   0.08101   0.77821   0.00000  Uiso   1.00
O940   O     0.14581   0.26136   0.76767   0.00000  Uiso   1.00
O941   O     0.07452   0.13251   0.73607   0.00000  Uiso   1.00
O942   O     0.26785   0.19179   0.71806   0.00000  Uiso   1.00
O943   O     0.06990   0.18960   0.77820   0.00000  Uiso   1.00
O944   O     0.25440   0.15277   0.76768   0.00000  Uiso   1.00
O945   O     0.13800   0.06903   0.73607   0.00000  Uiso   1.00
O946   O     0.20437   0.25527   0.71805   0.00000  Uiso   1.00
Zn947  Zn    0.19244   0.14090   0.78278   0.00000  Uiso   1.00
Zn948  Zn    0.13459   0.12378   0.72258   0.00000  Uiso   1.00
Zn949  Zn    0.21166   0.19664   0.71188   0.00000  Uiso   1.00
Zn950  Zn    0.12798   0.20535   0.78277   0.00000  Uiso   1.00
C951   C     0.38573   0.15955   0.75919   0.00000  Uiso   1.00
C952   C     0.50795   0.11759   0.96478   0.00000  Uiso   1.00
C953   C     0.52007   0.09090   0.98597   0.00000  Uiso   1.00
C954   C     0.61459   0.17339   0.74076   0.00000  Uiso   1.00
C955   C     0.52149   0.10409   0.52516   0.00000  Uiso   1.00
C956   C     0.51288   0.14564   0.54133   0.00000  Uiso   1.00
C957   C     0.53198   0.07774   0.54860   0.00000  Uiso   1.00
C958   C     0.53285   0.09264   0.58704   0.00000  Uiso   1.00
C959   C     0.52582   0.16283   0.57590   0.00000  Uiso   1.00
C960   C     0.66111   0.17525   0.73541   0.00000  Uiso   1.00
C961   C     0.34070   0.15817   0.76159   0.00000  Uiso   1.00
C962   C     0.47330   0.24230   0.91453   0.00000  Uiso   1.00
C963   C     0.51474   0.32215   0.73725   0.00000  Uiso   1.00
C964   C     0.48528   0.01201   0.76171   0.00000  Uiso   1.00
C965   C     0.48881   0.05618   0.75924   0.00000  Uiso   1.00
C966   C     0.51031   0.27770   0.74116   0.00000  Uiso   1.00
C967   C     0.52109   0.14565   0.64374   0.00000  Uiso   1.00
C968   C     0.47889   0.18781   0.85618   0.00000  Uiso   1.00
C969   C     0.47335   0.19966   0.89874   0.00000  Uiso   1.00
C970   C     0.52968   0.13469   0.60096   0.00000  Uiso   1.00
C971   C     0.46662   0.25226   0.95514   0.00000  Uiso   1.00
C972   C     0.44427   0.27291   0.54115   0.00000  Uiso   1.00
C973   C     0.46972   0.16843   0.92399   0.00000  Uiso   1.00
C974   C     0.43489   0.27900   0.58614   0.00000  Uiso   1.00
C975   C     0.35951   0.19613   0.70080   0.00000  Uiso   1.00
C976   C     0.37092   0.24261   0.71228   0.00000  Uiso   1.00
C977   C     0.54356   0.20904   0.58230   0.00000  Uiso   1.00
C978   C     0.57602   0.22503   0.54509   0.00000  Uiso   1.00
C979   C     0.48068   0.27835   0.88956   0.00000  Uiso   1.00
C980   C     0.43797   0.29252   0.89010   0.00000  Uiso   1.00
C981   C     0.44287   0.12621   0.91793   0.00000  Uiso   1.00
C982   C     0.46443   0.09509   0.88394   0.00000  Uiso   1.00
C983   C     0.47664   0.18134   0.96177   0.00000  Uiso   1.00
C984   C     0.46843   0.22235   0.97926   0.00000  Uiso   1.00
C985   C     0.49154   0.15521   0.98269   0.00000  Uiso   1.00
C986   C     0.49286   0.16865   0.52187   0.00000  Uiso   1.00
C987   C     0.47199   0.20354   0.54141   0.00000  Uiso   1.00
C988   C     0.46208   0.23228   0.52044   0.00000  Uiso   1.00
H989   H     0.65098   0.14410   0.78655   0.00000  Uiso   1.00
H990   H     0.46773   0.29976   0.52934   0.00000  Uiso   1.00
H991   H     0.41360   0.27449   0.53401   0.00000  Uiso   1.00
H992   H     0.57019   0.03144   0.53552   0.00000  Uiso   1.00
H993   H     0.51714   0.01590   0.55483   0.00000  Uiso   1.00
H994   H     0.34131   0.25872   0.72206   0.00000  Uiso   1.00
H995   H     0.38674   0.24700   0.73647   0.00000  Uiso   1.00
H996   H     0.39360   0.25711   0.68639   0.00000  Uiso   1.00
H997   H     0.38956   0.18077   0.68962   0.00000  Uiso   1.00
H998   H     0.34528   0.19274   0.67559   0.00000  Uiso   1.00
H999   H     0.53858   0.02011   0.68838   0.00000  Uiso   1.00
H1000  H     0.45819   0.33184   0.78426   0.00000  Uiso   1.00
H1001  H     0.56892   0.02996   0.72077   0.00000  Uiso   1.00
H1002  H     0.60132   0.20365   0.53265   0.00000  Uiso   1.00
H1003  H     0.56000   0.22786   0.52229   0.00000  Uiso   1.00
H1004  H     0.59193   0.25660   0.55269   0.00000  Uiso   1.00
H1005  H     0.51786   0.22973   0.59443   0.00000  Uiso   1.00
H1006  H     0.56200   0.21356   0.60439   0.00000  Uiso   1.00
H1007  H     0.55830   0.05642   0.94137   0.00000  Uiso   1.00
H1008  H     0.50648   0.03443   0.95739   0.00000  Uiso   1.00
H1009  H     0.44437   0.31742   0.87004   0.00000  Uiso   1.00
H1010  H     0.41653   0.26601   0.88005   0.00000  Uiso   1.00
H1011  H     0.53651   0.07115   0.60620   0.00000  Uiso   1.00
H1012  H     0.42116   0.30530   0.92040   0.00000  Uiso   1.00
H1013  H     0.50053   0.30530   0.90120   0.00000  Uiso   1.00
H1014  H     0.49985   0.27042   0.85873   0.00000  Uiso   1.00
H1015  H     0.50022   0.10102   0.87583   0.00000  Uiso   1.00
H1016  H     0.45461   0.06271   0.89256   0.00000  Uiso   1.00
H1017  H     0.45346   0.09650   0.85750   0.00000  Uiso   1.00
H1018  H     0.43236   0.11057   0.94558   0.00000  Uiso   1.00
H1019  H     0.41228   0.13224   0.91301   0.00000  Uiso   1.00
H1020  H     0.46314   0.28446   0.96699   0.00000  Uiso   1.00
H1021  H     0.46358   0.20800   0.57311   0.00000  Uiso   1.00
H1022  H     0.51170   0.10812   0.93403   0.00000  Uiso   1.00
H1023  H     0.41048   0.25358   0.59977   0.00000  Uiso   1.00
H1024  H     0.46508   0.28006   0.59489   0.00000  Uiso   1.00
H1025  H     0.42166   0.30927   0.59752   0.00000  Uiso   1.00
N1026  N     0.53909   0.03509   0.53492   0.00000  Uiso   1.00
N1027  N     0.55061   0.00652   0.70724   0.00000  Uiso   1.00
N1028  N     0.53256   0.05117   0.96654   0.00000  Uiso   1.00
O1029  O     0.50000   0.16667   0.75000   0.00000  Uiso   1.00
O1030  O     0.49027   0.12393   0.66625   0.00000  Uiso   1.00
O1031  O     0.46020   0.20646   0.83749   0.00000  Uiso   1.00
O1032  O     0.54421   0.17493   0.65877   0.00000  Uiso   1.00
O1033  O     0.50532   0.16135   0.83749   0.00000  Uiso   1.00
O1034  O     0.51182   0.08101   0.77821   0.00000  Uiso   1.00
O1035  O     0.47914   0.26136   0.76767   0.00000  Uiso   1.00
O1036  O     0.40785   0.13251   0.73607   0.00000  Uiso   1.00
O1037  O     0.60119   0.19179   0.71806   0.00000  Uiso   1.00
O1038  O     0.40323   0.18960   0.77820   0.00000  Uiso   1.00
O1039  O     0.58773   0.15277   0.76768   0.00000  Uiso   1.00
O1040  O     0.47133   0.06903   0.73607   0.00000  Uiso   1.00
O1041  O     0.53771   0.25527   0.71805   0.00000  Uiso   1.00
Zn1042 Zn    0.52577   0.14090   0.78278   0.00000  Uiso   1.00
Zn1043 Zn    0.46792   0.12378   0.72258   0.00000  Uiso   1.00
Zn1044 Zn    0.54500   0.19664   0.71188   0.00000  Uiso   1.00
Zn1045 Zn    0.46131   0.20535   0.78277   0.00000  Uiso   1.00
C1046  C     0.71907   0.15955   0.75919   0.00000  Uiso   1.00
C1047  C     0.84128   0.11759   0.96478   0.00000  Uiso   1.00
C1048  C     0.85341   0.09090   0.98597   0.00000  Uiso   1.00
C1049  C     0.94792   0.17339   0.74076   0.00000  Uiso   1.00
C1050  C     0.85483   0.10409   0.52516   0.00000  Uiso   1.00
C1051  C     0.84621   0.14564   0.54133   0.00000  Uiso   1.00
C1052  C     0.86531   0.07774   0.54860   0.00000  Uiso   1.00
C1053  C     0.86619   0.09264   0.58704   0.00000  Uiso   1.00
C1054  C     0.85915   0.16283   0.57590   0.00000  Uiso   1.00
C1055  C     0.99444   0.17525   0.73541   0.00000  Uiso   1.00
C1056  C     0.67404   0.15817   0.76159   0.00000  Uiso   1.00
C1057  C     0.80664   0.24230   0.91453   0.00000  Uiso   1.00
C1058  C     0.84807   0.32215   0.73725   0.00000  Uiso   1.00
C1059  C     0.81862   0.01201   0.76171   0.00000  Uiso   1.00
C1060  C     0.82214   0.05618   0.75924   0.00000  Uiso   1.00
C1061  C     0.84364   0.27770   0.74116   0.00000  Uiso   1.00
C1062  C     0.85443   0.14565   0.64374   0.00000  Uiso   1.00
C1063  C     0.81223   0.18781   0.85618   0.00000  Uiso   1.00
C1064  C     0.80668   0.19966   0.89874   0.00000  Uiso   1.00
C1065  C     0.86302   0.13469   0.60096   0.00000  Uiso   1.00
C1066  C     0.79995   0.25226   0.95514   0.00000  Uiso   1.00
C1067  C     0.77760   0.27291   0.54115   0.00000  Uiso   1.00
C1068  C     0.80306   0.16843   0.92399   0.00000  Uiso   1.00
C1069  C     0.76823   0.27900   0.58614   0.00000  Uiso   1.00
C1070  C     0.69284   0.19613   0.70080   0.00000  Uiso   1.00
C1071  C     0.70425   0.24261   0.71228   0.00000  Uiso   1.00
C1072  C     0.87689   0.20904   0.58230   0.00000  Uiso   1.00
C1073  C     0.90935   0.22503   0.54509   0.00000  Uiso   1.00
C1074  C     0.81401   0.27835   0.88956   0.00000  Uiso   1.00
C1075  C     0.77130   0.29252   0.89010   0.00000  Uiso   1.00
C1076  C     0.77620   0.12621   0.91793   0.00000  Uiso   1.00
C1077  C     0.79777   0.09509   0.88394   0.00000  Uiso   1.00
C1078  C     0.80998   0.18134   0.96177   0.00000  Uiso   1.00
C1079  C     0.80177   0.22235   0.97926   0.00000  Uiso   1.00
C1080  C     0.82487   0.15521   0.98269   0.00000  Uiso   1.00
C1081  C     0.82619   0.16865   0.52187   0.00000  Uiso   1.00
C1082  C     0.80532   0.20354   0.54141   0.00000  Uiso   1.00
C1083  C     0.79542   0.23228   0.52044   0.00000  Uiso   1.00
H1084  H     0.98432   0.14410   0.78655   0.00000  Uiso   1.00
H1085  H     0.80106   0.29976   0.52934   0.00000  Uiso   1.00
H1086  H     0.74693   0.27449   0.53401   0.00000  Uiso   1.00
H1087  H     0.90352   0.03144   0.53552   0.00000  Uiso   1.00
H1088  H     0.85047   0.01590   0.55483   0.00000  Uiso   1.00
H1089  H     0.67465   0.25872   0.72206   0.00000  Uiso   1.00
H1090  H     0.72008   0.24700   0.73647   0.00000  Uiso   1.00
H1091  H     0.72693   0.25711   0.68639   0.00000  Uiso   1.00
H1092  H     0.72290   0.18077   0.68962   0.00000  Uiso   1.00
H1093  H     0.67862   0.19274   0.67559   0.00000  Uiso   1.00
H1094  H     0.87191   0.02011   0.68838   0.00000  Uiso   1.00
H1095  H     0.79152   0.33184   0.78426   0.00000  Uiso   1.00
H1096  H     0.90226   0.02996   0.72077   0.00000  Uiso   1.00
H1097  H     0.93465   0.20365   0.53265   0.00000  Uiso   1.00
H1098  H     0.89333   0.22786   0.52229   0.00000  Uiso   1.00
H1099  H     0.92526   0.25660   0.55269   0.00000  Uiso   1.00
H1100  H     0.85120   0.22973   0.59443   0.00000  Uiso   1.00
H1101  H     0.89534   0.21356   0.60439   0.00000  Uiso   1.00
H1102  H     0.89163   0.05642   0.94137   0.00000  Uiso   1.00
H1103  H     0.83982   0.03443   0.95739   0.00000  Uiso   1.00
H1104  H     0.77770   0.31742   0.87004   0.00000  Uiso   1.00
H1105  H     0.74986   0.26601   0.88005   0.00000  Uiso   1.00
H1106  H     0.86984   0.07115   0.60620   0.00000  Uiso   1.00
H1107  H     0.75449   0.30530   0.92040   0.00000  Uiso   1.00
H1108  H     0.83386   0.30530   0.90120   0.00000  Uiso   1.00
H1109  H     0.83318   0.27042   0.85873   0.00000  Uiso   1.00
H1110  H     0.83356   0.10102   0.87583   0.00000  Uiso   1.00
H1111  H     0.78794   0.06271   0.89256   0.00000  Uiso   1.00
H1112  H     0.78679   0.09650   0.85750   0.00000  Uiso   1.00
H1113  H     0.76569   0.11057   0.94558   0.00000  Uiso   1.00
H1114  H     0.74561   0.13224   0.91301   0.00000  Uiso   1.00
H1115  H     0.79647   0.28446   0.96699   0.00000  Uiso   1.00
H1116  H     0.79692   0.20800   0.57311   0.00000  Uiso   1.00
H1117  H     0.84503   0.10812   0.93403   0.00000  Uiso   1.00
H1118  H     0.74381   0.25358   0.59977   0.00000  Uiso   1.00
H1119  H     0.79841   0.28006   0.59489   0.00000  Uiso   1.00
H1120  H     0.75499   0.30927   0.59752   0.00000  Uiso   1.00
N1121  N     0.87242   0.03509   0.53492   0.00000  Uiso   1.00
N1122  N     0.88394   0.00652   0.70724   0.00000  Uiso   1.00
N1123  N     0.86589   0.05117   0.96654   0.00000  Uiso   1.00
O1124  O     0.83333   0.16667   0.75000   0.00000  Uiso   1.00
O1125  O     0.82360   0.12393   0.66625   0.00000  Uiso   1.00
O1126  O     0.79354   0.20646   0.83749   0.00000  Uiso   1.00
O1127  O     0.87755   0.17493   0.65877   0.00000  Uiso   1.00
O1128  O     0.83865   0.16135   0.83749   0.00000  Uiso   1.00
O1129  O     0.84515   0.08101   0.77821   0.00000  Uiso   1.00
O1130  O     0.81247   0.26136   0.76767   0.00000  Uiso   1.00
O1131  O     0.74119   0.13251   0.73607   0.00000  Uiso   1.00
O1132  O     0.93452   0.19179   0.71806   0.00000  Uiso   1.00
O1133  O     0.73656   0.18960   0.77820   0.00000  Uiso   1.00
O1134  O     0.92106   0.15277   0.76768   0.00000  Uiso   1.00
O1135  O     0.80467   0.06903   0.73607   0.00000  Uiso   1.00
O1136  O     0.87104   0.25527   0.71805   0.00000  Uiso   1.00
Zn1137 Zn    0.85910   0.14090   0.78278   0.00000  Uiso   1.00
Zn1138 Zn    0.80125   0.12378   0.72258   0.00000  Uiso   1.00
Zn1139 Zn    0.87833   0.19664   0.71188   0.00000  Uiso   1.00
Zn1140 Zn    0.79465   0.20535   0.78277   0.00000  Uiso   1.00
C1141  C     0.05240   0.49288   0.75919   0.00000  Uiso   1.00
C1142  C     0.17462   0.45092   0.96478   0.00000  Uiso   1.00
C1143  C     0.18674   0.42423   0.98597   0.00000  Uiso   1.00
C1144  C     0.28126   0.50672   0.74076   0.00000  Uiso   1.00
C1145  C     0.18816   0.43743   0.52516   0.00000  Uiso   1.00
C1146  C     0.17955   0.47897   0.54133   0.00000  Uiso   1.00
C1147  C     0.19865   0.41107   0.54860   0.00000  Uiso   1.00
C1148  C     0.19952   0.42597   0.58704   0.00000  Uiso   1.00
C1149  C     0.19248   0.49617   0.57590   0.00000  Uiso   1.00
C1150  C     0.32778   0.50859   0.73541   0.00000  Uiso   1.00
C1151  C     0.00737   0.49150   0.76159   0.00000  Uiso   1.00
C1152  C     0.13997   0.57563   0.91453   0.00000  Uiso   1.00
C1153  C     0.18141   0.65549   0.73725   0.00000  Uiso   1.00
C1154  C     0.15195   0.34535   0.76171   0.00000  Uiso   1.00
C1155  C     0.15547   0.38951   0.75924   0.00000  Uiso   1.00
C1156  C     0.17698   0.61103   0.74116   0.00000  Uiso   1.00
C1157  C     0.18776   0.47899   0.64374   0.00000  Uiso   1.00
C1158  C     0.14556   0.52114   0.85618   0.00000  Uiso   1.00
C1159  C     0.14002   0.53299   0.89874   0.00000  Uiso   1.00
C1160  C     0.19635   0.46802   0.60096   0.00000  Uiso   1.00
C1161  C     0.13329   0.58559   0.95514   0.00000  Uiso   1.00
C1162  C     0.11094   0.60625   0.54115   0.00000  Uiso   1.00
C1163  C     0.13639   0.50177   0.92399   0.00000  Uiso   1.00
C1164  C     0.10156   0.61234   0.58614   0.00000  Uiso   1.00
C1165  C     0.02618   0.52946   0.70080   0.00000  Uiso   1.00
C1166  C     0.03759   0.57595   0.71228   0.00000  Uiso   1.00
C1167  C     0.21023   0.54238   0.58230   0.00000  Uiso   1.00
C1168  C     0.24269   0.55836   0.54509   0.00000  Uiso   1.00
C1169  C     0.14734   0.61169   0.88956   0.00000  Uiso   1.00
C1170  C     0.10463   0.62585   0.89010   0.00000  Uiso   1.00
C1171  C     0.10954   0.45955   0.91793   0.00000  Uiso   1.00
C1172  C     0.13110   0.42843   0.88394   0.00000  Uiso   1.00
C1173  C     0.14331   0.51467   0.96177   0.00000  Uiso   1.00
C1174  C     0.13510   0.55568   0.97926   0.00000  Uiso   1.00
C1175  C     0.15820   0.48854   0.98269   0.00000  Uiso   1.00
C1176  C     0.15953   0.50198   0.52187   0.00000  Uiso   1.00
C1177  C     0.13866   0.53688   0.54141   0.00000  Uiso   1.00
C1178  C     0.12875   0.56562   0.52044   0.00000  Uiso   1.00
H1179  H     0.31765   0.47744   0.78655   0.00000  Uiso   1.00
H1180  H     0.13439   0.63309   0.52934   0.00000  Uiso   1.00
H1181  H     0.08027   0.60783   0.53401   0.00000  Uiso   1.00
H1182  H     0.23686   0.36477   0.53552   0.00000  Uiso   1.00
H1183  H     0.18380   0.34924   0.55483   0.00000  Uiso   1.00
H1184  H     0.00798   0.59206   0.72206   0.00000  Uiso   1.00
H1185  H     0.05341   0.58033   0.73647   0.00000  Uiso   1.00
H1186  H     0.06026   0.59044   0.68639   0.00000  Uiso   1.00
H1187  H     0.05623   0.51410   0.68962   0.00000  Uiso   1.00
H1188  H     0.01195   0.52607   0.67559   0.00000  Uiso   1.00
H1189  H     0.20524   0.35344   0.68838   0.00000  Uiso   1.00
H1190  H     0.12486   0.66518   0.78426   0.00000  Uiso   1.00
H1191  H     0.23559   0.36330   0.72077   0.00000  Uiso   1.00
H1192  H     0.26798   0.53699   0.53265   0.00000  Uiso   1.00
H1193  H     0.22666   0.56120   0.52229   0.00000  Uiso   1.00
H1194  H     0.25860   0.58993   0.55269   0.00000  Uiso   1.00
H1195  H     0.18453   0.56306   0.59443   0.00000  Uiso   1.00
H1196  H     0.22867   0.54689   0.60439   0.00000  Uiso   1.00
H1197  H     0.22496   0.38975   0.94137   0.00000  Uiso   1.00
H1198  H     0.17315   0.36776   0.95739   0.00000  Uiso   1.00
H1199  H     0.11104   0.65075   0.87004   0.00000  Uiso   1.00
H1200  H     0.08319   0.59934   0.88005   0.00000  Uiso   1.00
H1201  H     0.20318   0.40448   0.60620   0.00000  Uiso   1.00
H1202  H     0.08782   0.63864   0.92040   0.00000  Uiso   1.00
H1203  H     0.16720   0.63863   0.90120   0.00000  Uiso   1.00
H1204  H     0.16652   0.60375   0.85873   0.00000  Uiso   1.00
H1205  H     0.16689   0.43435   0.87583   0.00000  Uiso   1.00
H1206  H     0.12128   0.39605   0.89256   0.00000  Uiso   1.00
H1207  H     0.12012   0.42983   0.85750   0.00000  Uiso   1.00
H1208  H     0.09902   0.44390   0.94558   0.00000  Uiso   1.00
H1209  H     0.07894   0.46558   0.91301   0.00000  Uiso   1.00
H1210  H     0.12981   0.61779   0.96699   0.00000  Uiso   1.00
H1211  H     0.13025   0.54133   0.57311   0.00000  Uiso   1.00
H1212  H     0.17837   0.44146   0.93403   0.00000  Uiso   1.00
H1213  H     0.07715   0.58691   0.59977   0.00000  Uiso   1.00
H1214  H     0.13174   0.61340   0.59489   0.00000  Uiso   1.00
H1215  H     0.08833   0.64260   0.59752   0.00000  Uiso   1.00
N1216  N     0.20576   0.36843   0.53492   0.00000  Uiso   1.00
N1217  N     0.21728   0.33985   0.70724   0.00000  Uiso   1.00
N1218  N     0.19922   0.38450   0.96654   0.00000  Uiso   1.00
O1219  O     0.16667   0.50000   0.75000   0.00000  Uiso   1.00
O1220  O     0.15693   0.45726   0.66625   0.00000  Uiso   1.00
O1221  O     0.12687   0.53979   0.83749   0.00000  Uiso   1.00
O1222  O     0.21088   0.50826   0.65877   0.00000  Uiso   1.00
O1223  O     0.17198   0.49468   0.83749   0.00000  Uiso   1.00
O1224  O     0.17849   0.41434   0.77821   0.00000  Uiso   1.00
O1225  O     0.14581   0.59469   0.76767   0.00000  Uiso   1.00
O1226  O     0.07452   0.46584   0.73607   0.00000  Uiso   1.00
O1227  O     0.26785   0.52512   0.71806   0.00000  Uiso   1.00
O1228  O     0.06990   0.52293   0.77820   0.00000  Uiso   1.00
O1229  O     0.25440   0.48610   0.76768   0.00000  Uiso   1.00
O1230  O     0.13800   0.40236   0.73607   0.00000  Uiso   1.00
O1231  O     0.20437   0.58860   0.71805   0.00000  Uiso   1.00
Zn1232 Zn    0.19244   0.47423   0.78278   0.00000  Uiso   1.00
Zn1233 Zn    0.13459   0.45711   0.72258   0.00000  Uiso   1.00
Zn1234 Zn    0.21166   0.52997   0.71188   0.00000  Uiso   1.00
Zn1235 Zn    0.12798   0.53868   0.78277   0.00000  Uiso   1.00
C1236  C     0.38573   0.49288   0.75919   0.00000  Uiso   1.00
C1237  C     0.50795   0.45092   0.96478   0.00000  Uiso   1.00
C1238  C     0.52007   0.42423   0.98597   0.00000  Uiso   1.00
C1239  C     0.61459   0.50672   0.74076   0.00000  Uiso   1.00
C1240  C     0.52149   0.43743   0.52516   0.00000  Uiso   1.00
C1241  C     0.51288   0.47897   0.54133   0.00000  Uiso   1.00
C1242  C     0.53198   0.41107   0.54860   0.00000  Uiso   1.00
C1243  C     0.53285   0.42597   0.58704   0.00000  Uiso   1.00
C1244  C     0.52582   0.49617   0.57590   0.00000  Uiso   1.00
C1245  C     0.66111   0.50859   0.73541   0.00000  Uiso   1.00
C1246  C     0.34070   0.49150   0.76159   0.00000  Uiso   1.00
C1247  C     0.47330   0.57563   0.91453   0.00000  Uiso   1.00
C1248  C     0.51474   0.65549   0.73725   0.00000  Uiso   1.00
C1249  C     0.48528   0.34535   0.76171   0.00000  Uiso   1.00
C1250  C     0.48881   0.38951   0.75924   0.00000  Uiso   1.00
C1251  C     0.51031   0.61103   0.74116   0.00000  Uiso   1.00
C1252  C     0.52109   0.47899   0.64374   0.00000  Uiso   1.00
C1253  C     0.47889   0.52114   0.85618   0.00000  Uiso   1.00
C1254  C     0.47335   0.53299   0.89874   0.00000  Uiso   1.00
C1255  C     0.52968   0.46802   0.60096   0.00000  Uiso   1.00
C1256  C     0.46662   0.58559   0.95514   0.00000  Uiso   1.00
C1257  C     0.44427   0.60625   0.54115   0.00000  Uiso   1.00
C1258  C     0.46972   0.50177   0.92399   0.00000  Uiso   1.00
C1259  C     0.43489   0.61234   0.58614   0.00000  Uiso   1.00
C1260  C     0.35951   0.52946   0.70080   0.00000  Uiso   1.00
C1261  C     0.37092   0.57595   0.71228   0.00000  Uiso   1.00
C1262  C     0.54356   0.54238   0.58230   0.00000  Uiso   1.00
C1263  C     0.57602   0.55836   0.54509   0.00000  Uiso   1.00
C1264  C     0.48068   0.61169   0.88956   0.00000  Uiso   1.00
C1265  C     0.43797   0.62585   0.89010   0.00000  Uiso   1.00
C1266  C     0.44287   0.45955   0.91793   0.00000  Uiso   1.00
C1267  C     0.46443   0.42843   0.88394   0.00000  Uiso   1.00
C1268  C     0.47664   0.51467   0.96177   0.00000  Uiso   1.00
C1269  C     0.46843   0.55568   0.97926   0.00000  Uiso   1.00
C1270  C     0.49154   0.48854   0.98269   0.00000  Uiso   1.00
C1271  C     0.49286   0.50198   0.52187   0.00000  Uiso   1.00
C1272  C     0.47199   0.53688   0.54141   0.00000  Uiso   1.00
C1273  C     0.46208   0.56562   0.52044   0.00000  Uiso   1.00
H1274  H     0.65098   0.47744   0.78655   0.00000  Uiso   1.00
H1275  H     0.46773   0.63309   0.52934   0.00000  Uiso   1.00
H1276  H     0.41360   0.60783   0.53401   0.00000  Uiso   1.00
H1277  H     0.57019   0.36477   0.53552   0.00000  Uiso   1.00
H1278  H     0.51714   0.34924   0.55483   0.00000  Uiso   1.00
H1279  H     0.34131   0.59206   0.72206   0.00000  Uiso   1.00
H1280  H     0.38674   0.58033   0.73647   0.00000  Uiso   1.00
H1281  H     0.39360   0.59044   0.68639   0.00000  Uiso   1.00
H1282  H     0.38956   0.51410   0.68962   0.00000  Uiso   1.00
H1283  H     0.34528   0.52607   0.67559   0.00000  Uiso   1.00
H1284  H     0.53858   0.35344   0.68838   0.00000  Uiso   1.00
H1285  H     0.45819   0.66518   0.78426   0.00000  Uiso   1.00
H1286  H     0.56892   0.36330   0.72077   0.00000  Uiso   1.00
H1287  H     0.60132   0.53699   0.53265   0.00000  Uiso   1.00
H1288  H     0.56000   0.56120   0.52229   0.00000  Uiso   1.00
H1289  H     0.59193   0.58993   0.55269   0.00000  Uiso   1.00
H1290  H     0.51786   0.56306   0.59443   0.00000  Uiso   1.00
H1291  H     0.56200   0.54689   0.60439   0.00000  Uiso   1.00
H1292  H     0.55830   0.38975   0.94137   0.00000  Uiso   1.00
H1293  H     0.50648   0.36776   0.95739   0.00000  Uiso   1.00
H1294  H     0.44437   0.65075   0.87004   0.00000  Uiso   1.00
H1295  H     0.41653   0.59934   0.88005   0.00000  Uiso   1.00
H1296  H     0.53651   0.40448   0.60620   0.00000  Uiso   1.00
H1297  H     0.42116   0.63864   0.92040   0.00000  Uiso   1.00
H1298  H     0.50053   0.63863   0.90120   0.00000  Uiso   1.00
H1299  H     0.49985   0.60375   0.85873   0.00000  Uiso   1.00
H1300  H     0.50022   0.43435   0.87583   0.00000  Uiso   1.00
H1301  H     0.45461   0.39605   0.89256   0.00000  Uiso   1.00
H1302  H     0.45346   0.42983   0.85750   0.00000  Uiso   1.00
H1303  H     0.43236   0.44390   0.94558   0.00000  Uiso   1.00
H1304  H     0.41228   0.46558   0.91301   0.00000  Uiso   1.00
H1305  H     0.46314   0.61779   0.96699   0.00000  Uiso   1.00
H1306  H     0.46358   0.54133   0.57311   0.00000  Uiso   1.00
H1307  H     0.51170   0.44146   0.93403   0.00000  Uiso   1.00
H1308  H     0.41048   0.58691   0.59977   0.00000  Uiso   1.00
H1309  H     0.46508   0.61340   0.59489   0.00000  Uiso   1.00
H1310  H     0.42166   0.64260   0.59752   0.00000  Uiso   1.00
N1311  N     0.53909   0.36843   0.53492   0.00000  Uiso   1.00
N1312  N     0.55061   0.33985   0.70724   0.00000  Uiso   1.00
N1313  N     0.53256   0.38450   0.96654   0.00000  Uiso   1.00
O1314  O     0.50000   0.50000   0.75000   0.00000  Uiso   1.00
O1315  O     0.49027   0.45726   0.66625   0.00000  Uiso   1.00
O1316  O     0.46020   0.53979   0.83749   0.00000  Uiso   1.00
O1317  O     0.54421   0.50826   0.65877   0.00000  Uiso   1.00
O1318  O     0.50532   0.49468   0.83749   0.00000  Uiso   1.00
O1319  O     0.51182   0.41434   0.77821   0.00000  Uiso   1.00
O1320  O     0.47914   0.59469   0.76767   0.00000  Uiso   1.00
O1321  O     0.40785   0.46584   0.73607   0.00000  Uiso   1.00
O1322  O     0.60119   0.52512   0.71806   0.00000  Uiso   1.00
O1323  O     0.40323   0.52293   0.77820   0.00000  Uiso   1.00
O1324  O     0.58773   0.48610   0.76768   0.00000  Uiso   1.00
O1325  O     0.47133   0.40236   0.73607   0.00000  Uiso   1.00
O1326  O     0.53771   0.58860   0.71805   0.00000  Uiso   1.00
Zn1327 Zn    0.52577   0.47423   0.78278   0.00000  Uiso   1.00
Zn1328 Zn    0.46792   0.45711   0.72258   0.00000  Uiso   1.00
Zn1329 Zn    0.54500   0.52997   0.71188   0.00000  Uiso   1.00
Zn1330 Zn    0.46131   0.53868   0.78277   0.00000  Uiso   1.00
C1331  C     0.71907   0.49288   0.75919   0.00000  Uiso   1.00
C1332  C     0.84128   0.45092   0.96478   0.00000  Uiso   1.00
C1333  C     0.85341   0.42423   0.98597   0.00000  Uiso   1.00
C1334  C     0.94792   0.50672   0.74076   0.00000  Uiso   1.00
C1335  C     0.85483   0.43743   0.52516   0.00000  Uiso   1.00
C1336  C     0.84621   0.47897   0.54133   0.00000  Uiso   1.00
C1337  C     0.86531   0.41107   0.54860   0.00000  Uiso   1.00
C1338  C     0.86619   0.42597   0.58704   0.00000  Uiso   1.00
C1339  C     0.85915   0.49617   0.57590   0.00000  Uiso   1.00
C1340  C     0.99444   0.50859   0.73541   0.00000  Uiso   1.00
C1341  C     0.67404   0.49150   0.76159   0.00000  Uiso   1.00
C1342  C     0.80664   0.57563   0.91453   0.00000  Uiso   1.00
C1343  C     0.84807   0.65549   0.73725   0.00000  Uiso   1.00
C1344  C     0.81862   0.34535   0.76171   0.00000  Uiso   1.00
C1345  C     0.82214   0.38951   0.75924   0.00000  Uiso   1.00
C1346  C     0.84364   0.61103   0.74116   0.00000  Uiso   1.00
C1347  C     0.85443   0.47899   0.64374   0.00000  Uiso   1.00
C1348  C     0.81223   0.52114   0.85618   0.00000  Uiso   1.00
C1349  C     0.80668   0.53299   0.89874   0.00000  Uiso   1.00
C1350  C     0.86302   0.46802   0.60096   0.00000  Uiso   1.00
C1351  C     0.79995   0.58559   0.95514   0.00000  Uiso   1.00
C1352  C     0.77760   0.60625   0.54115   0.00000  Uiso   1.00
C1353  C     0.80306   0.50177   0.92399   0.00000  Uiso   1.00
C1354  C     0.76823   0.61234   0.58614   0.00000  Uiso   1.00
C1355  C     0.69284   0.52946   0.70080   0.00000  Uiso   1.00
C1356  C     0.70425   0.57595   0.71228   0.00000  Uiso   1.00
C1357  C     0.87689   0.54238   0.58230   0.00000  Uiso   1.00
C1358  C     0.90935   0.55836   0.54509   0.00000  Uiso   1.00
C1359  C     0.81401   0.61169   0.88956   0.00000  Uiso   1.00
C1360  C     0.77130   0.62585   0.89010   0.00000  Uiso   1.00
C1361  C     0.77620   0.45955   0.91793   0.00000  Uiso   1.00
C1362  C     0.79777   0.42843   0.88394   0.00000  Uiso   1.00
C1363  C     0.80998   0.51467   0.96177   0.00000  Uiso   1.00
C1364  C     0.80177   0.55568   0.97926   0.00000  Uiso   1.00
C1365  C     0.82487   0.48854   0.98269   0.00000  Uiso   1.00
C1366  C     0.82619   0.50198   0.52187   0.00000  Uiso   1.00
C1367  C     0.80532   0.53688   0.54141   0.00000  Uiso   1.00
C1368  C     0.79542   0.56562   0.52044   0.00000  Uiso   1.00
H1369  H     0.98432   0.47744   0.78655   0.00000  Uiso   1.00
H1370  H     0.80106   0.63309   0.52934   0.00000  Uiso   1.00
H1371  H     0.74693   0.60783   0.53401   0.00000  Uiso   1.00
H1372  H     0.90352   0.36477   0.53552   0.00000  Uiso   1.00
H1373  H     0.85047   0.34924   0.55483   0.00000  Uiso   1.00
H1374  H     0.67465   0.59206   0.72206   0.00000  Uiso   1.00
H1375  H     0.72008   0.58033   0.73647   0.00000  Uiso   1.00
H1376  H     0.72693   0.59044   0.68639   0.00000  Uiso   1.00
H1377  H     0.72290   0.51410   0.68962   0.00000  Uiso   1.00
H1378  H     0.67862   0.52607   0.67559   0.00000  Uiso   1.00
H1379  H     0.87191   0.35344   0.68838   0.00000  Uiso   1.00
H1380  H     0.79152   0.66518   0.78426   0.00000  Uiso   1.00
H1381  H     0.90226   0.36330   0.72077   0.00000  Uiso   1.00
H1382  H     0.93465   0.53699   0.53265   0.00000  Uiso   1.00
H1383  H     0.89333   0.56120   0.52229   0.00000  Uiso   1.00
H1384  H     0.92526   0.58993   0.55269   0.00000  Uiso   1.00
H1385  H     0.85120   0.56306   0.59443   0.00000  Uiso   1.00
H1386  H     0.89534   0.54689   0.60439   0.00000  Uiso   1.00
H1387  H     0.89163   0.38975   0.94137   0.00000  Uiso   1.00
H1388  H     0.83982   0.36776   0.95739   0.00000  Uiso   1.00
H1389  H     0.77770   0.65075   0.87004   0.00000  Uiso   1.00
H1390  H     0.74986   0.59934   0.88005   0.00000  Uiso   1.00
H1391  H     0.86984   0.40448   0.60620   0.00000  Uiso   1.00
H1392  H     0.75449   0.63864   0.92040   0.00000  Uiso   1.00
H1393  H     0.83386   0.63863   0.90120   0.00000  Uiso   1.00
H1394  H     0.83318   0.60375   0.85873   0.00000  Uiso   1.00
H1395  H     0.83356   0.43435   0.87583   0.00000  Uiso   1.00
H1396  H     0.78794   0.39605   0.89256   0.00000  Uiso   1.00
H1397  H     0.78679   0.42983   0.85750   0.00000  Uiso   1.00
H1398  H     0.76569   0.44390   0.94558   0.00000  Uiso   1.00
H1399  H     0.74561   0.46558   0.91301   0.00000  Uiso   1.00
H1400  H     0.79647   0.61779   0.96699   0.00000  Uiso   1.00
H1401  H     0.79692   0.54133   0.57311   0.00000  Uiso   1.00
H1402  H     0.84503   0.44146   0.93403   0.00000  Uiso   1.00
H1403  H     0.74381   0.58691   0.59977   0.00000  Uiso   1.00
H1404  H     0.79841   0.61340   0.59489   0.00000  Uiso   1.00
H1405  H     0.75499   0.64260   0.59752   0.00000  Uiso   1.00
N1406  N     0.87242   0.36843   0.53492   0.00000  Uiso   1.00
N1407  N     0.88394   0.33985   0.70724   0.00000  Uiso   1.00
N1408  N     0.86589   0.38450   0.96654   0.00000  Uiso   1.00
O1409  O     0.83333   0.50000   0.75000   0.00000  Uiso   1.00
O1410  O     0.82360   0.45726   0.66625   0.00000  Uiso   1.00
O1411  O     0.79354   0.53979   0.83749   0.00000  Uiso   1.00
O1412  O     0.87755   0.50826   0.65877   0.00000  Uiso   1.00
O1413  O     0.83865   0.49468   0.83749   0.00000  Uiso   1.00
O1414  O     0.84515   0.41434   0.77821   0.00000  Uiso   1.00
O1415  O     0.81247   0.59469   0.76767   0.00000  Uiso   1.00
O1416  O     0.74119   0.46584   0.73607   0.00000  Uiso   1.00
O1417  O     0.93452   0.52512   0.71806   0.00000  Uiso   1.00
O1418  O     0.73656   0.52293   0.77820   0.00000  Uiso   1.00
O1419  O     0.92106   0.48610   0.76768   0.00000  Uiso   1.00
O1420  O     0.80467   0.40236   0.73607   0.00000  Uiso   1.00
O1421  O     0.87104   0.58860   0.71805   0.00000  Uiso   1.00
Zn1422 Zn    0.85910   0.47423   0.78278   0.00000  Uiso   1.00
Zn1423 Zn    0.80125   0.45711   0.72258   0.00000  Uiso   1.00
Zn1424 Zn    0.87833   0.52997   0.71188   0.00000  Uiso   1.00
Zn1425 Zn    0.79465   0.53868   0.78277   0.00000  Uiso   1.00
C1426  C     0.05240   0.82621   0.75919   0.00000  Uiso   1.00
C1427  C     0.17462   0.78425   0.96478   0.00000  Uiso   1.00
C1428  C     0.18674   0.75757   0.98597   0.00000  Uiso   1.00
C1429  C     0.28126   0.84006   0.74076   0.00000  Uiso   1.00
C1430  C     0.18816   0.77076   0.52516   0.00000  Uiso   1.00
C1431  C     0.17955   0.81231   0.54133   0.00000  Uiso   1.00
C1432  C     0.19865   0.74440   0.54860   0.00000  Uiso   1.00
C1433  C     0.19952   0.75931   0.58704   0.00000  Uiso   1.00
C1434  C     0.19248   0.82950   0.57590   0.00000  Uiso   1.00
C1435  C     0.32778   0.84192   0.73541   0.00000  Uiso   1.00
C1436  C     0.00737   0.82484   0.76159   0.00000  Uiso   1.00
C1437  C     0.13997   0.90897   0.91453   0.00000  Uiso   1.00
C1438  C     0.18141   0.98882   0.73725   0.00000  Uiso   1.00
C1439  C     0.15195   0.67868   0.76171   0.00000  Uiso   1.00
C1440  C     0.15547   0.72284   0.75924   0.00000  Uiso   1.00
C1441  C     0.17698   0.94436   0.74116   0.00000  Uiso   1.00
C1442  C     0.18776   0.81232   0.64374   0.00000  Uiso   1.00
C1443  C     0.14556   0.85448   0.85618   0.00000  Uiso   1.00
C1444  C     0.14002   0.86632   0.89874   0.00000  Uiso   1.00
C1445  C     0.19635   0.80136   0.60096   0.00000  Uiso   1.00
C1446  C     0.13329   0.91893   0.95514   0.00000  Uiso   1.00
C1447  C     0.11094   0.93958   0.54115   0.00000  Uiso   1.00
C1448  C     0.13639   0.83510   0.92399   0.00000  Uiso   1.00
C1449  C     0.10156   0.94567   0.58614   0.00000  Uiso   1.00
C1450  C     0.02618   0.86280   0.70080   0.00000  Uiso   1.00
C1451  C     0.03759   0.90928   0.71228   0.00000  Uiso   1.00
C1452  C     0.21023   0.87571   0.58230   0.00000  Uiso   1.00
C1453  C     0.24269   0.89170   0.54509   0.00000  Uiso   1.00
C1454  C     0.14734   0.94502   0.88956   0.00000  Uiso   1.00
C1455  C     0.10463   0.95919   0.89010   0.00000  Uiso   1.00
C1456  C     0.10954   0.79288   0.91793   0.00000  Uiso   1.00
C1457  C     0.13110   0.76176   0.88394   0.00000  Uiso   1.00
C1458  C     0.14331   0.84800   0.96177   0.00000  Uiso   1.00
C1459  C     0.13510   0.88902   0.97926   0.00000  Uiso   1.00
C1460  C     0.15820   0.82187   0.98269   0.00000  Uiso   1.00
C1461  C     0.15953   0.83532   0.52187   0.00000  Uiso   1.00
C1462  C     0.13866   0.87021   0.54141   0.00000  Uiso   1.00
C1463  C     0.12875   0.89895   0.52044   0.00000  Uiso   1.00
H1464  H     0.31765   0.81077   0.78655   0.00000  Uiso   1.00
H1465  H     0.13439   0.96642   0.52934   0.00000  Uiso   1.00
H1466  H     0.08027   0.94116   0.53401   0.00000  Uiso   1.00
H1467  H     0.23686   0.69811   0.53552   0.00000  Uiso   1.00
H1468  H     0.18380   0.68257   0.55483   0.00000  Uiso   1.00
H1469  H     0.00798   0.92539   0.72206   0.00000  Uiso   1.00
H1470  H     0.05341   0.91367   0.73647   0.00000  Uiso   1.00
H1471  H     0.06026   0.92377   0.68639   0.00000  Uiso   1.00
H1472  H     0.05623   0.84743   0.68962   0.00000  Uiso   1.00
H1473  H     0.01195   0.85940   0.67559   0.00000  Uiso   1.00
H1474  H     0.20524   0.68678   0.68838   0.00000  Uiso   1.00
H1475  H     0.12486   0.99851   0.78426   0.00000  Uiso   1.00
H1476  H     0.23559   0.69663   0.72077   0.00000  Uiso   1.00
H1477  H     0.26798   0.87032   0.53265   0.00000  Uiso   1.00
H1478  H     0.22666   0.89453   0.52229   0.00000  Uiso   1.00
H1479  H     0.25860   0.92327   0.55269   0.00000  Uiso   1.00
H1480  H     0.18453   0.89639   0.59443   0.00000  Uiso   1.00
H1481  H     0.22867   0.88023   0.60439   0.00000  Uiso   1.00
H1482  H     0.22496   0.72309   0.94137   0.00000  Uiso   1.00
H1483  H     0.17315   0.70109   0.95739   0.00000  Uiso   1.00
H1484  H     0.11104   0.98409   0.87004   0.00000  Uiso   1.00
H1485  H     0.08319   0.93268   0.88005   0.00000  Uiso   1.00
H1486  H     0.20318   0.73782   0.60620   0.00000  Uiso   1.00
H1487  H     0.08782   0.97197   0.92040   0.00000  Uiso   1.00
H1488  H     0.16720   0.97197   0.90120   0.00000  Uiso   1.00
H1489  H     0.16652   0.93709   0.85873   0.00000  Uiso   1.00
H1490  H     0.16689   0.76769   0.87583   0.00000  Uiso   1.00
H1491  H     0.12128   0.72938   0.89256   0.00000  Uiso   1.00
H1492  H     0.12012   0.76316   0.85750   0.00000  Uiso   1.00
H1493  H     0.09902   0.77723   0.94558   0.00000  Uiso   1.00
H1494  H     0.07894   0.79891   0.91301   0.00000  Uiso   1.00
H1495  H     0.12981   0.95113   0.96699   0.00000  Uiso   1.00
H1496  H     0.13025   0.87467   0.57311   0.00000  Uiso   1.00
H1497  H     0.17837   0.77479   0.93403   0.00000  Uiso   1.00
H1498  H     0.07715   0.92025   0.59977   0.00000  Uiso   1.00
H1499  H     0.13174   0.94673   0.59489   0.00000  Uiso   1.00
H1500  H     0.08833   0.97593   0.59752   0.00000  Uiso   1.00
N1501  N     0.20576   0.70176   0.53492   0.00000  Uiso   1.00
N1502  N     0.21728   0.67319   0.70724   0.00000  Uiso   1.00
N1503  N     0.19922   0.71783   0.96654   0.00000  Uiso   1.00
O1504  O     0.16667   0.83333   0.75000   0.00000  Uiso   1.00
O1505  O     0.15693   0.79060   0.66625   0.00000  Uiso   1.00
O1506  O     0.12687   0.87313   0.83749   0.00000  Uiso   1.00
O1507  O     0.21088   0.84159   0.65877   0.00000  Uiso   1.00
O1508  O     0.17198   0.82802   0.83749   0.00000  Uiso   1.00
O1509  O     0.17849   0.74768   0.77821   0.00000  Uiso   1.00
O1510  O     0.14581   0.92803   0.76767   0.00000  Uiso   1.00
O1511  O     0.07452   0.79917   0.73607   0.00000  Uiso   1.00
O1512  O     0.26785   0.85845   0.71806   0.00000  Uiso   1.00
O1513  O     0.06990   0.85627   0.77820   0.00000  Uiso   1.00
O1514  O     0.25440   0.81944   0.76768   0.00000  Uiso   1.00
O1515  O     0.13800   0.73570   0.73607   0.00000  Uiso   1.00
O1516  O     0.20437   0.92193   0.71805   0.00000  Uiso   1.00
Zn1517 Zn    0.19244   0.80756   0.78278   0.00000  Uiso   1.00
Zn1518 Zn    0.13459   0.79044   0.72258   0.00000  Uiso   1.00
Zn1519 Zn    0.21166   0.86331   0.71188   0.00000  Uiso   1.00
Zn1520 Zn    0.12798   0.87202   0.78277   0.00000  Uiso   1.00
C1521  C     0.38573   0.82621   0.75919   0.00000  Uiso   1.00
C1522  C     0.50795   0.78425   0.96478   0.00000  Uiso   1.00
C1523  C     0.52007   0.75757   0.98597   0.00000  Uiso   1.00
C1524  C     0.61459   0.84006   0.74076   0.00000  Uiso   1.00
C1525  C     0.52149   0.77076   0.52516   0.00000  Uiso   1.00
C1526  C     0.51288   0.81231   0.54133   0.00000  Uiso   1.00
C1527  C     0.53198   0.74440   0.54860   0.00000  Uiso   1.00
C1528  C     0.53285   0.75931   0.58704   0.00000  Uiso   1.00
C1529  C     0.52582   0.82950   0.57590   0.00000  Uiso   1.00
C1530  C     0.66111   0.84192   0.73541   0.00000  Uiso   1.00
C1531  C     0.34070   0.82484   0.76159   0.00000  Uiso   1.00
C1532  C     0.47330   0.90897   0.91453   0.00000  Uiso   1.00
C1533  C     0.51474   0.98882   0.73725   0.00000  Uiso   1.00
C1534  C     0.48528   0.67868   0.76171   0.00000  Uiso   1.00
C1535  C     0.48881   0.72284   0.75924   0.00000  Uiso   1.00
C1536  C     0.51031   0.94436   0.74116   0.00000  Uiso   1.00
C1537  C     0.52109   0.81232   0.64374   0.00000  Uiso   1.00
C1538  C     0.47889   0.85448   0.85618   0.00000  Uiso   1.00
C1539  C     0.47335   0.86632   0.89874   0.00000  Uiso   1.00
C1540  C     0.52968   0.80136   0.60096   0.00000  Uiso   1.00
C1541  C     0.46662   0.91893   0.95514   0.00000  Uiso   1.00
C1542  C     0.44427   0.93958   0.54115   0.00000  Uiso   1.00
C1543  C     0.46972   0.83510   0.92399   0.00000  Uiso   1.00
C1544  C     0.43489   0.94567   0.58614   0.00000  Uiso   1.00
C1545  C     0.35951   0.86280   0.70080   0.00000  Uiso   1.00
C1546  C     0.37092   0.90928   0.71228   0.00000  Uiso   1.00
C1547  C     0.54356   0.87571   0.58230   0.00000  Uiso   1.00
C1548  C     0.57602   0.89170   0.54509   0.00000  Uiso   1.00
C1549  C     0.48068   0.94502   0.88956   0.00000  Uiso   1.00
C1550  C     0.43797   0.95919   0.89010   0.00000  Uiso   1.00
C1551  C     0.44287   0.79288   0.91793   0.00000  Uiso   1.00
C1552  C     0.46443   0.76176   0.88394   0.00000  Uiso   1.00
C1553  C     0.47664   0.84800   0.96177   0.00000  Uiso   1.00
C1554  C     0.46843   0.88902   0.97926   0.00000  Uiso   1.00
C1555  C     0.49154   0.82187   0.98269   0.00000  Uiso   1.00
C1556  C     0.49286   0.83532   0.52187   0.00000  Uiso   1.00
C1557  C     0.47199   0.87021   0.54141   0.00000  Uiso   1.00
C1558  C     0.46208   0.89895   0.52044   0.00000  Uiso   1.00
H1559  H     0.65098   0.81077   0.78655   0.00000  Uiso   1.00
H1560  H     0.46773   0.96642   0.52934   0.00000  Uiso   1.00
H1561  H     0.41360   0.94116   0.53401   0.00000  Uiso   1.00
H1562  H     0.57019   0.69811   0.53552   0.00000  Uiso   1.00
H1563  H     0.51714   0.68257   0.55483   0.00000  Uiso   1.00
H1564  H     0.34131   0.92539   0.72206   0.00000  Uiso   1.00
H1565  H     0.38674   0.91367   0.73647   0.00000  Uiso   1.00
H1566  H     0.39360   0.92377   0.68639   0.00000  Uiso   1.00
H1567  H     0.38956   0.84743   0.68962   0.00000  Uiso   1.00
H1568  H     0.34528   0.85940   0.67559   0.00000  Uiso   1.00
H1569  H     0.53858   0.68678   0.68838   0.00000  Uiso   1.00
H1570  H     0.45819   0.99851   0.78426   0.00000  Uiso   1.00
H1571  H     0.56892   0.69663   0.72077   0.00000  Uiso   1.00
H1572  H     0.60132   0.87032   0.53265   0.00000  Uiso   1.00
H1573  H     0.56000   0.89453   0.52229   0.00000  Uiso   1.00
H1574  H     0.59193   0.92327   0.55269   0.00000  Uiso   1.00
H1575  H     0.51786   0.89639   0.59443   0.00000  Uiso   1.00
H1576  H     0.56200   0.88023   0.60439   0.00000  Uiso   1.00
H1577  H     0.55830   0.72309   0.94137   0.00000  Uiso   1.00
H1578  H     0.50648   0.70109   0.95739   0.00000  Uiso   1.00
H1579  H     0.44437   0.98409   0.87004   0.00000  Uiso   1.00
H1580  H     0.41653   0.93268   0.88005   0.00000  Uiso   1.00
H1581  H     0.53651   0.73782   0.60620   0.00000  Uiso   1.00
H1582  H     0.42116   0.97197   0.92040   0.00000  Uiso   1.00
H1583  H     0.50053   0.97197   0.90120   0.00000  Uiso   1.00
H1584  H     0.49985   0.93709   0.85873   0.00000  Uiso   1.00
H1585  H     0.50022   0.76769   0.87583   0.00000  Uiso   1.00
H1586  H     0.45461   0.72938   0.89256   0.00000  Uiso   1.00
H1587  H     0.45346   0.76316   0.85750   0.00000  Uiso   1.00
H1588  H     0.43236   0.77723   0.94558   0.00000  Uiso   1.00
H1589  H     0.41228   0.79891   0.91301   0.00000  Uiso   1.00
H1590  H     0.46314   0.95113   0.96699   0.00000  Uiso   1.00
H1591  H     0.46358   0.87467   0.57311   0.00000  Uiso   1.00
H1592  H     0.51170   0.77479   0.93403   0.00000  Uiso   1.00
H1593  H     0.41048   0.92025   0.59977   0.00000  Uiso   1.00
H1594  H     0.46508   0.94673   0.59489   0.00000  Uiso   1.00
H1595  H     0.42166   0.97593   0.59752   0.00000  Uiso   1.00
N1596  N     0.53909   0.70176   0.53492   0.00000  Uiso   1.00
N1597  N     0.55061   0.67319   0.70724   0.00000  Uiso   1.00
N1598  N     0.53256   0.71783   0.96654   0.00000  Uiso   1.00
O1599  O     0.50000   0.83333   0.75000   0.00000  Uiso   1.00
O1600  O     0.49027   0.79060   0.66625   0.00000  Uiso   1.00
O1601  O     0.46020   0.87313   0.83749   0.00000  Uiso   1.00
O1602  O     0.54421   0.84159   0.65877   0.00000  Uiso   1.00
O1603  O     0.50532   0.82802   0.83749   0.00000  Uiso   1.00
O1604  O     0.51182   0.74768   0.77821   0.00000  Uiso   1.00
O1605  O     0.47914   0.92803   0.76767   0.00000  Uiso   1.00
O1606  O     0.40785   0.79917   0.73607   0.00000  Uiso   1.00
O1607  O     0.60119   0.85845   0.71806   0.00000  Uiso   1.00
O1608  O     0.40323   0.85627   0.77820   0.00000  Uiso   1.00
O1609  O     0.58773   0.81944   0.76768   0.00000  Uiso   1.00
O1610  O     0.47133   0.73570   0.73607   0.00000  Uiso   1.00
O1611  O     0.53771   0.92193   0.71805   0.00000  Uiso   1.00
Zn1612 Zn    0.52577   0.80756   0.78278   0.00000  Uiso   1.00
Zn1613 Zn    0.46792   0.79044   0.72258   0.00000  Uiso   1.00
Zn1614 Zn    0.54500   0.86331   0.71188   0.00000  Uiso   1.00
Zn1615 Zn    0.46131   0.87202   0.78277   0.00000  Uiso   1.00
C1616  C     0.71907   0.82621   0.75919   0.00000  Uiso   1.00
C1617  C     0.84128   0.78425   0.96478   0.00000  Uiso   1.00
C1618  C     0.85341   0.75757   0.98597   0.00000  Uiso   1.00
C1619  C     0.94792   0.84006   0.74076   0.00000  Uiso   1.00
C1620  C     0.85483   0.77076   0.52516   0.00000  Uiso   1.00
C1621  C     0.84621   0.81231   0.54133   0.00000  Uiso   1.00
C1622  C     0.86531   0.74440   0.54860   0.00000  Uiso   1.00
C1623  C     0.86619   0.75931   0.58704   0.00000  Uiso   1.00
C1624  C     0.85915   0.82950   0.57590   0.00000  Uiso   1.00
C1625  C     0.99444   0.84192   0.73541   0.00000  Uiso   1.00
C1626  C     0.67404   0.82484   0.76159   0.00000  Uiso   1.00
C1627  C     0.80664   0.90897   0.91453   0.00000  Uiso   1.00
C1628  C     0.84807   0.98882   0.73725   0.00000  Uiso   1.00
C1629  C     0.81862   0.67868   0.76171   0.00000  Uiso   1.00
C1630  C     0.82214   0.72284   0.75924   0.00000  Uiso   1.00
C1631  C     0.84364   0.94436   0.74116   0.00000  Uiso   1.00
C1632  C     0.85443   0.81232   0.64374   0.00000  Uiso   1.00
C1633  C     0.81223   0.85448   0.85618   0.00000  Uiso   1.00
C1634  C     0.80668   0.86632   0.89874   0.00000  Uiso   1.00
C1635  C     0.86302   0.80136   0.60096   0.00000  Uiso   1.00
C1636  C     0.79995   0.91893   0.95514   0.00000  Uiso   1.00
C1637  C     0.77760   0.93958   0.54115   0.00000  Uiso   1.00
C1638  C     0.80306   0.83510   0.92399   0.00000  Uiso   1.00
C1639  C     0.76823   0.94567   0.58614   0.00000  Uiso   1.00
C1640  C     0.69284   0.86280   0.70080   0.00000  Uiso   1.00
C1641  C     0.70425   0.90928   0.71228   0.00000  Uiso   1.00
C1642  C     0.87689   0.87571   0.58230   0.00000  Uiso   1.00
C1643  C     0.90935   0.89170   0.54509   0.00000  Uiso   1.00
C1644  C     0.81401   0.94502   0.88956   0.00000  Uiso   1.00
C1645  C     0.77130   0.95919   0.89010   0.00000  Uiso   1.00
C1646  C     0.77620   0.79288   0.91793   0.00000  Uiso   1.00
C1647  C     0.79777   0.76176   0.88394   0.00000  Uiso   1.00
C1648  C     0.80998   0.84800   0.96177   0.00000  Uiso   1.00
C1649  C     0.80177   0.88902   0.97926   0.00000  Uiso   1.00
C1650  C     0.82487   0.82187   0.98269   0.00000  Uiso   1.00
C1651  C     0.82619   0.83532   0.52187   0.00000  Uiso   1.00
C1652  C     0.80532   0.87021   0.54141   0.00000  Uiso   1.00
C1653  C     0.79542   0.89895   0.52044   0.00000  Uiso   1.00
H1654  H     0.98432   0.81077   0.78655   0.00000  Uiso   1.00
H1655  H     0.80106   0.96642   0.52934   0.00000  Uiso   1.00
H1656  H     0.74693   0.94116   0.53401   0.00000  Uiso   1.00
H1657  H     0.90352   0.69811   0.53552   0.00000  Uiso   1.00
H1658  H     0.85047   0.68257   0.55483   0.00000  Uiso   1.00
H1659  H     0.67465   0.92539   0.72206   0.00000  Uiso   1.00
H1660  H     0.72008   0.91367   0.73647   0.00000  Uiso   1.00
H1661  H     0.72693   0.92377   0.68639   0.00000  Uiso   1.00
H1662  H     0.72290   0.84743   0.68962   0.00000  Uiso   1.00
H1663  H     0.67862   0.85940   0.67559   0.00000  Uiso   1.00
H1664  H     0.87191   0.68678   0.68838   0.00000  Uiso   1.00
H1665  H     0.79152   0.99851   0.78426   0.00000  Uiso   1.00
H1666  H     0.90226   0.69663   0.72077   0.00000  Uiso   1.00
H1667  H     0.93465   0.87032   0.53265   0.00000  Uiso   1.00
H1668  H     0.89333   0.89453   0.52229   0.00000  Uiso   1.00
H1669  H     0.92526   0.92327   0.55269   0.00000  Uiso   1.00
H1670  H     0.85120   0.89639   0.59443   0.00000  Uiso   1.00
H1671  H     0.89534   0.88023   0.60439   0.00000  Uiso   1.00
H1672  H     0.89163   0.72309   0.94137   0.00000  Uiso   1.00
H1673  H     0.83982   0.70109   0.95739   0.00000  Uiso   1.00
H1674  H     0.77770   0.98409   0.87004   0.00000  Uiso   1.00
H1675  H     0.74986   0.93268   0.88005   0.00000  Uiso   1.00
H1676  H     0.86984   0.73782   0.60620   0.00000  Uiso   1.00
H1677  H     0.75449   0.97197   0.92040   0.00000  Uiso   1.00
H1678  H     0.83386   0.97197   0.90120   0.00000  Uiso   1.00
H1679  H     0.83318   0.93709   0.85873   0.00000  Uiso   1.00
H1680  H     0.83356   0.76769   0.87583   0.00000  Uiso   1.00
H1681  H     0.78794   0.72938   0.89256   0.00000  Uiso   1.00
H1682  H     0.78679   0.76316   0.85750   0.00000  Uiso   1.00
H1683  H     0.76569   0.77723   0.94558   0.00000  Uiso   1.00
H1684  H     0.74561   0.79891   0.91301   0.00000  Uiso   1.00
H1685  H     0.79647   0.95113   0.96699   0.00000  Uiso   1.00
H1686  H     0.79692   0.87467   0.57311   0.00000  Uiso   1.00
H1687  H     0.84503   0.77479   0.93403   0.00000  Uiso   1.00
H1688  H     0.74381   0.92025   0.59977   0.00000  Uiso   1.00
H1689  H     0.79841   0.94673   0.59489   0.00000  Uiso   1.00
H1690  H     0.75499   0.97593   0.59752   0.00000  Uiso   1.00
N1691  N     0.87242   0.70176   0.53492   0.00000  Uiso   1.00
N1692  N     0.88394   0.67319   0.70724   0.00000  Uiso   1.00
N1693  N     0.86589   0.71783   0.96654   0.00000  Uiso   1.00
O1694  O     0.83333   0.83333   0.75000   0.00000  Uiso   1.00
O1695  O     0.82360   0.79060   0.66625   0.00000  Uiso   1.00
O1696  O     0.79354   0.87313   0.83749   0.00000  Uiso   1.00
O1697  O     0.87755   0.84159   0.65877   0.00000  Uiso   1.00
O1698  O     0.83865   0.82802   0.83749   0.00000  Uiso   1.00
O1699  O     0.84515   0.74768   0.77821   0.00000  Uiso   1.00
O1700  O     0.81247   0.92803   0.76767   0.00000  Uiso   1.00
O1701  O     0.74119   0.79917   0.73607   0.00000  Uiso   1.00
O1702  O     0.93452   0.85845   0.71806   0.00000  Uiso   1.00
O1703  O     0.73656   0.85627   0.77820   0.00000  Uiso   1.00
O1704  O     0.92106   0.81944   0.76768   0.00000  Uiso   1.00
O1705  O     0.80467   0.73570   0.73607   0.00000  Uiso   1.00
O1706  O     0.87104   0.92193   0.71805   0.00000  Uiso   1.00
Zn1707 Zn    0.85910   0.80756   0.78278   0.00000  Uiso   1.00
Zn1708 Zn    0.80125   0.79044   0.72258   0.00000  Uiso   1.00
Zn1709 Zn    0.87833   0.86331   0.71188   0.00000  Uiso   1.00
Zn1710 Zn    0.79465   0.87202   0.78277   0.00000  Uiso   1.00
loop_
_geom_bond_atom_site_label_1
_geom_bond_atom_site_label_2
_geom_bond_distance
_geom_bond_site_symmetry_2
_ccdc_geom_bond_type
C1     C11     1.439   .     S
C1     O86     1.270   .     A
C1     O88     1.267   .     A
C2     C35     1.403   .     A
C2     H72     1.071   .     S
C2     C3      1.395   .     A
C3     N78     1.434   .     S
C3     C860    1.413   .     S
C4     O87     1.276   .     A
C4     C10     1.464   .     S
C4     O89     1.281   .     A
C5     C6      1.427   .     A
C5     C7      1.418   .     A
C5     C858    1.413   1_554 S
C6     C9      1.430   .     A
C6     C36     1.425   .     A
C7     C8      1.393   .     A
C7     N76     1.433   .     S
C8     H61     1.085   .     S
C8     C20     1.395   .     A
C9     C20     1.408   .     A
C9     C27     1.534   .     S
C10    C106    1.344   .     S
C10    C120    1.523   .     S
C11    C200    1.344   1_455 S
C11    H229    1.086   1_455 S
C12    C29     1.518   .     S
C12    C21     1.396   .     A
C12    C19     1.420   .     A
C13    C16     1.452   .     S
C13    C299    1.340   .     S
C13    N362    1.439   .     S
C14    C15     1.435   .     S
C14    C583    1.340   1_545 S
C14    H620    1.086   1_545 S
C15    O84     1.275   .     A
C15    O90     1.276   .     A
C16    O85     1.271   .     A
C16    O91     1.267   .     A
C17    C20     1.468   .     S
C17    O82     1.277   .     A
C17    O80     1.272   .     A
C18    O81     1.284   .     A
C18    O83     1.286   .     A
C18    C19     1.475   .     S
C19    C23     1.418   .     A
C21    C34     1.404   .     A
C21    H70     1.082   .     S
C22    H41     1.112   .     S
C22    C38     1.528   .     S
C22    H40     1.109   .     S
C22    C24     1.531   .     S
C23    C33     1.424   .     A
C23    C31     1.533   .     S
C24    H73     1.111   .     S
C24    H75     1.111   .     S
C24    H74     1.110   .     S
C25    H47     1.111   .     S
C25    C26     1.526   .     S
C25    H48     1.111   .     S
C25    C200    1.523   1_455 S
C26    H44     1.111   .     S
C26    H45     1.110   .     S
C26    H46     1.111   .     S
C27    H55     1.104   .     S
C27    H56     1.105   .     S
C27    C28     1.532   .     S
C28    H52     1.111   .     S
C28    H54     1.111   .     S
C28    H53     1.108   .     S
C29    H63     1.112   .     S
C29    C30     1.527   .     S
C29    H64     1.109   .     S
C30    H60     1.110   .     S
C30    H59     1.110   .     S
C30    H62     1.111   .     S
C31    H68     1.112   .     S
C31    C32     1.535   .     S
C31    H69     1.112   .     S
C32    H67     1.110   .     S
C32    H66     1.110   .     S
C32    H65     1.109   .     S
C33    C34     1.419   .     A
C33    C35     1.426   .     A
C34    C893    1.417   .     S
C35    C891    1.413   .     S
C36    C37     1.404   .     A
C36    C890    1.413   1_554 S
C37    C38     1.403   .     A
C37    H71     1.075   .     S
C38    C889    1.417   1_554 S
H39    C106    1.086   .     S
H42    N76     1.046   .     S
H43    N76     1.045   .     S
H49    N77     1.046   .     S
H50    C299    1.086   .     S
H51    N77     1.046   .     S
H57    N78     1.046   .     S
H58    N78     1.046   .     S
N77    C583    1.439   1_545 S
O79    Zn93    1.938   .     S
O79    Zn94    1.925   .     S
O79    Zn95    1.935   .     S
O79    Zn92    1.960   .     S
O80    Zn93    1.923   .     S
O81    Zn95    1.935   .     S
O82    Zn94    1.930   .     S
O83    Zn92    1.922   .     S
O84    Zn92    1.924   .     S
O85    Zn95    1.925   .     S
O86    Zn93    1.930   .     S
O87    Zn94    1.940   .     S
O88    Zn95    1.931   .     S
O89    Zn92    1.922   .     S
O90    Zn93    1.935   .     S
O91    Zn94    1.930   .     S
C96    C106    1.439   .     S
C96    O181    1.270   .     A
C96    O183    1.267   .     A
C97    C130    1.403   .     A
C97    H167    1.071   .     S
C97    C98     1.395   .     A
C98    N173    1.434   .     S
C98    C955    1.413   .     S
C99    O182    1.276   .     A
C99    C105    1.464   .     S
C99    O184    1.281   .     A
C100   C101    1.427   .     A
C100   C102    1.418   .     A
C100   C953    1.413   1_554 S
C101   C104    1.430   .     A
C101   C131    1.425   .     A
C102   C103    1.393   .     A
C102   N171    1.433   .     S
C103   H156    1.085   .     S
C103   C115    1.395   .     A
C104   C115    1.408   .     A
C104   C122    1.534   .     S
C105   C201    1.344   .     S
C105   C215    1.523   .     S
C107   C124    1.518   .     S
C107   C116    1.396   .     A
C107   C114    1.420   .     A
C108   C111    1.452   .     S
C108   C394    1.340   .     S
C108   N457    1.439   .     S
C109   C110    1.435   .     S
C109   C678    1.340   1_545 S
C109   H715    1.086   1_545 S
C110   O179    1.275   .     A
C110   O185    1.276   .     A
C111   O180    1.271   .     A
C111   O186    1.267   .     A
C112   C115    1.468   .     S
C112   O177    1.277   .     A
C112   O175    1.272   .     A
C113   O176    1.284   .     A
C113   O178    1.286   .     A
C113   C114    1.475   .     S
C114   C118    1.418   .     A
C116   C129    1.404   .     A
C116   H165    1.082   .     S
C117   H136    1.112   .     S
C117   C133    1.528   .     S
C117   H135    1.109   .     S
C117   C119    1.531   .     S
C118   C128    1.424   .     A
C118   C126    1.533   .     S
C119   H168    1.111   .     S
C119   H170    1.111   .     S
C119   H169    1.110   .     S
C120   H142    1.111   .     S
C120   C121    1.526   .     S
C120   H143    1.111   .     S
C121   H139    1.111   .     S
C121   H140    1.110   .     S
C121   H141    1.111   .     S
C122   H150    1.104   .     S
C122   H151    1.105   .     S
C122   C123    1.532   .     S
C123   H147    1.111   .     S
C123   H149    1.111   .     S
C123   H148    1.108   .     S
C124   H158    1.112   .     S
C124   C125    1.527   .     S
C124   H159    1.109   .     S
C125   H155    1.110   .     S
C125   H154    1.110   .     S
C125   H157    1.111   .     S
C126   H163    1.112   .     S
C126   C127    1.535   .     S
C126   H164    1.112   .     S
C127   H162    1.110   .     S
C127   H161    1.110   .     S
C127   H160    1.109   .     S
C128   C129    1.419   .     A
C128   C130    1.426   .     A
C129   C988    1.417   .     S
C130   C986    1.413   .     S
C131   C132    1.404   .     A
C131   C985    1.413   1_554 S
C132   C133    1.403   .     A
C132   H166    1.075   .     S
C133   C984    1.417   1_554 S
H134   C201    1.086   .     S
H137   N171    1.046   .     S
H138   N171    1.045   .     S
H144   N172    1.046   .     S
H145   C394    1.086   .     S
H146   N172    1.046   .     S
H152   N173    1.046   .     S
H153   N173    1.046   .     S
N172   C678    1.439   1_545 S
O174   Zn188   1.938   .     S
O174   Zn189   1.925   .     S
O174   Zn190   1.935   .     S
O174   Zn187   1.960   .     S
O175   Zn188   1.923   .     S
O176   Zn190   1.935   .     S
O177   Zn189   1.930   .     S
O178   Zn187   1.922   .     S
O179   Zn187   1.924   .     S
O180   Zn190   1.925   .     S
O181   Zn188   1.930   .     S
O182   Zn189   1.940   .     S
O183   Zn190   1.931   .     S
O184   Zn187   1.922   .     S
O185   Zn188   1.935   .     S
O186   Zn189   1.930   .     S
C191   C201    1.439   .     S
C191   O276    1.270   .     A
C191   O278    1.267   .     A
C192   C225    1.403   .     A
C192   H262    1.071   .     S
C192   C193    1.395   .     A
C193   N268    1.434   .     S
C193   C1050   1.413   .     S
C194   O277    1.276   .     A
C194   C200    1.464   .     S
C194   O279    1.281   .     A
C195   C196    1.427   .     A
C195   C197    1.418   .     A
C195   C1048   1.413   1_554 S
C196   C199    1.430   .     A
C196   C226    1.425   .     A
C197   C198    1.393   .     A
C197   N266    1.433   .     S
C198   H251    1.085   .     S
C198   C210    1.395   .     A
C199   C210    1.408   .     A
C199   C217    1.534   .     S
C200   C11     1.344   1_655 S
C200   C25     1.523   1_655 S
C202   C219    1.518   .     S
C202   C211    1.396   .     A
C202   C209    1.420   .     A
C203   C206    1.452   .     S
C203   C489    1.340   .     S
C203   N552    1.439   .     S
C204   C205    1.435   .     S
C204   C773    1.340   1_545 S
C204   H810    1.086   1_545 S
C205   O274    1.275   .     A
C205   O280    1.276   .     A
C206   O275    1.271   .     A
C206   O281    1.267   .     A
C207   C210    1.468   .     S
C207   O272    1.277   .     A
C207   O270    1.272   .     A
C208   O271    1.284   .     A
C208   O273    1.286   .     A
C208   C209    1.475   .     S
C209   C213    1.418   .     A
C211   C224    1.404   .     A
C211   H260    1.082   .     S
C212   H231    1.112   .     S
C212   C228    1.528   .     S
C212   H230    1.109   .     S
C212   C214    1.531   .     S
C213   C223    1.424   .     A
C213   C221    1.533   .     S
C214   H263    1.111   .     S
C214   H265    1.111   .     S
C214   H264    1.110   .     S
C215   H237    1.111   .     S
C215   C216    1.526   .     S
C215   H238    1.111   .     S
C216   H234    1.111   .     S
C216   H235    1.110   .     S
C216   H236    1.111   .     S
C217   H245    1.104   .     S
C217   H246    1.105   .     S
C217   C218    1.532   .     S
C218   H242    1.111   .     S
C218   H244    1.111   .     S
C218   H243    1.108   .     S
C219   H253    1.112   .     S
C219   C220    1.527   .     S
C219   H254    1.109   .     S
C220   H250    1.110   .     S
C220   H249    1.110   .     S
C220   H252    1.111   .     S
C221   H258    1.112   .     S
C221   C222    1.535   .     S
C221   H259    1.112   .     S
C222   H257    1.110   .     S
C222   H256    1.110   .     S
C222   H255    1.109   .     S
C223   C224    1.419   .     A
C223   C225    1.426   .     A
C224   C1083   1.417   .     S
C225   C1081   1.413   .     S
C226   C227    1.404   .     A
C226   C1080   1.413   1_554 S
C227   C228    1.403   .     A
C227   H261    1.075   .     S
C228   C1079   1.417   1_554 S
H229   C11     1.086   1_655 S
H232   N266    1.046   .     S
H233   N266    1.045   .     S
H239   N267    1.046   .     S
H240   C489    1.086   .     S
H241   N267    1.046   .     S
H247   N268    1.046   .     S
H248   N268    1.046   .     S
N267   C773    1.439   1_545 S
O269   Zn283   1.938   .     S
O269   Zn284   1.925   .     S
O269   Zn285   1.935   .     S
O269   Zn282   1.960   .     S
O270   Zn283   1.923   .     S
O271   Zn285   1.935   .     S
O272   Zn284   1.930   .     S
O273   Zn282   1.922   .     S
O274   Zn282   1.924   .     S
O275   Zn285   1.925   .     S
O276   Zn283   1.930   .     S
O277   Zn284   1.940   .     S
O278   Zn285   1.931   .     S
O279   Zn282   1.922   .     S
O280   Zn283   1.935   .     S
O281   Zn284   1.930   .     S
C286   C296    1.439   .     S
C286   O371    1.270   .     A
C286   O373    1.267   .     A
C287   C320    1.403   .     A
C287   H357    1.071   .     S
C287   C288    1.395   .     A
C288   N363    1.434   .     S
C288   C1145   1.413   .     S
C289   O372    1.276   .     A
C289   C295    1.464   .     S
C289   O374    1.281   .     A
C290   C291    1.427   .     A
C290   C292    1.418   .     A
C290   C1143   1.413   1_554 S
C291   C294    1.430   .     A
C291   C321    1.425   .     A
C292   C293    1.393   .     A
C292   N361    1.433   .     S
C293   H346    1.085   .     S
C293   C305    1.395   .     A
C294   C305    1.408   .     A
C294   C312    1.534   .     S
C295   C391    1.344   .     S
C295   C405    1.523   .     S
C296   C485    1.344   1_455 S
C296   H514    1.086   1_455 S
C297   C314    1.518   .     S
C297   C306    1.396   .     A
C297   C304    1.420   .     A
C298   C301    1.452   .     S
C298   C584    1.340   .     S
C298   N647    1.439   .     S
C299   C300    1.435   .     S
C300   O369    1.275   .     A
C300   O375    1.276   .     A
C301   O370    1.271   .     A
C301   O376    1.267   .     A
C302   C305    1.468   .     S
C302   O367    1.277   .     A
C302   O365    1.272   .     A
C303   O366    1.284   .     A
C303   O368    1.286   .     A
C303   C304    1.475   .     S
C304   C308    1.418   .     A
C306   C319    1.404   .     A
C306   H355    1.082   .     S
C307   H326    1.112   .     S
C307   C323    1.528   .     S
C307   H325    1.109   .     S
C307   C309    1.531   .     S
C308   C318    1.424   .     A
C308   C316    1.533   .     S
C309   H358    1.111   .     S
C309   H360    1.111   .     S
C309   H359    1.110   .     S
C310   H332    1.111   .     S
C310   C311    1.526   .     S
C310   H333    1.111   .     S
C310   C485    1.523   1_455 S
C311   H329    1.111   .     S
C311   H330    1.110   .     S
C311   H331    1.111   .     S
C312   H340    1.104   .     S
C312   H341    1.105   .     S
C312   C313    1.532   .     S
C313   H337    1.111   .     S
C313   H339    1.111   .     S
C313   H338    1.108   .     S
C314   H348    1.112   .     S
C314   C315    1.527   .     S
C314   H349    1.109   .     S
C315   H345    1.110   .     S
C315   H344    1.110   .     S
C315   H347    1.111   .     S
C316   H353    1.112   .     S
C316   C317    1.535   .     S
C316   H354    1.112   .     S
C317   H352    1.110   .     S
C317   H351    1.110   .     S
C317   H350    1.109   .     S
C318   C319    1.419   .     A
C318   C320    1.426   .     A
C319   C1178   1.417   .     S
C320   C1176   1.413   .     S
C321   C322    1.404   .     A
C321   C1175   1.413   1_554 S
C322   C323    1.403   .     A
C322   H356    1.075   .     S
C323   C1174   1.417   1_554 S
H324   C391    1.086   .     S
H327   N361    1.046   .     S
H328   N361    1.045   .     S
H334   N362    1.046   .     S
H335   C584    1.086   .     S
H336   N362    1.046   .     S
H342   N363    1.046   .     S
H343   N363    1.046   .     S
O364   Zn378   1.938   .     S
O364   Zn379   1.925   .     S
O364   Zn380   1.935   .     S
O364   Zn377   1.960   .     S
O365   Zn378   1.923   .     S
O366   Zn380   1.935   .     S
O367   Zn379   1.930   .     S
O368   Zn377   1.922   .     S
O369   Zn377   1.924   .     S
O370   Zn380   1.925   .     S
O371   Zn378   1.930   .     S
O372   Zn379   1.940   .     S
O373   Zn380   1.931   .     S
O374   Zn377   1.922   .     S
O375   Zn378   1.935   .     S
O376   Zn379   1.930   .     S
C381   C391    1.439   .     S
C381   O466    1.270   .     A
C381   O468    1.267   .     A
C382   C415    1.403   .     A
C382   H452    1.071   .     S
C382   C383    1.395   .     A
C383   N458    1.434   .     S
C383   C1240   1.413   .     S
C384   O467    1.276   .     A
C384   C390    1.464   .     S
C384   O469    1.281   .     A
C385   C386    1.427   .     A
C385   C387    1.418   .     A
C385   C1238   1.413   1_554 S
C386   C389    1.430   .     A
C386   C416    1.425   .     A
C387   C388    1.393   .     A
C387   N456    1.433   .     S
C388   H441    1.085   .     S
C388   C400    1.395   .     A
C389   C400    1.408   .     A
C389   C407    1.534   .     S
C390   C486    1.344   .     S
C390   C500    1.523   .     S
C392   C409    1.518   .     S
C392   C401    1.396   .     A
C392   C399    1.420   .     A
C393   C396    1.452   .     S
C393   C679    1.340   .     S
C393   N742    1.439   .     S
C394   C395    1.435   .     S
C395   O464    1.275   .     A
C395   O470    1.276   .     A
C396   O465    1.271   .     A
C396   O471    1.267   .     A
C397   C400    1.468   .     S
C397   O462    1.277   .     A
C397   O460    1.272   .     A
C398   O461    1.284   .     A
C398   O463    1.286   .     A
C398   C399    1.475   .     S
C399   C403    1.418   .     A
C401   C414    1.404   .     A
C401   H450    1.082   .     S
C402   H421    1.112   .     S
C402   C418    1.528   .     S
C402   H420    1.109   .     S
C402   C404    1.531   .     S
C403   C413    1.424   .     A
C403   C411    1.533   .     S
C404   H453    1.111   .     S
C404   H455    1.111   .     S
C404   H454    1.110   .     S
C405   H427    1.111   .     S
C405   C406    1.526   .     S
C405   H428    1.111   .     S
C406   H424    1.111   .     S
C406   H425    1.110   .     S
C406   H426    1.111   .     S
C407   H435    1.104   .     S
C407   H436    1.105   .     S
C407   C408    1.532   .     S
C408   H432    1.111   .     S
C408   H434    1.111   .     S
C408   H433    1.108   .     S
C409   H443    1.112   .     S
C409   C410    1.527   .     S
C409   H444    1.109   .     S
C410   H440    1.110   .     S
C410   H439    1.110   .     S
C410   H442    1.111   .     S
C411   H448    1.112   .     S
C411   C412    1.535   .     S
C411   H449    1.112   .     S
C412   H447    1.110   .     S
C412   H446    1.110   .     S
C412   H445    1.109   .     S
C413   C414    1.419   .     A
C413   C415    1.426   .     A
C414   C1273   1.417   .     S
C415   C1271   1.413   .     S
C416   C417    1.404   .     A
C416   C1270   1.413   1_554 S
C417   C418    1.403   .     A
C417   H451    1.075   .     S
C418   C1269   1.417   1_554 S
H419   C486    1.086   .     S
H422   N456    1.046   .     S
H423   N456    1.045   .     S
H429   N457    1.046   .     S
H430   C679    1.086   .     S
H431   N457    1.046   .     S
H437   N458    1.046   .     S
H438   N458    1.046   .     S
O459   Zn473   1.938   .     S
O459   Zn474   1.925   .     S
O459   Zn475   1.935   .     S
O459   Zn472   1.960   .     S
O460   Zn473   1.923   .     S
O461   Zn475   1.935   .     S
O462   Zn474   1.930   .     S
O463   Zn472   1.922   .     S
O464   Zn472   1.924   .     S
O465   Zn475   1.925   .     S
O466   Zn473   1.930   .     S
O467   Zn474   1.940   .     S
O468   Zn475   1.931   .     S
O469   Zn472   1.922   .     S
O470   Zn473   1.935   .     S
O471   Zn474   1.930   .     S
C476   C486    1.439   .     S
C476   O561    1.270   .     A
C476   O563    1.267   .     A
C477   C510    1.403   .     A
C477   H547    1.071   .     S
C477   C478    1.395   .     A
C478   N553    1.434   .     S
C478   C1335   1.413   .     S
C479   O562    1.276   .     A
C479   C485    1.464   .     S
C479   O564    1.281   .     A
C480   C481    1.427   .     A
C480   C482    1.418   .     A
C480   C1333   1.413   1_554 S
C481   C484    1.430   .     A
C481   C511    1.425   .     A
C482   C483    1.393   .     A
C482   N551    1.433   .     S
C483   H536    1.085   .     S
C483   C495    1.395   .     A
C484   C495    1.408   .     A
C484   C502    1.534   .     S
C485   C296    1.344   1_655 S
C485   C310    1.523   1_655 S
C487   C504    1.518   .     S
C487   C496    1.396   .     A
C487   C494    1.420   .     A
C488   C491    1.452   .     S
C488   C774    1.340   .     S
C488   N837    1.439   .     S
C489   C490    1.435   .     S
C490   O559    1.275   .     A
C490   O565    1.276   .     A
C491   O560    1.271   .     A
C491   O566    1.267   .     A
C492   C495    1.468   .     S
C492   O557    1.277   .     A
C492   O555    1.272   .     A
C493   O556    1.284   .     A
C493   O558    1.286   .     A
C493   C494    1.475   .     S
C494   C498    1.418   .     A
C496   C509    1.404   .     A
C496   H545    1.082   .     S
C497   H516    1.112   .     S
C497   C513    1.528   .     S
C497   H515    1.109   .     S
C497   C499    1.531   .     S
C498   C508    1.424   .     A
C498   C506    1.533   .     S
C499   H548    1.111   .     S
C499   H550    1.111   .     S
C499   H549    1.110   .     S
C500   H522    1.111   .     S
C500   C501    1.526   .     S
C500   H523    1.111   .     S
C501   H519    1.111   .     S
C501   H520    1.110   .     S
C501   H521    1.111   .     S
C502   H530    1.104   .     S
C502   H531    1.105   .     S
C502   C503    1.532   .     S
C503   H527    1.111   .     S
C503   H529    1.111   .     S
C503   H528    1.108   .     S
C504   H538    1.112   .     S
C504   C505    1.527   .     S
C504   H539    1.109   .     S
C505   H535    1.110   .     S
C505   H534    1.110   .     S
C505   H537    1.111   .     S
C506   H543    1.112   .     S
C506   C507    1.535   .     S
C506   H544    1.112   .     S
C507   H542    1.110   .     S
C507   H541    1.110   .     S
C507   H540    1.109   .     S
C508   C509    1.419   .     A
C508   C510    1.426   .     A
C509   C1368   1.417   .     S
C510   C1366   1.413   .     S
C511   C512    1.404   .     A
C511   C1365   1.413   1_554 S
C512   C513    1.403   .     A
C512   H546    1.075   .     S
C513   C1364   1.417   1_554 S
H514   C296    1.086   1_655 S
H517   N551    1.046   .     S
H518   N551    1.045   .     S
H524   N552    1.046   .     S
H525   C774    1.086   .     S
H526   N552    1.046   .     S
H532   N553    1.046   .     S
H533   N553    1.046   .     S
O554   Zn568   1.938   .     S
O554   Zn569   1.925   .     S
O554   Zn570   1.935   .     S
O554   Zn567   1.960   .     S
O555   Zn568   1.923   .     S
O556   Zn570   1.935   .     S
O557   Zn569   1.930   .     S
O558   Zn567   1.922   .     S
O559   Zn567   1.924   .     S
O560   Zn570   1.925   .     S
O561   Zn568   1.930   .     S
O562   Zn569   1.940   .     S
O563   Zn570   1.931   .     S
O564   Zn567   1.922   .     S
O565   Zn568   1.935   .     S
O566   Zn569   1.930   .     S
C571   C581    1.439   .     S
C571   O656    1.270   .     A
C571   O658    1.267   .     A
C572   C605    1.403   .     A
C572   H642    1.071   .     S
C572   C573    1.395   .     A
C573   N648    1.434   .     S
C573   C1430   1.413   .     S
C574   O657    1.276   .     A
C574   C580    1.464   .     S
C574   O659    1.281   .     A
C575   C576    1.427   .     A
C575   C577    1.418   .     A
C575   C1428   1.413   1_554 S
C576   C579    1.430   .     A
C576   C606    1.425   .     A
C577   C578    1.393   .     A
C577   N646    1.433   .     S
C578   H631    1.085   .     S
C578   C590    1.395   .     A
C579   C590    1.408   .     A
C579   C597    1.534   .     S
C580   C676    1.344   .     S
C580   C690    1.523   .     S
C581   C770    1.344   1_455 S
C581   H799    1.086   1_455 S
C582   C599    1.518   .     S
C582   C591    1.396   .     A
C582   C589    1.420   .     A
C583   C586    1.452   .     S
C583   C14     1.340   1_565 S
C583   N77     1.439   1_565 S
C584   C585    1.435   .     S
C585   O654    1.275   .     A
C585   O660    1.276   .     A
C586   O655    1.271   .     A
C586   O661    1.267   .     A
C587   C590    1.468   .     S
C587   O652    1.277   .     A
C587   O650    1.272   .     A
C588   O651    1.284   .     A
C588   O653    1.286   .     A
C588   C589    1.475   .     S
C589   C593    1.418   .     A
C591   C604    1.404   .     A
C591   H640    1.082   .     S
C592   H611    1.112   .     S
C592   C608    1.528   .     S
C592   H610    1.109   .     S
C592   C594    1.531   .     S
C593   C603    1.424   .     A
C593   C601    1.533   .     S
C594   H643    1.111   .     S
C594   H645    1.111   .     S
C594   H644    1.110   .     S
C595   H617    1.111   .     S
C595   C596    1.526   .     S
C595   H618    1.111   .     S
C595   C770    1.523   1_455 S
C596   H614    1.111   .     S
C596   H615    1.110   .     S
C596   H616    1.111   .     S
C597   H625    1.104   .     S
C597   H626    1.105   .     S
C597   C598    1.532   .     S
C598   H622    1.111   .     S
C598   H624    1.111   .     S
C598   H623    1.108   .     S
C599   H633    1.112   .     S
C599   C600    1.527   .     S
C599   H634    1.109   .     S
C600   H630    1.110   .     S
C600   H629    1.110   .     S
C600   H632    1.111   .     S
C601   H638    1.112   .     S
C601   C602    1.535   .     S
C601   H639    1.112   .     S
C602   H637    1.110   .     S
C602   H636    1.110   .     S
C602   H635    1.109   .     S
C603   C604    1.419   .     A
C603   C605    1.426   .     A
C604   C1463   1.417   .     S
C605   C1461   1.413   .     S
C606   C607    1.404   .     A
C606   C1460   1.413   1_554 S
C607   C608    1.403   .     A
C607   H641    1.075   .     S
C608   C1459   1.417   1_554 S
H609   C676    1.086   .     S
H612   N646    1.046   .     S
H613   N646    1.045   .     S
H619   N647    1.046   .     S
H620   C14     1.086   1_565 S
H621   N647    1.046   .     S
H627   N648    1.046   .     S
H628   N648    1.046   .     S
O649   Zn663   1.938   .     S
O649   Zn664   1.925   .     S
O649   Zn665   1.935   .     S
O649   Zn662   1.960   .     S
O650   Zn663   1.923   .     S
O651   Zn665   1.935   .     S
O652   Zn664   1.930   .     S
O653   Zn662   1.922   .     S
O654   Zn662   1.924   .     S
O655   Zn665   1.925   .     S
O656   Zn663   1.930   .     S
O657   Zn664   1.940   .     S
O658   Zn665   1.931   .     S
O659   Zn662   1.922   .     S
O660   Zn663   1.935   .     S
O661   Zn664   1.930   .     S
C666   C676    1.439   .     S
C666   O751    1.270   .     A
C666   O753    1.267   .     A
C667   C700    1.403   .     A
C667   H737    1.071   .     S
C667   C668    1.395   .     A
C668   N743    1.434   .     S
C668   C1525   1.413   .     S
C669   O752    1.276   .     A
C669   C675    1.464   .     S
C669   O754    1.281   .     A
C670   C671    1.427   .     A
C670   C672    1.418   .     A
C670   C1523   1.413   1_554 S
C671   C674    1.430   .     A
C671   C701    1.425   .     A
C672   C673    1.393   .     A
C672   N741    1.433   .     S
C673   H726    1.085   .     S
C673   C685    1.395   .     A
C674   C685    1.408   .     A
C674   C692    1.534   .     S
C675   C771    1.344   .     S
C675   C785    1.523   .     S
C677   C694    1.518   .     S
C677   C686    1.396   .     A
C677   C684    1.420   .     A
C678   C681    1.452   .     S
C678   C109    1.340   1_565 S
C678   N172    1.439   1_565 S
C679   C680    1.435   .     S
C680   O749    1.275   .     A
C680   O755    1.276   .     A
C681   O750    1.271   .     A
C681   O756    1.267   .     A
C682   C685    1.468   .     S
C682   O747    1.277   .     A
C682   O745    1.272   .     A
C683   O746    1.284   .     A
C683   O748    1.286   .     A
C683   C684    1.475   .     S
C684   C688    1.418   .     A
C686   C699    1.404   .     A
C686   H735    1.082   .     S
C687   H706    1.112   .     S
C687   C703    1.528   .     S
C687   H705    1.109   .     S
C687   C689    1.531   .     S
C688   C698    1.424   .     A
C688   C696    1.533   .     S
C689   H738    1.111   .     S
C689   H740    1.111   .     S
C689   H739    1.110   .     S
C690   H712    1.111   .     S
C690   C691    1.526   .     S
C690   H713    1.111   .     S
C691   H709    1.111   .     S
C691   H710    1.110   .     S
C691   H711    1.111   .     S
C692   H720    1.104   .     S
C692   H721    1.105   .     S
C692   C693    1.532   .     S
C693   H717    1.111   .     S
C693   H719    1.111   .     S
C693   H718    1.108   .     S
C694   H728    1.112   .     S
C694   C695    1.527   .     S
C694   H729    1.109   .     S
C695   H725    1.110   .     S
C695   H724    1.110   .     S
C695   H727    1.111   .     S
C696   H733    1.112   .     S
C696   C697    1.535   .     S
C696   H734    1.112   .     S
C697   H732    1.110   .     S
C697   H731    1.110   .     S
C697   H730    1.109   .     S
C698   C699    1.419   .     A
C698   C700    1.426   .     A
C699   C1558   1.417   .     S
C700   C1556   1.413   .     S
C701   C702    1.404   .     A
C701   C1555   1.413   1_554 S
C702   C703    1.403   .     A
C702   H736    1.075   .     S
C703   C1554   1.417   1_554 S
H704   C771    1.086   .     S
H707   N741    1.046   .     S
H708   N741    1.045   .     S
H714   N742    1.046   .     S
H715   C109    1.086   1_565 S
H716   N742    1.046   .     S
H722   N743    1.046   .     S
H723   N743    1.046   .     S
O744   Zn758   1.938   .     S
O744   Zn759   1.925   .     S
O744   Zn760   1.935   .     S
O744   Zn757   1.960   .     S
O745   Zn758   1.923   .     S
O746   Zn760   1.935   .     S
O747   Zn759   1.930   .     S
O748   Zn757   1.922   .     S
O749   Zn757   1.924   .     S
O750   Zn760   1.925   .     S
O751   Zn758   1.930   .     S
O752   Zn759   1.940   .     S
O753   Zn760   1.931   .     S
O754   Zn757   1.922   .     S
O755   Zn758   1.935   .     S
O756   Zn759   1.930   .     S
C761   C771    1.439   .     S
C761   O846    1.270   .     A
C761   O848    1.267   .     A
C762   C795    1.403   .     A
C762   H832    1.071   .     S
C762   C763    1.395   .     A
C763   N838    1.434   .     S
C763   C1620   1.413   .     S
C764   O847    1.276   .     A
C764   C770    1.464   .     S
C764   O849    1.281   .     A
C765   C766    1.427   .     A
C765   C767    1.418   .     A
C765   C1618   1.413   1_554 S
C766   C769    1.430   .     A
C766   C796    1.425   .     A
C767   C768    1.393   .     A
C767   N836    1.433   .     S
C768   H821    1.085   .     S
C768   C780    1.395   .     A
C769   C780    1.408   .     A
C769   C787    1.534   .     S
C770   C581    1.344   1_655 S
C770   C595    1.523   1_655 S
C772   C789    1.518   .     S
C772   C781    1.396   .     A
C772   C779    1.420   .     A
C773   C776    1.452   .     S
C773   C204    1.340   1_565 S
C773   N267    1.439   1_565 S
C774   C775    1.435   .     S
C775   O844    1.275   .     A
C775   O850    1.276   .     A
C776   O845    1.271   .     A
C776   O851    1.267   .     A
C777   C780    1.468   .     S
C777   O842    1.277   .     A
C777   O840    1.272   .     A
C778   O841    1.284   .     A
C778   O843    1.286   .     A
C778   C779    1.475   .     S
C779   C783    1.418   .     A
C781   C794    1.404   .     A
C781   H830    1.082   .     S
C782   H801    1.112   .     S
C782   C798    1.528   .     S
C782   H800    1.109   .     S
C782   C784    1.531   .     S
C783   C793    1.424   .     A
C783   C791    1.533   .     S
C784   H833    1.111   .     S
C784   H835    1.111   .     S
C784   H834    1.110   .     S
C785   H807    1.111   .     S
C785   C786    1.526   .     S
C785   H808    1.111   .     S
C786   H804    1.111   .     S
C786   H805    1.110   .     S
C786   H806    1.111   .     S
C787   H815    1.104   .     S
C787   H816    1.105   .     S
C787   C788    1.532   .     S
C788   H812    1.111   .     S
C788   H814    1.111   .     S
C788   H813    1.108   .     S
C789   H823    1.112   .     S
C789   C790    1.527   .     S
C789   H824    1.109   .     S
C790   H820    1.110   .     S
C790   H819    1.110   .     S
C790   H822    1.111   .     S
C791   H828    1.112   .     S
C791   C792    1.535   .     S
C791   H829    1.112   .     S
C792   H827    1.110   .     S
C792   H826    1.110   .     S
C792   H825    1.109   .     S
C793   C794    1.419   .     A
C793   C795    1.426   .     A
C794   C1653   1.417   .     S
C795   C1651   1.413   .     S
C796   C797    1.404   .     A
C796   C1650   1.413   1_554 S
C797   C798    1.403   .     A
C797   H831    1.075   .     S
C798   C1649   1.417   1_554 S
H799   C581    1.086   1_655 S
H802   N836    1.046   .     S
H803   N836    1.045   .     S
H809   N837    1.046   .     S
H810   C204    1.086   1_565 S
H811   N837    1.046   .     S
H817   N838    1.046   .     S
H818   N838    1.046   .     S
O839   Zn853   1.938   .     S
O839   Zn854   1.925   .     S
O839   Zn855   1.935   .     S
O839   Zn852   1.960   .     S
O840   Zn853   1.923   .     S
O841   Zn855   1.935   .     S
O842   Zn854   1.930   .     S
O843   Zn852   1.922   .     S
O844   Zn852   1.924   .     S
O845   Zn855   1.925   .     S
O846   Zn853   1.930   .     S
O847   Zn854   1.940   .     S
O848   Zn855   1.931   .     S
O849   Zn852   1.922   .     S
O850   Zn853   1.935   .     S
O851   Zn854   1.930   .     S
C856   C866    1.439   .     S
C856   O941    1.270   .     A
C856   O943    1.267   .     A
C857   C890    1.403   .     A
C857   H927    1.071   .     S
C857   C858    1.395   .     A
C858   N933    1.434   .     S
C858   C5      1.413   1_556 S
C859   O942    1.276   .     A
C859   C865    1.464   .     S
C859   O944    1.281   .     A
C860   C861    1.427   .     A
C860   C862    1.418   .     A
C861   C864    1.430   .     A
C861   C891    1.425   .     A
C862   C863    1.393   .     A
C862   N931    1.433   .     S
C863   H916    1.085   .     S
C863   C875    1.395   .     A
C864   C875    1.408   .     A
C864   C882    1.534   .     S
C865   C961    1.344   .     S
C865   C975    1.523   .     S
C866   C1055   1.344   1_455 S
C866   H1084   1.086   1_455 S
C867   C884    1.518   .     S
C867   C876    1.396   .     A
C867   C874    1.420   .     A
C868   C871    1.452   .     S
C868   C1154   1.340   .     S
C868   N1217   1.439   .     S
C869   C870    1.435   .     S
C869   C1438   1.340   1_545 S
C869   H1475   1.086   1_545 S
C870   O939    1.275   .     A
C870   O945    1.276   .     A
C871   O940    1.271   .     A
C871   O946    1.267   .     A
C872   C875    1.468   .     S
C872   O937    1.277   .     A
C872   O935    1.272   .     A
C873   O936    1.284   .     A
C873   O938    1.286   .     A
C873   C874    1.475   .     S
C874   C878    1.418   .     A
C876   C889    1.404   .     A
C876   H925    1.082   .     S
C877   H896    1.112   .     S
C877   C893    1.528   .     S
C877   H895    1.109   .     S
C877   C879    1.531   .     S
C878   C888    1.424   .     A
C878   C886    1.533   .     S
C879   H928    1.111   .     S
C879   H930    1.111   .     S
C879   H929    1.110   .     S
C880   H902    1.111   .     S
C880   C881    1.526   .     S
C880   H903    1.111   .     S
C880   C1055   1.523   1_455 S
C881   H899    1.111   .     S
C881   H900    1.110   .     S
C881   H901    1.111   .     S
C882   H910    1.104   .     S
C882   H911    1.105   .     S
C882   C883    1.532   .     S
C883   H907    1.111   .     S
C883   H909    1.111   .     S
C883   H908    1.108   .     S
C884   H918    1.112   .     S
C884   C885    1.527   .     S
C884   H919    1.109   .     S
C885   H915    1.110   .     S
C885   H914    1.110   .     S
C885   H917    1.111   .     S
C886   H923    1.112   .     S
C886   C887    1.535   .     S
C886   H924    1.112   .     S
C887   H922    1.110   .     S
C887   H921    1.110   .     S
C887   H920    1.109   .     S
C888   C889    1.419   .     A
C888   C890    1.426   .     A
C889   C38     1.417   1_556 S
C890   C36     1.413   1_556 S
C891   C892    1.404   .     A
C892   C893    1.403   .     A
C892   H926    1.075   .     S
H894   C961    1.086   .     S
H897   N931    1.046   .     S
H898   N931    1.045   .     S
H904   N932    1.046   .     S
H905   C1154   1.086   .     S
H906   N932    1.046   .     S
H912   N933    1.046   .     S
H913   N933    1.046   .     S
N932   C1438   1.439   1_545 S
O934   Zn948   1.938   .     S
O934   Zn949   1.925   .     S
O934   Zn950   1.935   .     S
O934   Zn947   1.960   .     S
O935   Zn948   1.923   .     S
O936   Zn950   1.935   .     S
O937   Zn949   1.930   .     S
O938   Zn947   1.922   .     S
O939   Zn947   1.924   .     S
O940   Zn950   1.925   .     S
O941   Zn948   1.930   .     S
O942   Zn949   1.940   .     S
O943   Zn950   1.931   .     S
O944   Zn947   1.922   .     S
O945   Zn948   1.935   .     S
O946   Zn949   1.930   .     S
C951   C961    1.439   .     S
C951   O1036   1.270   .     A
C951   O1038   1.267   .     A
C952   C985    1.403   .     A
C952   H1022   1.071   .     S
C952   C953    1.395   .     A
C953   N1028   1.434   .     S
C953   C100    1.413   1_556 S
C954   O1037   1.276   .     A
C954   C960    1.464   .     S
C954   O1039   1.281   .     A
C955   C956    1.427   .     A
C955   C957    1.418   .     A
C956   C959    1.430   .     A
C956   C986    1.425   .     A
C957   C958    1.393   .     A
C957   N1026   1.433   .     S
C958   H1011   1.085   .     S
C958   C970    1.395   .     A
C959   C970    1.408   .     A
C959   C977    1.534   .     S
C960   C1056   1.344   .     S
C960   C1070   1.523   .     S
C962   C979    1.518   .     S
C962   C971    1.396   .     A
C962   C969    1.420   .     A
C963   C966    1.452   .     S
C963   C1249   1.340   .     S
C963   N1312   1.439   .     S
C964   C965    1.435   .     S
C964   C1533   1.340   1_545 S
C964   H1570   1.086   1_545 S
C965   O1034   1.275   .     A
C965   O1040   1.276   .     A
C966   O1035   1.271   .     A
C966   O1041   1.267   .     A
C967   C970    1.468   .     S
C967   O1032   1.277   .     A
C967   O1030   1.272   .     A
C968   O1031   1.284   .     A
C968   O1033   1.286   .     A
C968   C969    1.475   .     S
C969   C973    1.418   .     A
C971   C984    1.404   .     A
C971   H1020   1.082   .     S
C972   H991    1.112   .     S
C972   C988    1.528   .     S
C972   H990    1.109   .     S
C972   C974    1.531   .     S
C973   C983    1.424   .     A
C973   C981    1.533   .     S
C974   H1023   1.111   .     S
C974   H1025   1.111   .     S
C974   H1024   1.110   .     S
C975   H997    1.111   .     S
C975   C976    1.526   .     S
C975   H998    1.111   .     S
C976   H994    1.111   .     S
C976   H995    1.110   .     S
C976   H996    1.111   .     S
C977   H1005   1.104   .     S
C977   H1006   1.105   .     S
C977   C978    1.532   .     S
C978   H1002   1.111   .     S
C978   H1004   1.111   .     S
C978   H1003   1.108   .     S
C979   H1013   1.112   .     S
C979   C980    1.527   .     S
C979   H1014   1.109   .     S
C980   H1010   1.110   .     S
C980   H1009   1.110   .     S
C980   H1012   1.111   .     S
C981   H1018   1.112   .     S
C981   C982    1.535   .     S
C981   H1019   1.112   .     S
C982   H1017   1.110   .     S
C982   H1016   1.110   .     S
C982   H1015   1.109   .     S
C983   C984    1.419   .     A
C983   C985    1.426   .     A
C984   C133    1.417   1_556 S
C985   C131    1.413   1_556 S
C986   C987    1.404   .     A
C987   C988    1.403   .     A
C987   H1021   1.075   .     S
H989   C1056   1.086   .     S
H992   N1026   1.046   .     S
H993   N1026   1.045   .     S
H999   N1027   1.046   .     S
H1000  C1249   1.086   .     S
H1001  N1027   1.046   .     S
H1007  N1028   1.046   .     S
H1008  N1028   1.046   .     S
N1027  C1533   1.439   1_545 S
O1029  Zn1043  1.938   .     S
O1029  Zn1044  1.925   .     S
O1029  Zn1045  1.935   .     S
O1029  Zn1042  1.960   .     S
O1030  Zn1043  1.923   .     S
O1031  Zn1045  1.935   .     S
O1032  Zn1044  1.930   .     S
O1033  Zn1042  1.922   .     S
O1034  Zn1042  1.924   .     S
O1035  Zn1045  1.925   .     S
O1036  Zn1043  1.930   .     S
O1037  Zn1044  1.940   .     S
O1038  Zn1045  1.931   .     S
O1039  Zn1042  1.922   .     S
O1040  Zn1043  1.935   .     S
O1041  Zn1044  1.930   .     S
C1046  C1056   1.439   .     S
C1046  O1131   1.270   .     A
C1046  O1133   1.267   .     A
C1047  C1080   1.403   .     A
C1047  H1117   1.071   .     S
C1047  C1048   1.395   .     A
C1048  N1123   1.434   .     S
C1048  C195    1.413   1_556 S
C1049  O1132   1.276   .     A
C1049  C1055   1.464   .     S
C1049  O1134   1.281   .     A
C1050  C1051   1.427   .     A
C1050  C1052   1.418   .     A
C1051  C1054   1.430   .     A
C1051  C1081   1.425   .     A
C1052  C1053   1.393   .     A
C1052  N1121   1.433   .     S
C1053  H1106   1.085   .     S
C1053  C1065   1.395   .     A
C1054  C1065   1.408   .     A
C1054  C1072   1.534   .     S
C1055  C866    1.344   1_655 S
C1055  C880    1.523   1_655 S
C1057  C1074   1.518   .     S
C1057  C1066   1.396   .     A
C1057  C1064   1.420   .     A
C1058  C1061   1.452   .     S
C1058  C1344   1.340   .     S
C1058  N1407   1.439   .     S
C1059  C1060   1.435   .     S
C1059  C1628   1.340   1_545 S
C1059  H1665   1.086   1_545 S
C1060  O1129   1.275   .     A
C1060  O1135   1.276   .     A
C1061  O1130   1.271   .     A
C1061  O1136   1.267   .     A
C1062  C1065   1.468   .     S
C1062  O1127   1.277   .     A
C1062  O1125   1.272   .     A
C1063  O1126   1.284   .     A
C1063  O1128   1.286   .     A
C1063  C1064   1.475   .     S
C1064  C1068   1.418   .     A
C1066  C1079   1.404   .     A
C1066  H1115   1.082   .     S
C1067  H1086   1.112   .     S
C1067  C1083   1.528   .     S
C1067  H1085   1.109   .     S
C1067  C1069   1.531   .     S
C1068  C1078   1.424   .     A
C1068  C1076   1.533   .     S
C1069  H1118   1.111   .     S
C1069  H1120   1.111   .     S
C1069  H1119   1.110   .     S
C1070  H1092   1.111   .     S
C1070  C1071   1.526   .     S
C1070  H1093   1.111   .     S
C1071  H1089   1.111   .     S
C1071  H1090   1.110   .     S
C1071  H1091   1.111   .     S
C1072  H1100   1.104   .     S
C1072  H1101   1.105   .     S
C1072  C1073   1.532   .     S
C1073  H1097   1.111   .     S
C1073  H1099   1.111   .     S
C1073  H1098   1.108   .     S
C1074  H1108   1.112   .     S
C1074  C1075   1.527   .     S
C1074  H1109   1.109   .     S
C1075  H1105   1.110   .     S
C1075  H1104   1.110   .     S
C1075  H1107   1.111   .     S
C1076  H1113   1.112   .     S
C1076  C1077   1.535   .     S
C1076  H1114   1.112   .     S
C1077  H1112   1.110   .     S
C1077  H1111   1.110   .     S
C1077  H1110   1.109   .     S
C1078  C1079   1.419   .     A
C1078  C1080   1.426   .     A
C1079  C228    1.417   1_556 S
C1080  C226    1.413   1_556 S
C1081  C1082   1.404   .     A
C1082  C1083   1.403   .     A
C1082  H1116   1.075   .     S
H1084  C866    1.086   1_655 S
H1087  N1121   1.046   .     S
H1088  N1121   1.045   .     S
H1094  N1122   1.046   .     S
H1095  C1344   1.086   .     S
H1096  N1122   1.046   .     S
H1102  N1123   1.046   .     S
H1103  N1123   1.046   .     S
N1122  C1628   1.439   1_545 S
O1124  Zn1138  1.938   .     S
O1124  Zn1139  1.925   .     S
O1124  Zn1140  1.935   .     S
O1124  Zn1137  1.960   .     S
O1125  Zn1138  1.923   .     S
O1126  Zn1140  1.935   .     S
O1127  Zn1139  1.930   .     S
O1128  Zn1137  1.922   .     S
O1129  Zn1137  1.924   .     S
O1130  Zn1140  1.925   .     S
O1131  Zn1138  1.930   .     S
O1132  Zn1139  1.940   .     S
O1133  Zn1140  1.931   .     S
O1134  Zn1137  1.922   .     S
O1135  Zn1138  1.935   .     S
O1136  Zn1139  1.930   .     S
C1141  C1151   1.439   .     S
C1141  O1226   1.270   .     A
C1141  O1228   1.267   .     A
C1142  C1175   1.403   .     A
C1142  H1212   1.071   .     S
C1142  C1143   1.395   .     A
C1143  N1218   1.434   .     S
C1143  C290    1.413   1_556 S
C1144  O1227   1.276   .     A
C1144  C1150   1.464   .     S
C1144  O1229   1.281   .     A
C1145  C1146   1.427   .     A
C1145  C1147   1.418   .     A
C1146  C1149   1.430   .     A
C1146  C1176   1.425   .     A
C1147  C1148   1.393   .     A
C1147  N1216   1.433   .     S
C1148  H1201   1.085   .     S
C1148  C1160   1.395   .     A
C1149  C1160   1.408   .     A
C1149  C1167   1.534   .     S
C1150  C1246   1.344   .     S
C1150  C1260   1.523   .     S
C1151  C1340   1.344   1_455 S
C1151  H1369   1.086   1_455 S
C1152  C1169   1.518   .     S
C1152  C1161   1.396   .     A
C1152  C1159   1.420   .     A
C1153  C1156   1.452   .     S
C1153  C1439   1.340   .     S
C1153  N1502   1.439   .     S
C1154  C1155   1.435   .     S
C1155  O1224   1.275   .     A
C1155  O1230   1.276   .     A
C1156  O1225   1.271   .     A
C1156  O1231   1.267   .     A
C1157  C1160   1.468   .     S
C1157  O1222   1.277   .     A
C1157  O1220   1.272   .     A
C1158  O1221   1.284   .     A
C1158  O1223   1.286   .     A
C1158  C1159   1.475   .     S
C1159  C1163   1.418   .     A
C1161  C1174   1.404   .     A
C1161  H1210   1.082   .     S
C1162  H1181   1.112   .     S
C1162  C1178   1.528   .     S
C1162  H1180   1.109   .     S
C1162  C1164   1.531   .     S
C1163  C1173   1.424   .     A
C1163  C1171   1.533   .     S
C1164  H1213   1.111   .     S
C1164  H1215   1.111   .     S
C1164  H1214   1.110   .     S
C1165  H1187   1.111   .     S
C1165  C1166   1.526   .     S
C1165  H1188   1.111   .     S
C1165  C1340   1.523   1_455 S
C1166  H1184   1.111   .     S
C1166  H1185   1.110   .     S
C1166  H1186   1.111   .     S
C1167  H1195   1.104   .     S
C1167  H1196   1.105   .     S
C1167  C1168   1.532   .     S
C1168  H1192   1.111   .     S
C1168  H1194   1.111   .     S
C1168  H1193   1.108   .     S
C1169  H1203   1.112   .     S
C1169  C1170   1.527   .     S
C1169  H1204   1.109   .     S
C1170  H1200   1.110   .     S
C1170  H1199   1.110   .     S
C1170  H1202   1.111   .     S
C1171  H1208   1.112   .     S
C1171  C1172   1.535   .     S
C1171  H1209   1.112   .     S
C1172  H1207   1.110   .     S
C1172  H1206   1.110   .     S
C1172  H1205   1.109   .     S
C1173  C1174   1.419   .     A
C1173  C1175   1.426   .     A
C1174  C323    1.417   1_556 S
C1175  C321    1.413   1_556 S
C1176  C1177   1.404   .     A
C1177  C1178   1.403   .     A
C1177  H1211   1.075   .     S
H1179  C1246   1.086   .     S
H1182  N1216   1.046   .     S
H1183  N1216   1.045   .     S
H1189  N1217   1.046   .     S
H1190  C1439   1.086   .     S
H1191  N1217   1.046   .     S
H1197  N1218   1.046   .     S
H1198  N1218   1.046   .     S
O1219  Zn1233  1.938   .     S
O1219  Zn1234  1.925   .     S
O1219  Zn1235  1.935   .     S
O1219  Zn1232  1.960   .     S
O1220  Zn1233  1.923   .     S
O1221  Zn1235  1.935   .     S
O1222  Zn1234  1.930   .     S
O1223  Zn1232  1.922   .     S
O1224  Zn1232  1.924   .     S
O1225  Zn1235  1.925   .     S
O1226  Zn1233  1.930   .     S
O1227  Zn1234  1.940   .     S
O1228  Zn1235  1.931   .     S
O1229  Zn1232  1.922   .     S
O1230  Zn1233  1.935   .     S
O1231  Zn1234  1.930   .     S
C1236  C1246   1.439   .     S
C1236  O1321   1.270   .     A
C1236  O1323   1.267   .     A
C1237  C1270   1.403   .     A
C1237  H1307   1.071   .     S
C1237  C1238   1.395   .     A
C1238  N1313   1.434   .     S
C1238  C385    1.413   1_556 S
C1239  O1322   1.276   .     A
C1239  C1245   1.464   .     S
C1239  O1324   1.281   .     A
C1240  C1241   1.427   .     A
C1240  C1242   1.418   .     A
C1241  C1244   1.430   .     A
C1241  C1271   1.425   .     A
C1242  C1243   1.393   .     A
C1242  N1311   1.433   .     S
C1243  H1296   1.085   .     S
C1243  C1255   1.395   .     A
C1244  C1255   1.408   .     A
C1244  C1262   1.534   .     S
C1245  C1341   1.344   .     S
C1245  C1355   1.523   .     S
C1247  C1264   1.518   .     S
C1247  C1256   1.396   .     A
C1247  C1254   1.420   .     A
C1248  C1251   1.452   .     S
C1248  C1534   1.340   .     S
C1248  N1597   1.439   .     S
C1249  C1250   1.435   .     S
C1250  O1319   1.275   .     A
C1250  O1325   1.276   .     A
C1251  O1320   1.271   .     A
C1251  O1326   1.267   .     A
C1252  C1255   1.468   .     S
C1252  O1317   1.277   .     A
C1252  O1315   1.272   .     A
C1253  O1316   1.284   .     A
C1253  O1318   1.286   .     A
C1253  C1254   1.475   .     S
C1254  C1258   1.418   .     A
C1256  C1269   1.404   .     A
C1256  H1305   1.082   .     S
C1257  H1276   1.112   .     S
C1257  C1273   1.528   .     S
C1257  H1275   1.109   .     S
C1257  C1259   1.531   .     S
C1258  C1268   1.424   .     A
C1258  C1266   1.533   .     S
C1259  H1308   1.111   .     S
C1259  H1310   1.111   .     S
C1259  H1309   1.110   .     S
C1260  H1282   1.111   .     S
C1260  C1261   1.526   .     S
C1260  H1283   1.111   .     S
C1261  H1279   1.111   .     S
C1261  H1280   1.110   .     S
C1261  H1281   1.111   .     S
C1262  H1290   1.104   .     S
C1262  H1291   1.105   .     S
C1262  C1263   1.532   .     S
C1263  H1287   1.111   .     S
C1263  H1289   1.111   .     S
C1263  H1288   1.108   .     S
C1264  H1298   1.112   .     S
C1264  C1265   1.527   .     S
C1264  H1299   1.109   .     S
C1265  H1295   1.110   .     S
C1265  H1294   1.110   .     S
C1265  H1297   1.111   .     S
C1266  H1303   1.112   .     S
C1266  C1267   1.535   .     S
C1266  H1304   1.112   .     S
C1267  H1302   1.110   .     S
C1267  H1301   1.110   .     S
C1267  H1300   1.109   .     S
C1268  C1269   1.419   .     A
C1268  C1270   1.426   .     A
C1269  C418    1.417   1_556 S
C1270  C416    1.413   1_556 S
C1271  C1272   1.404   .     A
C1272  C1273   1.403   .     A
C1272  H1306   1.075   .     S
H1274  C1341   1.086   .     S
H1277  N1311   1.046   .     S
H1278  N1311   1.045   .     S
H1284  N1312   1.046   .     S
H1285  C1534   1.086   .     S
H1286  N1312   1.046   .     S
H1292  N1313   1.046   .     S
H1293  N1313   1.046   .     S
O1314  Zn1328  1.938   .     S
O1314  Zn1329  1.925   .     S
O1314  Zn1330  1.935   .     S
O1314  Zn1327  1.960   .     S
O1315  Zn1328  1.923   .     S
O1316  Zn1330  1.935   .     S
O1317  Zn1329  1.930   .     S
O1318  Zn1327  1.922   .     S
O1319  Zn1327  1.924   .     S
O1320  Zn1330  1.925   .     S
O1321  Zn1328  1.930   .     S
O1322  Zn1329  1.940   .     S
O1323  Zn1330  1.931   .     S
O1324  Zn1327  1.922   .     S
O1325  Zn1328  1.935   .     S
O1326  Zn1329  1.930   .     S
C1331  C1341   1.439   .     S
C1331  O1416   1.270   .     A
C1331  O1418   1.267   .     A
C1332  C1365   1.403   .     A
C1332  H1402   1.071   .     S
C1332  C1333   1.395   .     A
C1333  N1408   1.434   .     S
C1333  C480    1.413   1_556 S
C1334  O1417   1.276   .     A
C1334  C1340   1.464   .     S
C1334  O1419   1.281   .     A
C1335  C1336   1.427   .     A
C1335  C1337   1.418   .     A
C1336  C1339   1.430   .     A
C1336  C1366   1.425   .     A
C1337  C1338   1.393   .     A
C1337  N1406   1.433   .     S
C1338  H1391   1.085   .     S
C1338  C1350   1.395   .     A
C1339  C1350   1.408   .     A
C1339  C1357   1.534   .     S
C1340  C1151   1.344   1_655 S
C1340  C1165   1.523   1_655 S
C1342  C1359   1.518   .     S
C1342  C1351   1.396   .     A
C1342  C1349   1.420   .     A
C1343  C1346   1.452   .     S
C1343  C1629   1.340   .     S
C1343  N1692   1.439   .     S
C1344  C1345   1.435   .     S
C1345  O1414   1.275   .     A
C1345  O1420   1.276   .     A
C1346  O1415   1.271   .     A
C1346  O1421   1.267   .     A
C1347  C1350   1.468   .     S
C1347  O1412   1.277   .     A
C1347  O1410   1.272   .     A
C1348  O1411   1.284   .     A
C1348  O1413   1.286   .     A
C1348  C1349   1.475   .     S
C1349  C1353   1.418   .     A
C1351  C1364   1.404   .     A
C1351  H1400   1.082   .     S
C1352  H1371   1.112   .     S
C1352  C1368   1.528   .     S
C1352  H1370   1.109   .     S
C1352  C1354   1.531   .     S
C1353  C1363   1.424   .     A
C1353  C1361   1.533   .     S
C1354  H1403   1.111   .     S
C1354  H1405   1.111   .     S
C1354  H1404   1.110   .     S
C1355  H1377   1.111   .     S
C1355  C1356   1.526   .     S
C1355  H1378   1.111   .     S
C1356  H1374   1.111   .     S
C1356  H1375   1.110   .     S
C1356  H1376   1.111   .     S
C1357  H1385   1.104   .     S
C1357  H1386   1.105   .     S
C1357  C1358   1.532   .     S
C1358  H1382   1.111   .     S
C1358  H1384   1.111   .     S
C1358  H1383   1.108   .     S
C1359  H1393   1.112   .     S
C1359  C1360   1.527   .     S
C1359  H1394   1.109   .     S
C1360  H1390   1.110   .     S
C1360  H1389   1.110   .     S
C1360  H1392   1.111   .     S
C1361  H1398   1.112   .     S
C1361  C1362   1.535   .     S
C1361  H1399   1.112   .     S
C1362  H1397   1.110   .     S
C1362  H1396   1.110   .     S
C1362  H1395   1.109   .     S
C1363  C1364   1.419   .     A
C1363  C1365   1.426   .     A
C1364  C513    1.417   1_556 S
C1365  C511    1.413   1_556 S
C1366  C1367   1.404   .     A
C1367  C1368   1.403   .     A
C1367  H1401   1.075   .     S
H1369  C1151   1.086   1_655 S
H1372  N1406   1.046   .     S
H1373  N1406   1.045   .     S
H1379  N1407   1.046   .     S
H1380  C1629   1.086   .     S
H1381  N1407   1.046   .     S
H1387  N1408   1.046   .     S
H1388  N1408   1.046   .     S
O1409  Zn1423  1.938   .     S
O1409  Zn1424  1.925   .     S
O1409  Zn1425  1.935   .     S
O1409  Zn1422  1.960   .     S
O1410  Zn1423  1.923   .     S
O1411  Zn1425  1.935   .     S
O1412  Zn1424  1.930   .     S
O1413  Zn1422  1.922   .     S
O1414  Zn1422  1.924   .     S
O1415  Zn1425  1.925   .     S
O1416  Zn1423  1.930   .     S
O1417  Zn1424  1.940   .     S
O1418  Zn1425  1.931   .     S
O1419  Zn1422  1.922   .     S
O1420  Zn1423  1.935   .     S
O1421  Zn1424  1.930   .     S
C1426  C1436   1.439   .     S
C1426  O1511   1.270   .     A
C1426  O1513   1.267   .     A
C1427  C1460   1.403   .     A
C1427  H1497   1.071   .     S
C1427  C1428   1.395   .     A
C1428  N1503   1.434   .     S
C1428  C575    1.413   1_556 S
C1429  O1512   1.276   .     A
C1429  C1435   1.464   .     S
C1429  O1514   1.281   .     A
C1430  C1431   1.427   .     A
C1430  C1432   1.418   .     A
C1431  C1434   1.430   .     A
C1431  C1461   1.425   .     A
C1432  C1433   1.393   .     A
C1432  N1501   1.433   .     S
C1433  H1486   1.085   .     S
C1433  C1445   1.395   .     A
C1434  C1445   1.408   .     A
C1434  C1452   1.534   .     S
C1435  C1531   1.344   .     S
C1435  C1545   1.523   .     S
C1436  C1625   1.344   1_455 S
C1436  H1654   1.086   1_455 S
C1437  C1454   1.518   .     S
C1437  C1446   1.396   .     A
C1437  C1444   1.420   .     A
C1438  C1441   1.452   .     S
C1438  C869    1.340   1_565 S
C1438  N932    1.439   1_565 S
C1439  C1440   1.435   .     S
C1440  O1509   1.275   .     A
C1440  O1515   1.276   .     A
C1441  O1510   1.271   .     A
C1441  O1516   1.267   .     A
C1442  C1445   1.468   .     S
C1442  O1507   1.277   .     A
C1442  O1505   1.272   .     A
C1443  O1506   1.284   .     A
C1443  O1508   1.286   .     A
C1443  C1444   1.475   .     S
C1444  C1448   1.418   .     A
C1446  C1459   1.404   .     A
C1446  H1495   1.082   .     S
C1447  H1466   1.112   .     S
C1447  C1463   1.528   .     S
C1447  H1465   1.109   .     S
C1447  C1449   1.531   .     S
C1448  C1458   1.424   .     A
C1448  C1456   1.533   .     S
C1449  H1498   1.111   .     S
C1449  H1500   1.111   .     S
C1449  H1499   1.110   .     S
C1450  H1472   1.111   .     S
C1450  C1451   1.526   .     S
C1450  H1473   1.111   .     S
C1450  C1625   1.523   1_455 S
C1451  H1469   1.111   .     S
C1451  H1470   1.110   .     S
C1451  H1471   1.111   .     S
C1452  H1480   1.104   .     S
C1452  H1481   1.105   .     S
C1452  C1453   1.532   .     S
C1453  H1477   1.111   .     S
C1453  H1479   1.111   .     S
C1453  H1478   1.108   .     S
C1454  H1488   1.112   .     S
C1454  C1455   1.527   .     S
C1454  H1489   1.109   .     S
C1455  H1485   1.110   .     S
C1455  H1484   1.110   .     S
C1455  H1487   1.111   .     S
C1456  H1493   1.112   .     S
C1456  C1457   1.535   .     S
C1456  H1494   1.112   .     S
C1457  H1492   1.110   .     S
C1457  H1491   1.110   .     S
C1457  H1490   1.109   .     S
C1458  C1459   1.419   .     A
C1458  C1460   1.426   .     A
C1459  C608    1.417   1_556 S
C1460  C606    1.413   1_556 S
C1461  C1462   1.404   .     A
C1462  C1463   1.403   .     A
C1462  H1496   1.075   .     S
H1464  C1531   1.086   .     S
H1467  N1501   1.046   .     S
H1468  N1501   1.045   .     S
H1474  N1502   1.046   .     S
H1475  C869    1.086   1_565 S
H1476  N1502   1.046   .     S
H1482  N1503   1.046   .     S
H1483  N1503   1.046   .     S
O1504  Zn1518  1.938   .     S
O1504  Zn1519  1.925   .     S
O1504  Zn1520  1.935   .     S
O1504  Zn1517  1.960   .     S
O1505  Zn1518  1.923   .     S
O1506  Zn1520  1.935   .     S
O1507  Zn1519  1.930   .     S
O1508  Zn1517  1.922   .     S
O1509  Zn1517  1.924   .     S
O1510  Zn1520  1.925   .     S
O1511  Zn1518  1.930   .     S
O1512  Zn1519  1.940   .     S
O1513  Zn1520  1.931   .     S
O1514  Zn1517  1.922   .     S
O1515  Zn1518  1.935   .     S
O1516  Zn1519  1.930   .     S
C1521  C1531   1.439   .     S
C1521  O1606   1.270   .     A
C1521  O1608   1.267   .     A
C1522  C1555   1.403   .     A
C1522  H1592   1.071   .     S
C1522  C1523   1.395   .     A
C1523  N1598   1.434   .     S
C1523  C670    1.413   1_556 S
C1524  O1607   1.276   .     A
C1524  C1530   1.464   .     S
C1524  O1609   1.281   .     A
C1525  C1526   1.427   .     A
C1525  C1527   1.418   .     A
C1526  C1529   1.430   .     A
C1526  C1556   1.425   .     A
C1527  C1528   1.393   .     A
C1527  N1596   1.433   .     S
C1528  H1581   1.085   .     S
C1528  C1540   1.395   .     A
C1529  C1540   1.408   .     A
C1529  C1547   1.534   .     S
C1530  C1626   1.344   .     S
C1530  C1640   1.523   .     S
C1532  C1549   1.518   .     S
C1532  C1541   1.396   .     A
C1532  C1539   1.420   .     A
C1533  C1536   1.452   .     S
C1533  C964    1.340   1_565 S
C1533  N1027   1.439   1_565 S
C1534  C1535   1.435   .     S
C1535  O1604   1.275   .     A
C1535  O1610   1.276   .     A
C1536  O1605   1.271   .     A
C1536  O1611   1.267   .     A
C1537  C1540   1.468   .     S
C1537  O1602   1.277   .     A
C1537  O1600   1.272   .     A
C1538  O1601   1.284   .     A
C1538  O1603   1.286   .     A
C1538  C1539   1.475   .     S
C1539  C1543   1.418   .     A
C1541  C1554   1.404   .     A
C1541  H1590   1.082   .     S
C1542  H1561   1.112   .     S
C1542  C1558   1.528   .     S
C1542  H1560   1.109   .     S
C1542  C1544   1.531   .     S
C1543  C1553   1.424   .     A
C1543  C1551   1.533   .     S
C1544  H1593   1.111   .     S
C1544  H1595   1.111   .     S
C1544  H1594   1.110   .     S
C1545  H1567   1.111   .     S
C1545  C1546   1.526   .     S
C1545  H1568   1.111   .     S
C1546  H1564   1.111   .     S
C1546  H1565   1.110   .     S
C1546  H1566   1.111   .     S
C1547  H1575   1.104   .     S
C1547  H1576   1.105   .     S
C1547  C1548   1.532   .     S
C1548  H1572   1.111   .     S
C1548  H1574   1.111   .     S
C1548  H1573   1.108   .     S
C1549  H1583   1.112   .     S
C1549  C1550   1.527   .     S
C1549  H1584   1.109   .     S
C1550  H1580   1.110   .     S
C1550  H1579   1.110   .     S
C1550  H1582   1.111   .     S
C1551  H1588   1.112   .     S
C1551  C1552   1.535   .     S
C1551  H1589   1.112   .     S
C1552  H1587   1.110   .     S
C1552  H1586   1.110   .     S
C1552  H1585   1.109   .     S
C1553  C1554   1.419   .     A
C1553  C1555   1.426   .     A
C1554  C703    1.417   1_556 S
C1555  C701    1.413   1_556 S
C1556  C1557   1.404   .     A
C1557  C1558   1.403   .     A
C1557  H1591   1.075   .     S
H1559  C1626   1.086   .     S
H1562  N1596   1.046   .     S
H1563  N1596   1.045   .     S
H1569  N1597   1.046   .     S
H1570  C964    1.086   1_565 S
H1571  N1597   1.046   .     S
H1577  N1598   1.046   .     S
H1578  N1598   1.046   .     S
O1599  Zn1613  1.938   .     S
O1599  Zn1614  1.925   .     S
O1599  Zn1615  1.935   .     S
O1599  Zn1612  1.960   .     S
O1600  Zn1613  1.923   .     S
O1601  Zn1615  1.935   .     S
O1602  Zn1614  1.930   .     S
O1603  Zn1612  1.922   .     S
O1604  Zn1612  1.924   .     S
O1605  Zn1615  1.925   .     S
O1606  Zn1613  1.930   .     S
O1607  Zn1614  1.940   .     S
O1608  Zn1615  1.931   .     S
O1609  Zn1612  1.922   .     S
O1610  Zn1613  1.935   .     S
O1611  Zn1614  1.930   .     S
C1616  C1626   1.439   .     S
C1616  O1701   1.270   .     A
C1616  O1703   1.267   .     A
C1617  C1650   1.403   .     A
C1617  H1687   1.071   .     S
C1617  C1618   1.395   .     A
C1618  N1693   1.434   .     S
C1618  C765    1.413   1_556 S
C1619  O1702   1.276   .     A
C1619  C1625   1.464   .     S
C1619  O1704   1.281   .     A
C1620  C1621   1.427   .     A
C1620  C1622   1.418   .     A
C1621  C1624   1.430   .     A
C1621  C1651   1.425   .     A
C1622  C1623   1.393   .     A
C1622  N1691   1.433   .     S
C1623  H1676   1.085   .     S
C1623  C1635   1.395   .     A
C1624  C1635   1.408   .     A
C1624  C1642   1.534   .     S
C1625  C1436   1.344   1_655 S
C1625  C1450   1.523   1_655 S
C1627  C1644   1.518   .     S
C1627  C1636   1.396   .     A
C1627  C1634   1.420   .     A
C1628  C1631   1.452   .     S
C1628  C1059   1.340   1_565 S
C1628  N1122   1.439   1_565 S
C1629  C1630   1.435   .     S
C1630  O1699   1.275   .     A
C1630  O1705   1.276   .     A
C1631  O1700   1.271   .     A
C1631  O1706   1.267   .     A
C1632  C1635   1.468   .     S
C1632  O1697   1.277   .     A
C1632  O1695   1.272   .     A
C1633  O1696   1.284   .     A
C1633  O1698   1.286   .     A
C1633  C1634   1.475   .     S
C1634  C1638   1.418   .     A
C1636  C1649   1.404   .     A
C1636  H1685   1.082   .     S
C1637  H1656   1.112   .     S
C1637  C1653   1.528   .     S
C1637  H1655   1.109   .     S
C1637  C1639   1.531   .     S
C1638  C1648   1.424   .     A
C1638  C1646   1.533   .     S
C1639  H1688   1.111   .     S
C1639  H1690   1.111   .     S
C1639  H1689   1.110   .     S
C1640  H1662   1.111   .     S
C1640  C1641   1.526   .     S
C1640  H1663   1.111   .     S
C1641  H1659   1.111   .     S
C1641  H1660   1.110   .     S
C1641  H1661   1.111   .     S
C1642  H1670   1.104   .     S
C1642  H1671   1.105   .     S
C1642  C1643   1.532   .     S
C1643  H1667   1.111   .     S
C1643  H1669   1.111   .     S
C1643  H1668   1.108   .     S
C1644  H1678   1.112   .     S
C1644  C1645   1.527   .     S
C1644  H1679   1.109   .     S
C1645  H1675   1.110   .     S
C1645  H1674   1.110   .     S
C1645  H1677   1.111   .     S
C1646  H1683   1.112   .     S
C1646  C1647   1.535   .     S
C1646  H1684   1.112   .     S
C1647  H1682   1.110   .     S
C1647  H1681   1.110   .     S
C1647  H1680   1.109   .     S
C1648  C1649   1.419   .     A
C1648  C1650   1.426   .     A
C1649  C798    1.417   1_556 S
C1650  C796    1.413   1_556 S
C1651  C1652   1.404   .     A
C1652  C1653   1.403   .     A
C1652  H1686   1.075   .     S
H1654  C1436   1.086   1_655 S
H1657  N1691   1.046   .     S
H1658  N1691   1.045   .     S
H1664  N1692   1.046   .     S
H1665  C1059   1.086   1_565 S
H1666  N1692   1.046   .     S
H1672  N1693   1.046   .     S
H1673  N1693   1.046   .     S
O1694  Zn1708  1.938   .     S
O1694  Zn1709  1.925   .     S
O1694  Zn1710  1.935   .     S
O1694  Zn1707  1.960   .     S
O1695  Zn1708  1.923   .     S
O1696  Zn1710  1.935   .     S
O1697  Zn1709  1.930   .     S
O1698  Zn1707  1.922   .     S
O1699  Zn1707  1.924   .     S
O1700  Zn1710  1.925   .     S
O1701  Zn1708  1.930   .     S
O1702  Zn1709  1.940   .     S
O1703  Zn1710  1.931   .     S
O1704  Zn1707  1.922   .     S
O1705  Zn1708  1.935   .     S
O1706  Zn1709  1.930   .     S
