data_str_m1_o10_o18_pcu_sym.160
_audit_creation_date              2020-01-03
_audit_creation_method            'Materials Studio'
_symmetry_space_group_name_H-M    'P1'
_symmetry_Int_Tables_number       1
_symmetry_cell_setting            triclinic
loop_
_symmetry_equiv_pos_as_xyz
  x,y,z
_cell_length_a                    32.5470
_cell_length_b                    32.5428
_cell_length_c                    35.7600
_cell_angle_alpha                 98.4219
_cell_angle_beta                  73.0824
_cell_angle_gamma                 98.6154
loop_
_atom_site_label
_atom_site_type_symbol
_atom_site_fract_x
_atom_site_fract_y
_atom_site_fract_z
_atom_site_U_iso_or_equiv
_atom_site_adp_type
_atom_site_occupancy
Zn1    Zn    0.19244   0.14090   0.28278   0.00000  Uiso   1.00
Zn2    Zn    0.13459   0.12378   0.22258   0.00000  Uiso   1.00
Zn3    Zn    0.21166   0.19664   0.21188   0.00000  Uiso   1.00
Zn4    Zn    0.12798   0.20535   0.28277   0.00000  Uiso   1.00
O5     O     0.16667   0.16667   0.25000   0.00000  Uiso   1.00
O6     O     0.06990   0.18960   0.27820   0.00000  Uiso   1.00
O7     O     0.25440   0.15277   0.26768   0.00000  Uiso   1.00
O8     O     0.13800   0.06903   0.23607   0.00000  Uiso   1.00
O9     O     0.20437   0.25527   0.21805   0.00000  Uiso   1.00
O10    O     0.15693   0.12393   0.16625   0.00000  Uiso   1.00
O11    O     0.12687   0.20646   0.33749   0.00000  Uiso   1.00
O12    O     0.21088   0.17493   0.15877   0.00000  Uiso   1.00
O13    O     0.17198   0.16135   0.33749   0.00000  Uiso   1.00
O14    O     0.17849   0.08101   0.27821   0.00000  Uiso   1.00
O15    O     0.14581   0.26136   0.26767   0.00000  Uiso   1.00
O16    O     0.07452   0.13251   0.23607   0.00000  Uiso   1.00
O17    O     0.26785   0.19179   0.21805   0.00000  Uiso   1.00
C18    C     0.05247   0.15993   0.25872   0.00000  Uiso   1.00
C19    C     0.28102   0.17356   0.24122   0.00000  Uiso   1.00
C20    C     0.15571   0.05614   0.25901   0.00000  Uiso   1.00
C21    C     0.17684   0.27766   0.24137   0.00000  Uiso   1.00
C22    C     0.18821   0.14500   0.14409   0.00000  Uiso   1.00
C23    C     0.14586   0.18841   0.35623   0.00000  Uiso   1.00
C24    C     0.13586   0.19692   0.39962   0.00000  Uiso   1.00
C25    C     0.19602   0.13545   0.10180   0.00000  Uiso   1.00
C26    C     0.09487   0.22836   0.46276   0.00000  Uiso   1.00
C27    C     0.10682   0.22569   0.42176   0.00000  Uiso   1.00
C28    C     0.15435   0.17382   0.41942   0.00000  Uiso   1.00
C29    C     0.14307   0.17680   0.46078   0.00000  Uiso   1.00
C30    C     0.11264   0.20445   0.48227   0.00000  Uiso   1.00
C31    C     0.16148   0.15358   0.48144   0.00000  Uiso   1.00
C32    C     0.15257   0.16208   0.02311   0.00000  Uiso   1.00
C33    C     0.11835   0.18615   0.04345   0.00000  Uiso   1.00
C34    C     0.09955   0.20760   0.02317   0.00000  Uiso   1.00
C35    C     0.18723   0.12122   0.46218   0.00000  Uiso   1.00
C36    C     0.20498   0.09917   0.48288   0.00000  Uiso   1.00
C37    C     0.20031   0.11041   0.02285   0.00000  Uiso   1.00
C38    C     0.17621   0.14384   0.04298   0.00000  Uiso   1.00
C39    C     0.21977   0.08864   0.04293   0.00000  Uiso   1.00
C40    C     0.21616   0.10019   0.08267   0.00000  Uiso   1.00
C41    C     0.17809   0.15843   0.08174   0.00000  Uiso   1.00
H42    H     0.07403   0.22645   0.03968   0.00000  Uiso   1.00
H43    H     0.22954   0.08201   0.09841   0.00000  Uiso   1.00
H44    H     0.22343   0.07374   0.46724   0.00000  Uiso   1.00
H45    H     0.07226   0.25009   0.47955   0.00000  Uiso   1.00
H46    H     0.17812   0.15406   0.40175   0.00000  Uiso   1.00
H47    H     0.19267   0.11070   0.43133   0.00000  Uiso   1.00
H48    H     0.23709   0.06226   0.02806   0.00000  Uiso   1.00
C49    C     0.32701   0.17621   0.23765   0.00000  Uiso   1.00
H50    H     0.01672   0.19337   0.21503   0.00000  Uiso   1.00
C51    C     0.00709   0.15755   0.26211   0.00000  Uiso   1.00
H52    H     0.31804   0.14035   0.28502   0.00000  Uiso   1.00
C53    C     0.18097   0.32212   0.23814   0.00000  Uiso   1.00
C54    C     0.15146   0.01208   0.26195   0.00000  Uiso   1.00
H55    H     0.12380   0.33219   0.28383   0.00000  Uiso   1.00
F56    F     0.21512   0.00619   0.21073   0.00000  Uiso   1.00
F57    F     0.16573   0.19617   0.09952   0.00000  Uiso   1.00
N58    N     0.09020   0.25342   0.40350   0.00000  Uiso   1.00
O59    O     0.11686   0.27993   0.38149   0.00000  Uiso   1.00
O60    O     0.04935   0.25855   0.41552   0.00000  Uiso   1.00
F61    F     0.09911   0.18535   0.08251   0.00000  Uiso   1.00
Zn62   Zn    0.52577   0.14090   0.28278   0.00000  Uiso   1.00
Zn63   Zn    0.46792   0.12378   0.22258   0.00000  Uiso   1.00
Zn64   Zn    0.54500   0.19664   0.21188   0.00000  Uiso   1.00
Zn65   Zn    0.46131   0.20535   0.28277   0.00000  Uiso   1.00
O66    O     0.50000   0.16667   0.25000   0.00000  Uiso   1.00
O67    O     0.40323   0.18960   0.27820   0.00000  Uiso   1.00
O68    O     0.58773   0.15277   0.26768   0.00000  Uiso   1.00
O69    O     0.47133   0.06903   0.23607   0.00000  Uiso   1.00
O70    O     0.53771   0.25527   0.21805   0.00000  Uiso   1.00
O71    O     0.49027   0.12393   0.16625   0.00000  Uiso   1.00
O72    O     0.46020   0.20646   0.33749   0.00000  Uiso   1.00
O73    O     0.54421   0.17493   0.15877   0.00000  Uiso   1.00
O74    O     0.50532   0.16135   0.33749   0.00000  Uiso   1.00
O75    O     0.51182   0.08101   0.27821   0.00000  Uiso   1.00
O76    O     0.47914   0.26136   0.26767   0.00000  Uiso   1.00
O77    O     0.40785   0.13251   0.23607   0.00000  Uiso   1.00
O78    O     0.60119   0.19179   0.21805   0.00000  Uiso   1.00
C79    C     0.38580   0.15993   0.25872   0.00000  Uiso   1.00
C80    C     0.61435   0.17356   0.24122   0.00000  Uiso   1.00
C81    C     0.48904   0.05614   0.25901   0.00000  Uiso   1.00
C82    C     0.51017   0.27766   0.24137   0.00000  Uiso   1.00
C83    C     0.52155   0.14500   0.14409   0.00000  Uiso   1.00
C84    C     0.47919   0.18841   0.35623   0.00000  Uiso   1.00
C85    C     0.46919   0.19692   0.39962   0.00000  Uiso   1.00
C86    C     0.52935   0.13545   0.10180   0.00000  Uiso   1.00
C87    C     0.42821   0.22836   0.46276   0.00000  Uiso   1.00
C88    C     0.44015   0.22569   0.42176   0.00000  Uiso   1.00
C89    C     0.48769   0.17382   0.41942   0.00000  Uiso   1.00
C90    C     0.47641   0.17680   0.46078   0.00000  Uiso   1.00
C91    C     0.44598   0.20445   0.48227   0.00000  Uiso   1.00
C92    C     0.49482   0.15358   0.48144   0.00000  Uiso   1.00
C93    C     0.48590   0.16208   0.02311   0.00000  Uiso   1.00
C94    C     0.45168   0.18615   0.04345   0.00000  Uiso   1.00
C95    C     0.43288   0.20760   0.02317   0.00000  Uiso   1.00
C96    C     0.52057   0.12122   0.46218   0.00000  Uiso   1.00
C97    C     0.53831   0.09917   0.48288   0.00000  Uiso   1.00
C98    C     0.53365   0.11041   0.02285   0.00000  Uiso   1.00
C99    C     0.50955   0.14384   0.04298   0.00000  Uiso   1.00
C100   C     0.55310   0.08864   0.04293   0.00000  Uiso   1.00
C101   C     0.54949   0.10019   0.08267   0.00000  Uiso   1.00
C102   C     0.51143   0.15843   0.08174   0.00000  Uiso   1.00
H103   H     0.40737   0.22645   0.03968   0.00000  Uiso   1.00
H104   H     0.56287   0.08201   0.09841   0.00000  Uiso   1.00
H105   H     0.55676   0.07374   0.46724   0.00000  Uiso   1.00
H106   H     0.40559   0.25009   0.47955   0.00000  Uiso   1.00
H107   H     0.51146   0.15406   0.40175   0.00000  Uiso   1.00
H108   H     0.52600   0.11070   0.43133   0.00000  Uiso   1.00
H109   H     0.57042   0.06226   0.02806   0.00000  Uiso   1.00
C110   C     0.66034   0.17621   0.23765   0.00000  Uiso   1.00
H111   H     0.35006   0.19337   0.21503   0.00000  Uiso   1.00
C112   C     0.34042   0.15755   0.26211   0.00000  Uiso   1.00
H113   H     0.65137   0.14035   0.28502   0.00000  Uiso   1.00
C114   C     0.51431   0.32212   0.23814   0.00000  Uiso   1.00
C115   C     0.48479   0.01208   0.26195   0.00000  Uiso   1.00
H116   H     0.45713   0.33219   0.28383   0.00000  Uiso   1.00
F117   F     0.54845   0.00619   0.21073   0.00000  Uiso   1.00
F118   F     0.49906   0.19617   0.09952   0.00000  Uiso   1.00
N119   N     0.42353   0.25342   0.40350   0.00000  Uiso   1.00
O120   O     0.45019   0.27993   0.38149   0.00000  Uiso   1.00
O121   O     0.38268   0.25855   0.41552   0.00000  Uiso   1.00
F122   F     0.43244   0.18535   0.08251   0.00000  Uiso   1.00
Zn123  Zn    0.85910   0.14090   0.28278   0.00000  Uiso   1.00
Zn124  Zn    0.80125   0.12378   0.22258   0.00000  Uiso   1.00
Zn125  Zn    0.87833   0.19664   0.21188   0.00000  Uiso   1.00
Zn126  Zn    0.79465   0.20535   0.28277   0.00000  Uiso   1.00
O127   O     0.83333   0.16667   0.25000   0.00000  Uiso   1.00
O128   O     0.73656   0.18960   0.27820   0.00000  Uiso   1.00
O129   O     0.92106   0.15277   0.26768   0.00000  Uiso   1.00
O130   O     0.80467   0.06903   0.23607   0.00000  Uiso   1.00
O131   O     0.87104   0.25527   0.21805   0.00000  Uiso   1.00
O132   O     0.82360   0.12393   0.16625   0.00000  Uiso   1.00
O133   O     0.79354   0.20646   0.33749   0.00000  Uiso   1.00
O134   O     0.87755   0.17493   0.15877   0.00000  Uiso   1.00
O135   O     0.83865   0.16135   0.33749   0.00000  Uiso   1.00
O136   O     0.84515   0.08101   0.27821   0.00000  Uiso   1.00
O137   O     0.81247   0.26136   0.26767   0.00000  Uiso   1.00
O138   O     0.74119   0.13251   0.23607   0.00000  Uiso   1.00
O139   O     0.93452   0.19179   0.21805   0.00000  Uiso   1.00
C140   C     0.71914   0.15993   0.25872   0.00000  Uiso   1.00
C141   C     0.94769   0.17356   0.24122   0.00000  Uiso   1.00
C142   C     0.82238   0.05614   0.25901   0.00000  Uiso   1.00
C143   C     0.84351   0.27766   0.24137   0.00000  Uiso   1.00
C144   C     0.85488   0.14500   0.14409   0.00000  Uiso   1.00
C145   C     0.81252   0.18841   0.35623   0.00000  Uiso   1.00
C146   C     0.80252   0.19692   0.39962   0.00000  Uiso   1.00
C147   C     0.86268   0.13545   0.10180   0.00000  Uiso   1.00
C148   C     0.76154   0.22836   0.46276   0.00000  Uiso   1.00
C149   C     0.77348   0.22569   0.42176   0.00000  Uiso   1.00
C150   C     0.82102   0.17382   0.41942   0.00000  Uiso   1.00
C151   C     0.80974   0.17680   0.46078   0.00000  Uiso   1.00
C152   C     0.77931   0.20445   0.48227   0.00000  Uiso   1.00
C153   C     0.82815   0.15358   0.48144   0.00000  Uiso   1.00
C154   C     0.81924   0.16208   0.02311   0.00000  Uiso   1.00
C155   C     0.78501   0.18615   0.04345   0.00000  Uiso   1.00
C156   C     0.76621   0.20760   0.02317   0.00000  Uiso   1.00
C157   C     0.85390   0.12122   0.46218   0.00000  Uiso   1.00
C158   C     0.87165   0.09917   0.48288   0.00000  Uiso   1.00
C159   C     0.86698   0.11041   0.02285   0.00000  Uiso   1.00
C160   C     0.84288   0.14384   0.04298   0.00000  Uiso   1.00
C161   C     0.88643   0.08864   0.04293   0.00000  Uiso   1.00
C162   C     0.88282   0.10019   0.08267   0.00000  Uiso   1.00
C163   C     0.84476   0.15843   0.08174   0.00000  Uiso   1.00
H164   H     0.74070   0.22645   0.03968   0.00000  Uiso   1.00
H165   H     0.89620   0.08201   0.09841   0.00000  Uiso   1.00
H166   H     0.89009   0.07374   0.46724   0.00000  Uiso   1.00
H167   H     0.73893   0.25009   0.47955   0.00000  Uiso   1.00
H168   H     0.84479   0.15406   0.40175   0.00000  Uiso   1.00
H169   H     0.85933   0.11070   0.43133   0.00000  Uiso   1.00
H170   H     0.90375   0.06226   0.02806   0.00000  Uiso   1.00
C171   C     0.99368   0.17621   0.23765   0.00000  Uiso   1.00
H172   H     0.68339   0.19337   0.21503   0.00000  Uiso   1.00
C173   C     0.67375   0.15755   0.26211   0.00000  Uiso   1.00
H174   H     0.98471   0.14035   0.28502   0.00000  Uiso   1.00
C175   C     0.84764   0.32212   0.23814   0.00000  Uiso   1.00
C176   C     0.81812   0.01208   0.26195   0.00000  Uiso   1.00
H177   H     0.79047   0.33219   0.28383   0.00000  Uiso   1.00
F178   F     0.88178   0.00619   0.21073   0.00000  Uiso   1.00
F179   F     0.83239   0.19617   0.09952   0.00000  Uiso   1.00
N180   N     0.75687   0.25342   0.40350   0.00000  Uiso   1.00
O181   O     0.78352   0.27993   0.38149   0.00000  Uiso   1.00
O182   O     0.71602   0.25855   0.41552   0.00000  Uiso   1.00
F183   F     0.76578   0.18535   0.08251   0.00000  Uiso   1.00
Zn184  Zn    0.19244   0.47423   0.28278   0.00000  Uiso   1.00
Zn185  Zn    0.13459   0.45711   0.22258   0.00000  Uiso   1.00
Zn186  Zn    0.21166   0.52997   0.21188   0.00000  Uiso   1.00
Zn187  Zn    0.12798   0.53868   0.28277   0.00000  Uiso   1.00
O188   O     0.16667   0.50000   0.25000   0.00000  Uiso   1.00
O189   O     0.06990   0.52293   0.27820   0.00000  Uiso   1.00
O190   O     0.25440   0.48610   0.26768   0.00000  Uiso   1.00
O191   O     0.13800   0.40236   0.23607   0.00000  Uiso   1.00
O192   O     0.20437   0.58860   0.21805   0.00000  Uiso   1.00
O193   O     0.15693   0.45726   0.16625   0.00000  Uiso   1.00
O194   O     0.12687   0.53979   0.33749   0.00000  Uiso   1.00
O195   O     0.21088   0.50826   0.15877   0.00000  Uiso   1.00
O196   O     0.17198   0.49468   0.33749   0.00000  Uiso   1.00
O197   O     0.17849   0.41434   0.27821   0.00000  Uiso   1.00
O198   O     0.14581   0.59469   0.26767   0.00000  Uiso   1.00
O199   O     0.07452   0.46584   0.23607   0.00000  Uiso   1.00
O200   O     0.26785   0.52512   0.21805   0.00000  Uiso   1.00
C201   C     0.05247   0.49326   0.25872   0.00000  Uiso   1.00
C202   C     0.28102   0.50690   0.24122   0.00000  Uiso   1.00
C203   C     0.15571   0.38948   0.25901   0.00000  Uiso   1.00
C204   C     0.17684   0.61099   0.24137   0.00000  Uiso   1.00
C205   C     0.18821   0.47833   0.14409   0.00000  Uiso   1.00
C206   C     0.14586   0.52174   0.35623   0.00000  Uiso   1.00
C207   C     0.13586   0.53025   0.39962   0.00000  Uiso   1.00
C208   C     0.19602   0.46878   0.10180   0.00000  Uiso   1.00
C209   C     0.09487   0.56170   0.46276   0.00000  Uiso   1.00
C210   C     0.10682   0.55902   0.42176   0.00000  Uiso   1.00
C211   C     0.15435   0.50715   0.41942   0.00000  Uiso   1.00
C212   C     0.14307   0.51013   0.46078   0.00000  Uiso   1.00
C213   C     0.11264   0.53778   0.48227   0.00000  Uiso   1.00
C214   C     0.16148   0.48692   0.48144   0.00000  Uiso   1.00
C215   C     0.15257   0.49542   0.02311   0.00000  Uiso   1.00
C216   C     0.11835   0.51948   0.04345   0.00000  Uiso   1.00
C217   C     0.09955   0.54093   0.02317   0.00000  Uiso   1.00
C218   C     0.18723   0.45455   0.46218   0.00000  Uiso   1.00
C219   C     0.20498   0.43250   0.48288   0.00000  Uiso   1.00
C220   C     0.20031   0.44374   0.02285   0.00000  Uiso   1.00
C221   C     0.17621   0.47718   0.04298   0.00000  Uiso   1.00
C222   C     0.21977   0.42197   0.04293   0.00000  Uiso   1.00
C223   C     0.21616   0.43352   0.08267   0.00000  Uiso   1.00
C224   C     0.17809   0.49176   0.08174   0.00000  Uiso   1.00
H225   H     0.07403   0.55978   0.03968   0.00000  Uiso   1.00
H226   H     0.22954   0.41534   0.09841   0.00000  Uiso   1.00
H227   H     0.22343   0.40708   0.46724   0.00000  Uiso   1.00
H228   H     0.07226   0.58342   0.47955   0.00000  Uiso   1.00
H229   H     0.17812   0.48740   0.40175   0.00000  Uiso   1.00
H230   H     0.19267   0.44403   0.43133   0.00000  Uiso   1.00
H231   H     0.23709   0.39559   0.02806   0.00000  Uiso   1.00
C232   C     0.32701   0.50954   0.23765   0.00000  Uiso   1.00
H233   H     0.01672   0.52671   0.21503   0.00000  Uiso   1.00
C234   C     0.00709   0.49088   0.26211   0.00000  Uiso   1.00
H235   H     0.31804   0.47368   0.28502   0.00000  Uiso   1.00
C236   C     0.18097   0.65546   0.23814   0.00000  Uiso   1.00
C237   C     0.15146   0.34542   0.26195   0.00000  Uiso   1.00
H238   H     0.12380   0.66552   0.28383   0.00000  Uiso   1.00
F239   F     0.21512   0.33952   0.21073   0.00000  Uiso   1.00
F240   F     0.16573   0.52951   0.09952   0.00000  Uiso   1.00
N241   N     0.09020   0.58675   0.40350   0.00000  Uiso   1.00
O242   O     0.11686   0.61326   0.38149   0.00000  Uiso   1.00
O243   O     0.04935   0.59189   0.41552   0.00000  Uiso   1.00
F244   F     0.09911   0.51869   0.08251   0.00000  Uiso   1.00
Zn245  Zn    0.52577   0.47423   0.28278   0.00000  Uiso   1.00
Zn246  Zn    0.46792   0.45711   0.22258   0.00000  Uiso   1.00
Zn247  Zn    0.54500   0.52997   0.21188   0.00000  Uiso   1.00
Zn248  Zn    0.46131   0.53868   0.28277   0.00000  Uiso   1.00
O249   O     0.50000   0.50000   0.25000   0.00000  Uiso   1.00
O250   O     0.40323   0.52293   0.27820   0.00000  Uiso   1.00
O251   O     0.58773   0.48610   0.26768   0.00000  Uiso   1.00
O252   O     0.47133   0.40236   0.23607   0.00000  Uiso   1.00
O253   O     0.53771   0.58860   0.21805   0.00000  Uiso   1.00
O254   O     0.49027   0.45726   0.16625   0.00000  Uiso   1.00
O255   O     0.46020   0.53979   0.33749   0.00000  Uiso   1.00
O256   O     0.54421   0.50826   0.15877   0.00000  Uiso   1.00
O257   O     0.50532   0.49468   0.33749   0.00000  Uiso   1.00
O258   O     0.51182   0.41434   0.27821   0.00000  Uiso   1.00
O259   O     0.47914   0.59469   0.26767   0.00000  Uiso   1.00
O260   O     0.40785   0.46584   0.23607   0.00000  Uiso   1.00
O261   O     0.60119   0.52512   0.21805   0.00000  Uiso   1.00
C262   C     0.38580   0.49326   0.25872   0.00000  Uiso   1.00
C263   C     0.61435   0.50690   0.24122   0.00000  Uiso   1.00
C264   C     0.48904   0.38948   0.25901   0.00000  Uiso   1.00
C265   C     0.51017   0.61099   0.24137   0.00000  Uiso   1.00
C266   C     0.52155   0.47833   0.14409   0.00000  Uiso   1.00
C267   C     0.47919   0.52174   0.35623   0.00000  Uiso   1.00
C268   C     0.46919   0.53025   0.39962   0.00000  Uiso   1.00
C269   C     0.52935   0.46878   0.10180   0.00000  Uiso   1.00
C270   C     0.42821   0.56170   0.46276   0.00000  Uiso   1.00
C271   C     0.44015   0.55902   0.42176   0.00000  Uiso   1.00
C272   C     0.48769   0.50715   0.41942   0.00000  Uiso   1.00
C273   C     0.47641   0.51013   0.46078   0.00000  Uiso   1.00
C274   C     0.44598   0.53778   0.48227   0.00000  Uiso   1.00
C275   C     0.49482   0.48692   0.48144   0.00000  Uiso   1.00
C276   C     0.48590   0.49542   0.02311   0.00000  Uiso   1.00
C277   C     0.45168   0.51948   0.04345   0.00000  Uiso   1.00
C278   C     0.43288   0.54093   0.02317   0.00000  Uiso   1.00
C279   C     0.52057   0.45455   0.46218   0.00000  Uiso   1.00
C280   C     0.53831   0.43250   0.48288   0.00000  Uiso   1.00
C281   C     0.53365   0.44374   0.02285   0.00000  Uiso   1.00
C282   C     0.50955   0.47718   0.04298   0.00000  Uiso   1.00
C283   C     0.55310   0.42197   0.04293   0.00000  Uiso   1.00
C284   C     0.54949   0.43352   0.08267   0.00000  Uiso   1.00
C285   C     0.51143   0.49176   0.08174   0.00000  Uiso   1.00
H286   H     0.40737   0.55978   0.03968   0.00000  Uiso   1.00
H287   H     0.56287   0.41534   0.09841   0.00000  Uiso   1.00
H288   H     0.55676   0.40708   0.46724   0.00000  Uiso   1.00
H289   H     0.40559   0.58342   0.47955   0.00000  Uiso   1.00
H290   H     0.51146   0.48740   0.40175   0.00000  Uiso   1.00
H291   H     0.52600   0.44403   0.43133   0.00000  Uiso   1.00
H292   H     0.57042   0.39559   0.02806   0.00000  Uiso   1.00
C293   C     0.66034   0.50954   0.23765   0.00000  Uiso   1.00
H294   H     0.35006   0.52671   0.21503   0.00000  Uiso   1.00
C295   C     0.34042   0.49088   0.26211   0.00000  Uiso   1.00
H296   H     0.65137   0.47368   0.28502   0.00000  Uiso   1.00
C297   C     0.51431   0.65546   0.23814   0.00000  Uiso   1.00
C298   C     0.48479   0.34542   0.26195   0.00000  Uiso   1.00
H299   H     0.45713   0.66552   0.28383   0.00000  Uiso   1.00
F300   F     0.54845   0.33952   0.21073   0.00000  Uiso   1.00
F301   F     0.49906   0.52951   0.09952   0.00000  Uiso   1.00
N302   N     0.42353   0.58675   0.40350   0.00000  Uiso   1.00
O303   O     0.45019   0.61326   0.38149   0.00000  Uiso   1.00
O304   O     0.38268   0.59189   0.41552   0.00000  Uiso   1.00
F305   F     0.43244   0.51869   0.08251   0.00000  Uiso   1.00
Zn306  Zn    0.85910   0.47423   0.28278   0.00000  Uiso   1.00
Zn307  Zn    0.80125   0.45711   0.22258   0.00000  Uiso   1.00
Zn308  Zn    0.87833   0.52997   0.21188   0.00000  Uiso   1.00
Zn309  Zn    0.79465   0.53868   0.28277   0.00000  Uiso   1.00
O310   O     0.83333   0.50000   0.25000   0.00000  Uiso   1.00
O311   O     0.73656   0.52293   0.27820   0.00000  Uiso   1.00
O312   O     0.92106   0.48610   0.26768   0.00000  Uiso   1.00
O313   O     0.80467   0.40236   0.23607   0.00000  Uiso   1.00
O314   O     0.87104   0.58860   0.21805   0.00000  Uiso   1.00
O315   O     0.82360   0.45726   0.16625   0.00000  Uiso   1.00
O316   O     0.79354   0.53979   0.33749   0.00000  Uiso   1.00
O317   O     0.87755   0.50826   0.15877   0.00000  Uiso   1.00
O318   O     0.83865   0.49468   0.33749   0.00000  Uiso   1.00
O319   O     0.84515   0.41434   0.27821   0.00000  Uiso   1.00
O320   O     0.81247   0.59469   0.26767   0.00000  Uiso   1.00
O321   O     0.74119   0.46584   0.23607   0.00000  Uiso   1.00
O322   O     0.93452   0.52512   0.21805   0.00000  Uiso   1.00
C323   C     0.71914   0.49326   0.25872   0.00000  Uiso   1.00
C324   C     0.94769   0.50690   0.24122   0.00000  Uiso   1.00
C325   C     0.82238   0.38948   0.25901   0.00000  Uiso   1.00
C326   C     0.84351   0.61099   0.24137   0.00000  Uiso   1.00
C327   C     0.85488   0.47833   0.14409   0.00000  Uiso   1.00
C328   C     0.81252   0.52174   0.35623   0.00000  Uiso   1.00
C329   C     0.80252   0.53025   0.39962   0.00000  Uiso   1.00
C330   C     0.86268   0.46878   0.10180   0.00000  Uiso   1.00
C331   C     0.76154   0.56170   0.46276   0.00000  Uiso   1.00
C332   C     0.77348   0.55902   0.42176   0.00000  Uiso   1.00
C333   C     0.82102   0.50715   0.41942   0.00000  Uiso   1.00
C334   C     0.80974   0.51013   0.46078   0.00000  Uiso   1.00
C335   C     0.77931   0.53778   0.48227   0.00000  Uiso   1.00
C336   C     0.82815   0.48692   0.48144   0.00000  Uiso   1.00
C337   C     0.81924   0.49542   0.02311   0.00000  Uiso   1.00
C338   C     0.78501   0.51948   0.04345   0.00000  Uiso   1.00
C339   C     0.76621   0.54093   0.02317   0.00000  Uiso   1.00
C340   C     0.85390   0.45455   0.46218   0.00000  Uiso   1.00
C341   C     0.87165   0.43250   0.48288   0.00000  Uiso   1.00
C342   C     0.86698   0.44374   0.02285   0.00000  Uiso   1.00
C343   C     0.84288   0.47718   0.04298   0.00000  Uiso   1.00
C344   C     0.88643   0.42197   0.04293   0.00000  Uiso   1.00
C345   C     0.88282   0.43352   0.08267   0.00000  Uiso   1.00
C346   C     0.84476   0.49176   0.08174   0.00000  Uiso   1.00
H347   H     0.74070   0.55978   0.03968   0.00000  Uiso   1.00
H348   H     0.89620   0.41534   0.09841   0.00000  Uiso   1.00
H349   H     0.89009   0.40708   0.46724   0.00000  Uiso   1.00
H350   H     0.73893   0.58342   0.47955   0.00000  Uiso   1.00
H351   H     0.84479   0.48740   0.40175   0.00000  Uiso   1.00
H352   H     0.85933   0.44403   0.43133   0.00000  Uiso   1.00
H353   H     0.90375   0.39559   0.02806   0.00000  Uiso   1.00
C354   C     0.99368   0.50954   0.23765   0.00000  Uiso   1.00
H355   H     0.68339   0.52671   0.21503   0.00000  Uiso   1.00
C356   C     0.67375   0.49088   0.26211   0.00000  Uiso   1.00
H357   H     0.98471   0.47368   0.28502   0.00000  Uiso   1.00
C358   C     0.84764   0.65546   0.23814   0.00000  Uiso   1.00
C359   C     0.81812   0.34542   0.26195   0.00000  Uiso   1.00
H360   H     0.79047   0.66552   0.28383   0.00000  Uiso   1.00
F361   F     0.88178   0.33952   0.21073   0.00000  Uiso   1.00
F362   F     0.83239   0.52951   0.09952   0.00000  Uiso   1.00
N363   N     0.75687   0.58675   0.40350   0.00000  Uiso   1.00
O364   O     0.78352   0.61326   0.38149   0.00000  Uiso   1.00
O365   O     0.71602   0.59189   0.41552   0.00000  Uiso   1.00
F366   F     0.76578   0.51869   0.08251   0.00000  Uiso   1.00
Zn367  Zn    0.19244   0.80756   0.28278   0.00000  Uiso   1.00
Zn368  Zn    0.13459   0.79044   0.22258   0.00000  Uiso   1.00
Zn369  Zn    0.21166   0.86331   0.21188   0.00000  Uiso   1.00
Zn370  Zn    0.12798   0.87202   0.28277   0.00000  Uiso   1.00
O371   O     0.16667   0.83333   0.25000   0.00000  Uiso   1.00
O372   O     0.06990   0.85627   0.27820   0.00000  Uiso   1.00
O373   O     0.25440   0.81944   0.26768   0.00000  Uiso   1.00
O374   O     0.13800   0.73570   0.23607   0.00000  Uiso   1.00
O375   O     0.20437   0.92193   0.21805   0.00000  Uiso   1.00
O376   O     0.15693   0.79060   0.16625   0.00000  Uiso   1.00
O377   O     0.12687   0.87313   0.33749   0.00000  Uiso   1.00
O378   O     0.21088   0.84159   0.15877   0.00000  Uiso   1.00
O379   O     0.17198   0.82802   0.33749   0.00000  Uiso   1.00
O380   O     0.17849   0.74768   0.27821   0.00000  Uiso   1.00
O381   O     0.14581   0.92803   0.26767   0.00000  Uiso   1.00
O382   O     0.07452   0.79917   0.23607   0.00000  Uiso   1.00
O383   O     0.26785   0.85845   0.21805   0.00000  Uiso   1.00
C384   C     0.05247   0.82659   0.25872   0.00000  Uiso   1.00
C385   C     0.28102   0.84023   0.24122   0.00000  Uiso   1.00
C386   C     0.15571   0.72281   0.25901   0.00000  Uiso   1.00
C387   C     0.17684   0.94433   0.24137   0.00000  Uiso   1.00
C388   C     0.18821   0.81166   0.14409   0.00000  Uiso   1.00
C389   C     0.14586   0.85508   0.35623   0.00000  Uiso   1.00
C390   C     0.13586   0.86358   0.39962   0.00000  Uiso   1.00
C391   C     0.19602   0.80212   0.10180   0.00000  Uiso   1.00
C392   C     0.09487   0.89503   0.46276   0.00000  Uiso   1.00
C393   C     0.10682   0.89236   0.42176   0.00000  Uiso   1.00
C394   C     0.15435   0.84049   0.41942   0.00000  Uiso   1.00
C395   C     0.14307   0.84347   0.46078   0.00000  Uiso   1.00
C396   C     0.11264   0.87111   0.48227   0.00000  Uiso   1.00
C397   C     0.16148   0.82025   0.48144   0.00000  Uiso   1.00
C398   C     0.15257   0.82875   0.02311   0.00000  Uiso   1.00
C399   C     0.11835   0.85281   0.04345   0.00000  Uiso   1.00
C400   C     0.09955   0.87426   0.02317   0.00000  Uiso   1.00
C401   C     0.18723   0.78789   0.46218   0.00000  Uiso   1.00
C402   C     0.20498   0.76583   0.48288   0.00000  Uiso   1.00
C403   C     0.20031   0.77708   0.02285   0.00000  Uiso   1.00
C404   C     0.17621   0.81051   0.04298   0.00000  Uiso   1.00
C405   C     0.21977   0.75531   0.04293   0.00000  Uiso   1.00
C406   C     0.21616   0.76685   0.08267   0.00000  Uiso   1.00
C407   C     0.17809   0.82510   0.08174   0.00000  Uiso   1.00
H408   H     0.07403   0.89312   0.03968   0.00000  Uiso   1.00
H409   H     0.22954   0.74867   0.09841   0.00000  Uiso   1.00
H410   H     0.22343   0.74041   0.46724   0.00000  Uiso   1.00
H411   H     0.07226   0.91675   0.47955   0.00000  Uiso   1.00
H412   H     0.17812   0.82073   0.40175   0.00000  Uiso   1.00
H413   H     0.19267   0.77736   0.43133   0.00000  Uiso   1.00
H414   H     0.23709   0.72892   0.02806   0.00000  Uiso   1.00
C415   C     0.32701   0.84287   0.23765   0.00000  Uiso   1.00
H416   H     0.01672   0.86004   0.21503   0.00000  Uiso   1.00
C417   C     0.00709   0.82422   0.26211   0.00000  Uiso   1.00
H418   H     0.31804   0.80702   0.28502   0.00000  Uiso   1.00
C419   C     0.18097   0.98879   0.23814   0.00000  Uiso   1.00
C420   C     0.15146   0.67875   0.26195   0.00000  Uiso   1.00
H421   H     0.12380   0.99885   0.28383   0.00000  Uiso   1.00
F422   F     0.21512   0.67286   0.21073   0.00000  Uiso   1.00
F423   F     0.16573   0.86284   0.09952   0.00000  Uiso   1.00
N424   N     0.09020   0.92009   0.40350   0.00000  Uiso   1.00
O425   O     0.11686   0.94659   0.38149   0.00000  Uiso   1.00
O426   O     0.04935   0.92522   0.41552   0.00000  Uiso   1.00
F427   F     0.09911   0.85202   0.08251   0.00000  Uiso   1.00
Zn428  Zn    0.52577   0.80756   0.28278   0.00000  Uiso   1.00
Zn429  Zn    0.46792   0.79044   0.22258   0.00000  Uiso   1.00
Zn430  Zn    0.54500   0.86331   0.21188   0.00000  Uiso   1.00
Zn431  Zn    0.46131   0.87202   0.28277   0.00000  Uiso   1.00
O432   O     0.50000   0.83333   0.25000   0.00000  Uiso   1.00
O433   O     0.40323   0.85627   0.27820   0.00000  Uiso   1.00
O434   O     0.58773   0.81944   0.26768   0.00000  Uiso   1.00
O435   O     0.47133   0.73570   0.23607   0.00000  Uiso   1.00
O436   O     0.53771   0.92193   0.21805   0.00000  Uiso   1.00
O437   O     0.49027   0.79060   0.16625   0.00000  Uiso   1.00
O438   O     0.46020   0.87313   0.33749   0.00000  Uiso   1.00
O439   O     0.54421   0.84159   0.15877   0.00000  Uiso   1.00
O440   O     0.50532   0.82802   0.33749   0.00000  Uiso   1.00
O441   O     0.51182   0.74768   0.27821   0.00000  Uiso   1.00
O442   O     0.47914   0.92803   0.26767   0.00000  Uiso   1.00
O443   O     0.40785   0.79917   0.23607   0.00000  Uiso   1.00
O444   O     0.60119   0.85845   0.21805   0.00000  Uiso   1.00
C445   C     0.38580   0.82659   0.25872   0.00000  Uiso   1.00
C446   C     0.61435   0.84023   0.24122   0.00000  Uiso   1.00
C447   C     0.48904   0.72281   0.25901   0.00000  Uiso   1.00
C448   C     0.51017   0.94433   0.24137   0.00000  Uiso   1.00
C449   C     0.52155   0.81166   0.14409   0.00000  Uiso   1.00
C450   C     0.47919   0.85508   0.35623   0.00000  Uiso   1.00
C451   C     0.46919   0.86358   0.39962   0.00000  Uiso   1.00
C452   C     0.52935   0.80212   0.10180   0.00000  Uiso   1.00
C453   C     0.42821   0.89503   0.46276   0.00000  Uiso   1.00
C454   C     0.44015   0.89236   0.42176   0.00000  Uiso   1.00
C455   C     0.48769   0.84049   0.41942   0.00000  Uiso   1.00
C456   C     0.47641   0.84347   0.46078   0.00000  Uiso   1.00
C457   C     0.44598   0.87111   0.48227   0.00000  Uiso   1.00
C458   C     0.49482   0.82025   0.48144   0.00000  Uiso   1.00
C459   C     0.48590   0.82875   0.02311   0.00000  Uiso   1.00
C460   C     0.45168   0.85281   0.04345   0.00000  Uiso   1.00
C461   C     0.43288   0.87426   0.02317   0.00000  Uiso   1.00
C462   C     0.52057   0.78789   0.46218   0.00000  Uiso   1.00
C463   C     0.53831   0.76583   0.48288   0.00000  Uiso   1.00
C464   C     0.53365   0.77708   0.02285   0.00000  Uiso   1.00
C465   C     0.50955   0.81051   0.04298   0.00000  Uiso   1.00
C466   C     0.55310   0.75531   0.04293   0.00000  Uiso   1.00
C467   C     0.54949   0.76685   0.08267   0.00000  Uiso   1.00
C468   C     0.51143   0.82510   0.08174   0.00000  Uiso   1.00
H469   H     0.40737   0.89312   0.03968   0.00000  Uiso   1.00
H470   H     0.56287   0.74867   0.09841   0.00000  Uiso   1.00
H471   H     0.55676   0.74041   0.46724   0.00000  Uiso   1.00
H472   H     0.40559   0.91675   0.47955   0.00000  Uiso   1.00
H473   H     0.51146   0.82073   0.40175   0.00000  Uiso   1.00
H474   H     0.52600   0.77736   0.43133   0.00000  Uiso   1.00
H475   H     0.57042   0.72892   0.02806   0.00000  Uiso   1.00
C476   C     0.66034   0.84287   0.23765   0.00000  Uiso   1.00
H477   H     0.35006   0.86004   0.21503   0.00000  Uiso   1.00
C478   C     0.34042   0.82422   0.26211   0.00000  Uiso   1.00
H479   H     0.65137   0.80702   0.28502   0.00000  Uiso   1.00
C480   C     0.51431   0.98879   0.23814   0.00000  Uiso   1.00
C481   C     0.48479   0.67875   0.26195   0.00000  Uiso   1.00
H482   H     0.45713   0.99885   0.28383   0.00000  Uiso   1.00
F483   F     0.54845   0.67286   0.21073   0.00000  Uiso   1.00
F484   F     0.49906   0.86284   0.09952   0.00000  Uiso   1.00
N485   N     0.42353   0.92009   0.40350   0.00000  Uiso   1.00
O486   O     0.45019   0.94659   0.38149   0.00000  Uiso   1.00
O487   O     0.38268   0.92522   0.41552   0.00000  Uiso   1.00
F488   F     0.43244   0.85202   0.08251   0.00000  Uiso   1.00
Zn489  Zn    0.85910   0.80756   0.28278   0.00000  Uiso   1.00
Zn490  Zn    0.80125   0.79044   0.22258   0.00000  Uiso   1.00
Zn491  Zn    0.87833   0.86331   0.21188   0.00000  Uiso   1.00
Zn492  Zn    0.79465   0.87202   0.28277   0.00000  Uiso   1.00
O493   O     0.83333   0.83333   0.25000   0.00000  Uiso   1.00
O494   O     0.73656   0.85627   0.27820   0.00000  Uiso   1.00
O495   O     0.92106   0.81944   0.26768   0.00000  Uiso   1.00
O496   O     0.80467   0.73570   0.23607   0.00000  Uiso   1.00
O497   O     0.87104   0.92193   0.21805   0.00000  Uiso   1.00
O498   O     0.82360   0.79060   0.16625   0.00000  Uiso   1.00
O499   O     0.79354   0.87313   0.33749   0.00000  Uiso   1.00
O500   O     0.87755   0.84159   0.15877   0.00000  Uiso   1.00
O501   O     0.83865   0.82802   0.33749   0.00000  Uiso   1.00
O502   O     0.84515   0.74768   0.27821   0.00000  Uiso   1.00
O503   O     0.81247   0.92803   0.26767   0.00000  Uiso   1.00
O504   O     0.74119   0.79917   0.23607   0.00000  Uiso   1.00
O505   O     0.93452   0.85845   0.21805   0.00000  Uiso   1.00
C506   C     0.71914   0.82659   0.25872   0.00000  Uiso   1.00
C507   C     0.94769   0.84023   0.24122   0.00000  Uiso   1.00
C508   C     0.82238   0.72281   0.25901   0.00000  Uiso   1.00
C509   C     0.84351   0.94433   0.24137   0.00000  Uiso   1.00
C510   C     0.85488   0.81166   0.14409   0.00000  Uiso   1.00
C511   C     0.81252   0.85508   0.35623   0.00000  Uiso   1.00
C512   C     0.80252   0.86358   0.39962   0.00000  Uiso   1.00
C513   C     0.86268   0.80212   0.10180   0.00000  Uiso   1.00
C514   C     0.76154   0.89503   0.46276   0.00000  Uiso   1.00
C515   C     0.77348   0.89236   0.42176   0.00000  Uiso   1.00
C516   C     0.82102   0.84049   0.41942   0.00000  Uiso   1.00
C517   C     0.80974   0.84347   0.46078   0.00000  Uiso   1.00
C518   C     0.77931   0.87111   0.48227   0.00000  Uiso   1.00
C519   C     0.82815   0.82025   0.48144   0.00000  Uiso   1.00
C520   C     0.81924   0.82875   0.02311   0.00000  Uiso   1.00
C521   C     0.78501   0.85281   0.04345   0.00000  Uiso   1.00
C522   C     0.76621   0.87426   0.02317   0.00000  Uiso   1.00
C523   C     0.85390   0.78789   0.46218   0.00000  Uiso   1.00
C524   C     0.87165   0.76583   0.48288   0.00000  Uiso   1.00
C525   C     0.86698   0.77708   0.02285   0.00000  Uiso   1.00
C526   C     0.84288   0.81051   0.04298   0.00000  Uiso   1.00
C527   C     0.88643   0.75531   0.04293   0.00000  Uiso   1.00
C528   C     0.88282   0.76685   0.08267   0.00000  Uiso   1.00
C529   C     0.84476   0.82510   0.08174   0.00000  Uiso   1.00
H530   H     0.74070   0.89312   0.03968   0.00000  Uiso   1.00
H531   H     0.89620   0.74867   0.09841   0.00000  Uiso   1.00
H532   H     0.89009   0.74041   0.46724   0.00000  Uiso   1.00
H533   H     0.73893   0.91675   0.47955   0.00000  Uiso   1.00
H534   H     0.84479   0.82073   0.40175   0.00000  Uiso   1.00
H535   H     0.85933   0.77736   0.43133   0.00000  Uiso   1.00
H536   H     0.90375   0.72892   0.02806   0.00000  Uiso   1.00
C537   C     0.99368   0.84287   0.23765   0.00000  Uiso   1.00
H538   H     0.68339   0.86004   0.21503   0.00000  Uiso   1.00
C539   C     0.67375   0.82422   0.26211   0.00000  Uiso   1.00
H540   H     0.98471   0.80702   0.28502   0.00000  Uiso   1.00
C541   C     0.84764   0.98879   0.23814   0.00000  Uiso   1.00
C542   C     0.81812   0.67875   0.26195   0.00000  Uiso   1.00
H543   H     0.79047   0.99885   0.28383   0.00000  Uiso   1.00
F544   F     0.88178   0.67286   0.21073   0.00000  Uiso   1.00
F545   F     0.83239   0.86284   0.09952   0.00000  Uiso   1.00
N546   N     0.75687   0.92009   0.40350   0.00000  Uiso   1.00
O547   O     0.78352   0.94659   0.38149   0.00000  Uiso   1.00
O548   O     0.71602   0.92522   0.41552   0.00000  Uiso   1.00
F549   F     0.76578   0.85202   0.08251   0.00000  Uiso   1.00
Zn550  Zn    0.19244   0.14090   0.78278   0.00000  Uiso   1.00
Zn551  Zn    0.13459   0.12378   0.72258   0.00000  Uiso   1.00
Zn552  Zn    0.21166   0.19664   0.71188   0.00000  Uiso   1.00
Zn553  Zn    0.12798   0.20535   0.78277   0.00000  Uiso   1.00
O554   O     0.16667   0.16667   0.75000   0.00000  Uiso   1.00
O555   O     0.06990   0.18960   0.77820   0.00000  Uiso   1.00
O556   O     0.25440   0.15277   0.76768   0.00000  Uiso   1.00
O557   O     0.13800   0.06903   0.73607   0.00000  Uiso   1.00
O558   O     0.20437   0.25527   0.71805   0.00000  Uiso   1.00
O559   O     0.15693   0.12393   0.66625   0.00000  Uiso   1.00
O560   O     0.12687   0.20646   0.83749   0.00000  Uiso   1.00
O561   O     0.21088   0.17493   0.65877   0.00000  Uiso   1.00
O562   O     0.17198   0.16135   0.83749   0.00000  Uiso   1.00
O563   O     0.17849   0.08101   0.77821   0.00000  Uiso   1.00
O564   O     0.14581   0.26136   0.76767   0.00000  Uiso   1.00
O565   O     0.07452   0.13251   0.73607   0.00000  Uiso   1.00
O566   O     0.26785   0.19179   0.71805   0.00000  Uiso   1.00
C567   C     0.05247   0.15993   0.75872   0.00000  Uiso   1.00
C568   C     0.28102   0.17356   0.74122   0.00000  Uiso   1.00
C569   C     0.15571   0.05614   0.75901   0.00000  Uiso   1.00
C570   C     0.17684   0.27766   0.74137   0.00000  Uiso   1.00
C571   C     0.18821   0.14500   0.64409   0.00000  Uiso   1.00
C572   C     0.14586   0.18841   0.85623   0.00000  Uiso   1.00
C573   C     0.13586   0.19692   0.89962   0.00000  Uiso   1.00
C574   C     0.19602   0.13545   0.60180   0.00000  Uiso   1.00
C575   C     0.09487   0.22836   0.96276   0.00000  Uiso   1.00
C576   C     0.10682   0.22569   0.92176   0.00000  Uiso   1.00
C577   C     0.15435   0.17382   0.91942   0.00000  Uiso   1.00
C578   C     0.14307   0.17680   0.96078   0.00000  Uiso   1.00
C579   C     0.11264   0.20445   0.98227   0.00000  Uiso   1.00
C580   C     0.16148   0.15358   0.98144   0.00000  Uiso   1.00
C581   C     0.15257   0.16208   0.52311   0.00000  Uiso   1.00
C582   C     0.11835   0.18615   0.54345   0.00000  Uiso   1.00
C583   C     0.09955   0.20760   0.52317   0.00000  Uiso   1.00
C584   C     0.18723   0.12122   0.96218   0.00000  Uiso   1.00
C585   C     0.20498   0.09917   0.98288   0.00000  Uiso   1.00
C586   C     0.20031   0.11041   0.52285   0.00000  Uiso   1.00
C587   C     0.17621   0.14384   0.54298   0.00000  Uiso   1.00
C588   C     0.21977   0.08864   0.54293   0.00000  Uiso   1.00
C589   C     0.21616   0.10019   0.58267   0.00000  Uiso   1.00
C590   C     0.17809   0.15843   0.58174   0.00000  Uiso   1.00
H591   H     0.07403   0.22645   0.53968   0.00000  Uiso   1.00
H592   H     0.22954   0.08201   0.59841   0.00000  Uiso   1.00
H593   H     0.22343   0.07374   0.96724   0.00000  Uiso   1.00
H594   H     0.07226   0.25009   0.97955   0.00000  Uiso   1.00
H595   H     0.17812   0.15406   0.90175   0.00000  Uiso   1.00
H596   H     0.19267   0.11070   0.93133   0.00000  Uiso   1.00
H597   H     0.23709   0.06226   0.52806   0.00000  Uiso   1.00
C598   C     0.32701   0.17621   0.73765   0.00000  Uiso   1.00
H599   H     0.01672   0.19337   0.71503   0.00000  Uiso   1.00
C600   C     0.00709   0.15755   0.76211   0.00000  Uiso   1.00
H601   H     0.31804   0.14035   0.78502   0.00000  Uiso   1.00
C602   C     0.18097   0.32212   0.73814   0.00000  Uiso   1.00
C603   C     0.15146   0.01208   0.76195   0.00000  Uiso   1.00
H604   H     0.12380   0.33219   0.78383   0.00000  Uiso   1.00
F605   F     0.21512   0.00619   0.71073   0.00000  Uiso   1.00
F606   F     0.16573   0.19617   0.59952   0.00000  Uiso   1.00
N607   N     0.09020   0.25342   0.90350   0.00000  Uiso   1.00
O608   O     0.11686   0.27993   0.88149   0.00000  Uiso   1.00
O609   O     0.04935   0.25855   0.91552   0.00000  Uiso   1.00
F610   F     0.09911   0.18535   0.58251   0.00000  Uiso   1.00
Zn611  Zn    0.52577   0.14090   0.78278   0.00000  Uiso   1.00
Zn612  Zn    0.46792   0.12378   0.72258   0.00000  Uiso   1.00
Zn613  Zn    0.54500   0.19664   0.71188   0.00000  Uiso   1.00
Zn614  Zn    0.46131   0.20535   0.78277   0.00000  Uiso   1.00
O615   O     0.50000   0.16667   0.75000   0.00000  Uiso   1.00
O616   O     0.40323   0.18960   0.77820   0.00000  Uiso   1.00
O617   O     0.58773   0.15277   0.76768   0.00000  Uiso   1.00
O618   O     0.47133   0.06903   0.73607   0.00000  Uiso   1.00
O619   O     0.53771   0.25527   0.71805   0.00000  Uiso   1.00
O620   O     0.49027   0.12393   0.66625   0.00000  Uiso   1.00
O621   O     0.46020   0.20646   0.83749   0.00000  Uiso   1.00
O622   O     0.54421   0.17493   0.65877   0.00000  Uiso   1.00
O623   O     0.50532   0.16135   0.83749   0.00000  Uiso   1.00
O624   O     0.51182   0.08101   0.77821   0.00000  Uiso   1.00
O625   O     0.47914   0.26136   0.76767   0.00000  Uiso   1.00
O626   O     0.40785   0.13251   0.73607   0.00000  Uiso   1.00
O627   O     0.60119   0.19179   0.71805   0.00000  Uiso   1.00
C628   C     0.38580   0.15993   0.75872   0.00000  Uiso   1.00
C629   C     0.61435   0.17356   0.74122   0.00000  Uiso   1.00
C630   C     0.48904   0.05614   0.75901   0.00000  Uiso   1.00
C631   C     0.51017   0.27766   0.74137   0.00000  Uiso   1.00
C632   C     0.52155   0.14500   0.64409   0.00000  Uiso   1.00
C633   C     0.47919   0.18841   0.85623   0.00000  Uiso   1.00
C634   C     0.46919   0.19692   0.89962   0.00000  Uiso   1.00
C635   C     0.52935   0.13545   0.60180   0.00000  Uiso   1.00
C636   C     0.42821   0.22836   0.96276   0.00000  Uiso   1.00
C637   C     0.44015   0.22569   0.92176   0.00000  Uiso   1.00
C638   C     0.48769   0.17382   0.91942   0.00000  Uiso   1.00
C639   C     0.47641   0.17680   0.96078   0.00000  Uiso   1.00
C640   C     0.44598   0.20445   0.98227   0.00000  Uiso   1.00
C641   C     0.49482   0.15358   0.98144   0.00000  Uiso   1.00
C642   C     0.48590   0.16208   0.52311   0.00000  Uiso   1.00
C643   C     0.45168   0.18615   0.54345   0.00000  Uiso   1.00
C644   C     0.43288   0.20760   0.52317   0.00000  Uiso   1.00
C645   C     0.52057   0.12122   0.96218   0.00000  Uiso   1.00
C646   C     0.53831   0.09917   0.98288   0.00000  Uiso   1.00
C647   C     0.53365   0.11041   0.52285   0.00000  Uiso   1.00
C648   C     0.50955   0.14384   0.54298   0.00000  Uiso   1.00
C649   C     0.55310   0.08864   0.54293   0.00000  Uiso   1.00
C650   C     0.54949   0.10019   0.58267   0.00000  Uiso   1.00
C651   C     0.51143   0.15843   0.58174   0.00000  Uiso   1.00
H652   H     0.40737   0.22645   0.53968   0.00000  Uiso   1.00
H653   H     0.56287   0.08201   0.59841   0.00000  Uiso   1.00
H654   H     0.55676   0.07374   0.96724   0.00000  Uiso   1.00
H655   H     0.40559   0.25009   0.97955   0.00000  Uiso   1.00
H656   H     0.51146   0.15406   0.90175   0.00000  Uiso   1.00
H657   H     0.52600   0.11070   0.93133   0.00000  Uiso   1.00
H658   H     0.57042   0.06226   0.52806   0.00000  Uiso   1.00
C659   C     0.66034   0.17621   0.73765   0.00000  Uiso   1.00
H660   H     0.35006   0.19337   0.71503   0.00000  Uiso   1.00
C661   C     0.34042   0.15755   0.76211   0.00000  Uiso   1.00
H662   H     0.65137   0.14035   0.78502   0.00000  Uiso   1.00
C663   C     0.51431   0.32212   0.73814   0.00000  Uiso   1.00
C664   C     0.48479   0.01208   0.76195   0.00000  Uiso   1.00
H665   H     0.45713   0.33219   0.78383   0.00000  Uiso   1.00
F666   F     0.54845   0.00619   0.71073   0.00000  Uiso   1.00
F667   F     0.49906   0.19617   0.59952   0.00000  Uiso   1.00
N668   N     0.42353   0.25342   0.90350   0.00000  Uiso   1.00
O669   O     0.45019   0.27993   0.88149   0.00000  Uiso   1.00
O670   O     0.38268   0.25855   0.91552   0.00000  Uiso   1.00
F671   F     0.43244   0.18535   0.58251   0.00000  Uiso   1.00
Zn672  Zn    0.85910   0.14090   0.78278   0.00000  Uiso   1.00
Zn673  Zn    0.80125   0.12378   0.72258   0.00000  Uiso   1.00
Zn674  Zn    0.87833   0.19664   0.71188   0.00000  Uiso   1.00
Zn675  Zn    0.79465   0.20535   0.78277   0.00000  Uiso   1.00
O676   O     0.83333   0.16667   0.75000   0.00000  Uiso   1.00
O677   O     0.73656   0.18960   0.77820   0.00000  Uiso   1.00
O678   O     0.92106   0.15277   0.76768   0.00000  Uiso   1.00
O679   O     0.80467   0.06903   0.73607   0.00000  Uiso   1.00
O680   O     0.87104   0.25527   0.71805   0.00000  Uiso   1.00
O681   O     0.82360   0.12393   0.66625   0.00000  Uiso   1.00
O682   O     0.79354   0.20646   0.83749   0.00000  Uiso   1.00
O683   O     0.87755   0.17493   0.65877   0.00000  Uiso   1.00
O684   O     0.83865   0.16135   0.83749   0.00000  Uiso   1.00
O685   O     0.84515   0.08101   0.77821   0.00000  Uiso   1.00
O686   O     0.81247   0.26136   0.76767   0.00000  Uiso   1.00
O687   O     0.74119   0.13251   0.73607   0.00000  Uiso   1.00
O688   O     0.93452   0.19179   0.71805   0.00000  Uiso   1.00
C689   C     0.71914   0.15993   0.75872   0.00000  Uiso   1.00
C690   C     0.94769   0.17356   0.74122   0.00000  Uiso   1.00
C691   C     0.82238   0.05614   0.75901   0.00000  Uiso   1.00
C692   C     0.84351   0.27766   0.74137   0.00000  Uiso   1.00
C693   C     0.85488   0.14500   0.64409   0.00000  Uiso   1.00
C694   C     0.81252   0.18841   0.85623   0.00000  Uiso   1.00
C695   C     0.80252   0.19692   0.89962   0.00000  Uiso   1.00
C696   C     0.86268   0.13545   0.60180   0.00000  Uiso   1.00
C697   C     0.76154   0.22836   0.96276   0.00000  Uiso   1.00
C698   C     0.77348   0.22569   0.92176   0.00000  Uiso   1.00
C699   C     0.82102   0.17382   0.91942   0.00000  Uiso   1.00
C700   C     0.80974   0.17680   0.96078   0.00000  Uiso   1.00
C701   C     0.77931   0.20445   0.98227   0.00000  Uiso   1.00
C702   C     0.82815   0.15358   0.98144   0.00000  Uiso   1.00
C703   C     0.81924   0.16208   0.52311   0.00000  Uiso   1.00
C704   C     0.78501   0.18615   0.54345   0.00000  Uiso   1.00
C705   C     0.76621   0.20760   0.52317   0.00000  Uiso   1.00
C706   C     0.85390   0.12122   0.96218   0.00000  Uiso   1.00
C707   C     0.87165   0.09917   0.98288   0.00000  Uiso   1.00
C708   C     0.86698   0.11041   0.52285   0.00000  Uiso   1.00
C709   C     0.84288   0.14384   0.54298   0.00000  Uiso   1.00
C710   C     0.88643   0.08864   0.54293   0.00000  Uiso   1.00
C711   C     0.88282   0.10019   0.58267   0.00000  Uiso   1.00
C712   C     0.84476   0.15843   0.58174   0.00000  Uiso   1.00
H713   H     0.74070   0.22645   0.53968   0.00000  Uiso   1.00
H714   H     0.89620   0.08201   0.59841   0.00000  Uiso   1.00
H715   H     0.89009   0.07374   0.96724   0.00000  Uiso   1.00
H716   H     0.73893   0.25009   0.97955   0.00000  Uiso   1.00
H717   H     0.84479   0.15406   0.90175   0.00000  Uiso   1.00
H718   H     0.85933   0.11070   0.93133   0.00000  Uiso   1.00
H719   H     0.90375   0.06226   0.52806   0.00000  Uiso   1.00
C720   C     0.99368   0.17621   0.73765   0.00000  Uiso   1.00
H721   H     0.68339   0.19337   0.71503   0.00000  Uiso   1.00
C722   C     0.67375   0.15755   0.76211   0.00000  Uiso   1.00
H723   H     0.98471   0.14035   0.78502   0.00000  Uiso   1.00
C724   C     0.84764   0.32212   0.73814   0.00000  Uiso   1.00
C725   C     0.81812   0.01208   0.76195   0.00000  Uiso   1.00
H726   H     0.79047   0.33219   0.78383   0.00000  Uiso   1.00
F727   F     0.88178   0.00619   0.71073   0.00000  Uiso   1.00
F728   F     0.83239   0.19617   0.59952   0.00000  Uiso   1.00
N729   N     0.75687   0.25342   0.90350   0.00000  Uiso   1.00
O730   O     0.78352   0.27993   0.88149   0.00000  Uiso   1.00
O731   O     0.71602   0.25855   0.91552   0.00000  Uiso   1.00
F732   F     0.76578   0.18535   0.58251   0.00000  Uiso   1.00
Zn733  Zn    0.19244   0.47423   0.78278   0.00000  Uiso   1.00
Zn734  Zn    0.13459   0.45711   0.72258   0.00000  Uiso   1.00
Zn735  Zn    0.21166   0.52997   0.71188   0.00000  Uiso   1.00
Zn736  Zn    0.12798   0.53868   0.78277   0.00000  Uiso   1.00
O737   O     0.16667   0.50000   0.75000   0.00000  Uiso   1.00
O738   O     0.06990   0.52293   0.77820   0.00000  Uiso   1.00
O739   O     0.25440   0.48610   0.76768   0.00000  Uiso   1.00
O740   O     0.13800   0.40236   0.73607   0.00000  Uiso   1.00
O741   O     0.20437   0.58860   0.71805   0.00000  Uiso   1.00
O742   O     0.15693   0.45726   0.66625   0.00000  Uiso   1.00
O743   O     0.12687   0.53979   0.83749   0.00000  Uiso   1.00
O744   O     0.21088   0.50826   0.65877   0.00000  Uiso   1.00
O745   O     0.17198   0.49468   0.83749   0.00000  Uiso   1.00
O746   O     0.17849   0.41434   0.77821   0.00000  Uiso   1.00
O747   O     0.14581   0.59469   0.76767   0.00000  Uiso   1.00
O748   O     0.07452   0.46584   0.73607   0.00000  Uiso   1.00
O749   O     0.26785   0.52512   0.71805   0.00000  Uiso   1.00
C750   C     0.05247   0.49326   0.75872   0.00000  Uiso   1.00
C751   C     0.28102   0.50690   0.74122   0.00000  Uiso   1.00
C752   C     0.15571   0.38948   0.75901   0.00000  Uiso   1.00
C753   C     0.17684   0.61099   0.74137   0.00000  Uiso   1.00
C754   C     0.18821   0.47833   0.64409   0.00000  Uiso   1.00
C755   C     0.14586   0.52174   0.85623   0.00000  Uiso   1.00
C756   C     0.13586   0.53025   0.89962   0.00000  Uiso   1.00
C757   C     0.19602   0.46878   0.60180   0.00000  Uiso   1.00
C758   C     0.09487   0.56170   0.96276   0.00000  Uiso   1.00
C759   C     0.10682   0.55902   0.92176   0.00000  Uiso   1.00
C760   C     0.15435   0.50715   0.91942   0.00000  Uiso   1.00
C761   C     0.14307   0.51013   0.96078   0.00000  Uiso   1.00
C762   C     0.11264   0.53778   0.98227   0.00000  Uiso   1.00
C763   C     0.16148   0.48692   0.98144   0.00000  Uiso   1.00
C764   C     0.15257   0.49542   0.52311   0.00000  Uiso   1.00
C765   C     0.11835   0.51948   0.54345   0.00000  Uiso   1.00
C766   C     0.09955   0.54093   0.52317   0.00000  Uiso   1.00
C767   C     0.18723   0.45455   0.96218   0.00000  Uiso   1.00
C768   C     0.20498   0.43250   0.98288   0.00000  Uiso   1.00
C769   C     0.20031   0.44374   0.52285   0.00000  Uiso   1.00
C770   C     0.17621   0.47718   0.54298   0.00000  Uiso   1.00
C771   C     0.21977   0.42197   0.54293   0.00000  Uiso   1.00
C772   C     0.21616   0.43352   0.58267   0.00000  Uiso   1.00
C773   C     0.17809   0.49176   0.58174   0.00000  Uiso   1.00
H774   H     0.07403   0.55978   0.53968   0.00000  Uiso   1.00
H775   H     0.22954   0.41534   0.59841   0.00000  Uiso   1.00
H776   H     0.22343   0.40708   0.96724   0.00000  Uiso   1.00
H777   H     0.07226   0.58342   0.97955   0.00000  Uiso   1.00
H778   H     0.17812   0.48740   0.90175   0.00000  Uiso   1.00
H779   H     0.19267   0.44403   0.93133   0.00000  Uiso   1.00
H780   H     0.23709   0.39559   0.52806   0.00000  Uiso   1.00
C781   C     0.32701   0.50954   0.73765   0.00000  Uiso   1.00
H782   H     0.01672   0.52671   0.71503   0.00000  Uiso   1.00
C783   C     0.00709   0.49088   0.76211   0.00000  Uiso   1.00
H784   H     0.31804   0.47368   0.78502   0.00000  Uiso   1.00
C785   C     0.18097   0.65546   0.73814   0.00000  Uiso   1.00
C786   C     0.15146   0.34542   0.76195   0.00000  Uiso   1.00
H787   H     0.12380   0.66552   0.78383   0.00000  Uiso   1.00
F788   F     0.21512   0.33952   0.71073   0.00000  Uiso   1.00
F789   F     0.16573   0.52951   0.59952   0.00000  Uiso   1.00
N790   N     0.09020   0.58675   0.90350   0.00000  Uiso   1.00
O791   O     0.11686   0.61326   0.88149   0.00000  Uiso   1.00
O792   O     0.04935   0.59189   0.91552   0.00000  Uiso   1.00
F793   F     0.09911   0.51869   0.58251   0.00000  Uiso   1.00
Zn794  Zn    0.52577   0.47423   0.78278   0.00000  Uiso   1.00
Zn795  Zn    0.46792   0.45711   0.72258   0.00000  Uiso   1.00
Zn796  Zn    0.54500   0.52997   0.71188   0.00000  Uiso   1.00
Zn797  Zn    0.46131   0.53868   0.78277   0.00000  Uiso   1.00
O798   O     0.50000   0.50000   0.75000   0.00000  Uiso   1.00
O799   O     0.40323   0.52293   0.77820   0.00000  Uiso   1.00
O800   O     0.58773   0.48610   0.76768   0.00000  Uiso   1.00
O801   O     0.47133   0.40236   0.73607   0.00000  Uiso   1.00
O802   O     0.53771   0.58860   0.71805   0.00000  Uiso   1.00
O803   O     0.49027   0.45726   0.66625   0.00000  Uiso   1.00
O804   O     0.46020   0.53979   0.83749   0.00000  Uiso   1.00
O805   O     0.54421   0.50826   0.65877   0.00000  Uiso   1.00
O806   O     0.50532   0.49468   0.83749   0.00000  Uiso   1.00
O807   O     0.51182   0.41434   0.77821   0.00000  Uiso   1.00
O808   O     0.47914   0.59469   0.76767   0.00000  Uiso   1.00
O809   O     0.40785   0.46584   0.73607   0.00000  Uiso   1.00
O810   O     0.60119   0.52512   0.71805   0.00000  Uiso   1.00
C811   C     0.38580   0.49326   0.75872   0.00000  Uiso   1.00
C812   C     0.61435   0.50690   0.74122   0.00000  Uiso   1.00
C813   C     0.48904   0.38948   0.75901   0.00000  Uiso   1.00
C814   C     0.51017   0.61099   0.74137   0.00000  Uiso   1.00
C815   C     0.52155   0.47833   0.64409   0.00000  Uiso   1.00
C816   C     0.47919   0.52174   0.85623   0.00000  Uiso   1.00
C817   C     0.46919   0.53025   0.89962   0.00000  Uiso   1.00
C818   C     0.52935   0.46878   0.60180   0.00000  Uiso   1.00
C819   C     0.42821   0.56170   0.96276   0.00000  Uiso   1.00
C820   C     0.44015   0.55902   0.92176   0.00000  Uiso   1.00
C821   C     0.48769   0.50715   0.91942   0.00000  Uiso   1.00
C822   C     0.47641   0.51013   0.96078   0.00000  Uiso   1.00
C823   C     0.44598   0.53778   0.98227   0.00000  Uiso   1.00
C824   C     0.49482   0.48692   0.98144   0.00000  Uiso   1.00
C825   C     0.48590   0.49542   0.52311   0.00000  Uiso   1.00
C826   C     0.45168   0.51948   0.54345   0.00000  Uiso   1.00
C827   C     0.43288   0.54093   0.52317   0.00000  Uiso   1.00
C828   C     0.52057   0.45455   0.96218   0.00000  Uiso   1.00
C829   C     0.53831   0.43250   0.98288   0.00000  Uiso   1.00
C830   C     0.53365   0.44374   0.52285   0.00000  Uiso   1.00
C831   C     0.50955   0.47718   0.54298   0.00000  Uiso   1.00
C832   C     0.55310   0.42197   0.54293   0.00000  Uiso   1.00
C833   C     0.54949   0.43352   0.58267   0.00000  Uiso   1.00
C834   C     0.51143   0.49176   0.58174   0.00000  Uiso   1.00
H835   H     0.40737   0.55978   0.53968   0.00000  Uiso   1.00
H836   H     0.56287   0.41534   0.59841   0.00000  Uiso   1.00
H837   H     0.55676   0.40708   0.96724   0.00000  Uiso   1.00
H838   H     0.40559   0.58342   0.97955   0.00000  Uiso   1.00
H839   H     0.51146   0.48740   0.90175   0.00000  Uiso   1.00
H840   H     0.52600   0.44403   0.93133   0.00000  Uiso   1.00
H841   H     0.57042   0.39559   0.52806   0.00000  Uiso   1.00
C842   C     0.66034   0.50954   0.73765   0.00000  Uiso   1.00
H843   H     0.35006   0.52671   0.71503   0.00000  Uiso   1.00
C844   C     0.34042   0.49088   0.76211   0.00000  Uiso   1.00
H845   H     0.65137   0.47368   0.78502   0.00000  Uiso   1.00
C846   C     0.51431   0.65546   0.73814   0.00000  Uiso   1.00
C847   C     0.48479   0.34542   0.76195   0.00000  Uiso   1.00
H848   H     0.45713   0.66552   0.78383   0.00000  Uiso   1.00
F849   F     0.54845   0.33952   0.71073   0.00000  Uiso   1.00
F850   F     0.49906   0.52951   0.59952   0.00000  Uiso   1.00
N851   N     0.42353   0.58675   0.90350   0.00000  Uiso   1.00
O852   O     0.45019   0.61326   0.88149   0.00000  Uiso   1.00
O853   O     0.38268   0.59189   0.91552   0.00000  Uiso   1.00
F854   F     0.43244   0.51869   0.58251   0.00000  Uiso   1.00
Zn855  Zn    0.85910   0.47423   0.78278   0.00000  Uiso   1.00
Zn856  Zn    0.80125   0.45711   0.72258   0.00000  Uiso   1.00
Zn857  Zn    0.87833   0.52997   0.71188   0.00000  Uiso   1.00
Zn858  Zn    0.79465   0.53868   0.78277   0.00000  Uiso   1.00
O859   O     0.83333   0.50000   0.75000   0.00000  Uiso   1.00
O860   O     0.73656   0.52293   0.77820   0.00000  Uiso   1.00
O861   O     0.92106   0.48610   0.76768   0.00000  Uiso   1.00
O862   O     0.80467   0.40236   0.73607   0.00000  Uiso   1.00
O863   O     0.87104   0.58860   0.71805   0.00000  Uiso   1.00
O864   O     0.82360   0.45726   0.66625   0.00000  Uiso   1.00
O865   O     0.79354   0.53979   0.83749   0.00000  Uiso   1.00
O866   O     0.87755   0.50826   0.65877   0.00000  Uiso   1.00
O867   O     0.83865   0.49468   0.83749   0.00000  Uiso   1.00
O868   O     0.84515   0.41434   0.77821   0.00000  Uiso   1.00
O869   O     0.81247   0.59469   0.76767   0.00000  Uiso   1.00
O870   O     0.74119   0.46584   0.73607   0.00000  Uiso   1.00
O871   O     0.93452   0.52512   0.71805   0.00000  Uiso   1.00
C872   C     0.71914   0.49326   0.75872   0.00000  Uiso   1.00
C873   C     0.94769   0.50690   0.74122   0.00000  Uiso   1.00
C874   C     0.82238   0.38948   0.75901   0.00000  Uiso   1.00
C875   C     0.84351   0.61099   0.74137   0.00000  Uiso   1.00
C876   C     0.85488   0.47833   0.64409   0.00000  Uiso   1.00
C877   C     0.81252   0.52174   0.85623   0.00000  Uiso   1.00
C878   C     0.80252   0.53025   0.89962   0.00000  Uiso   1.00
C879   C     0.86268   0.46878   0.60180   0.00000  Uiso   1.00
C880   C     0.76154   0.56170   0.96276   0.00000  Uiso   1.00
C881   C     0.77348   0.55902   0.92176   0.00000  Uiso   1.00
C882   C     0.82102   0.50715   0.91942   0.00000  Uiso   1.00
C883   C     0.80974   0.51013   0.96078   0.00000  Uiso   1.00
C884   C     0.77931   0.53778   0.98227   0.00000  Uiso   1.00
C885   C     0.82815   0.48692   0.98144   0.00000  Uiso   1.00
C886   C     0.81924   0.49542   0.52311   0.00000  Uiso   1.00
C887   C     0.78501   0.51948   0.54345   0.00000  Uiso   1.00
C888   C     0.76621   0.54093   0.52317   0.00000  Uiso   1.00
C889   C     0.85390   0.45455   0.96218   0.00000  Uiso   1.00
C890   C     0.87165   0.43250   0.98288   0.00000  Uiso   1.00
C891   C     0.86698   0.44374   0.52285   0.00000  Uiso   1.00
C892   C     0.84288   0.47718   0.54298   0.00000  Uiso   1.00
C893   C     0.88643   0.42197   0.54293   0.00000  Uiso   1.00
C894   C     0.88282   0.43352   0.58267   0.00000  Uiso   1.00
C895   C     0.84476   0.49176   0.58174   0.00000  Uiso   1.00
H896   H     0.74070   0.55978   0.53968   0.00000  Uiso   1.00
H897   H     0.89620   0.41534   0.59841   0.00000  Uiso   1.00
H898   H     0.89009   0.40708   0.96724   0.00000  Uiso   1.00
H899   H     0.73893   0.58342   0.97955   0.00000  Uiso   1.00
H900   H     0.84479   0.48740   0.90175   0.00000  Uiso   1.00
H901   H     0.85933   0.44403   0.93133   0.00000  Uiso   1.00
H902   H     0.90375   0.39559   0.52806   0.00000  Uiso   1.00
C903   C     0.99368   0.50954   0.73765   0.00000  Uiso   1.00
H904   H     0.68339   0.52671   0.71503   0.00000  Uiso   1.00
C905   C     0.67375   0.49088   0.76211   0.00000  Uiso   1.00
H906   H     0.98471   0.47368   0.78502   0.00000  Uiso   1.00
C907   C     0.84764   0.65546   0.73814   0.00000  Uiso   1.00
C908   C     0.81812   0.34542   0.76195   0.00000  Uiso   1.00
H909   H     0.79047   0.66552   0.78383   0.00000  Uiso   1.00
F910   F     0.88178   0.33952   0.71073   0.00000  Uiso   1.00
F911   F     0.83239   0.52951   0.59952   0.00000  Uiso   1.00
N912   N     0.75687   0.58675   0.90350   0.00000  Uiso   1.00
O913   O     0.78352   0.61326   0.88149   0.00000  Uiso   1.00
O914   O     0.71602   0.59189   0.91552   0.00000  Uiso   1.00
F915   F     0.76578   0.51869   0.58251   0.00000  Uiso   1.00
Zn916  Zn    0.19244   0.80756   0.78278   0.00000  Uiso   1.00
Zn917  Zn    0.13459   0.79044   0.72258   0.00000  Uiso   1.00
Zn918  Zn    0.21166   0.86331   0.71188   0.00000  Uiso   1.00
Zn919  Zn    0.12798   0.87202   0.78277   0.00000  Uiso   1.00
O920   O     0.16667   0.83333   0.75000   0.00000  Uiso   1.00
O921   O     0.06990   0.85627   0.77820   0.00000  Uiso   1.00
O922   O     0.25440   0.81944   0.76768   0.00000  Uiso   1.00
O923   O     0.13800   0.73570   0.73607   0.00000  Uiso   1.00
O924   O     0.20437   0.92193   0.71805   0.00000  Uiso   1.00
O925   O     0.15693   0.79060   0.66625   0.00000  Uiso   1.00
O926   O     0.12687   0.87313   0.83749   0.00000  Uiso   1.00
O927   O     0.21088   0.84159   0.65877   0.00000  Uiso   1.00
O928   O     0.17198   0.82802   0.83749   0.00000  Uiso   1.00
O929   O     0.17849   0.74768   0.77821   0.00000  Uiso   1.00
O930   O     0.14581   0.92803   0.76767   0.00000  Uiso   1.00
O931   O     0.07452   0.79917   0.73607   0.00000  Uiso   1.00
O932   O     0.26785   0.85845   0.71805   0.00000  Uiso   1.00
C933   C     0.05247   0.82659   0.75872   0.00000  Uiso   1.00
C934   C     0.28102   0.84023   0.74122   0.00000  Uiso   1.00
C935   C     0.15571   0.72281   0.75901   0.00000  Uiso   1.00
C936   C     0.17684   0.94433   0.74137   0.00000  Uiso   1.00
C937   C     0.18821   0.81166   0.64409   0.00000  Uiso   1.00
C938   C     0.14586   0.85508   0.85623   0.00000  Uiso   1.00
C939   C     0.13586   0.86358   0.89962   0.00000  Uiso   1.00
C940   C     0.19602   0.80212   0.60180   0.00000  Uiso   1.00
C941   C     0.09487   0.89503   0.96276   0.00000  Uiso   1.00
C942   C     0.10682   0.89236   0.92176   0.00000  Uiso   1.00
C943   C     0.15435   0.84049   0.91942   0.00000  Uiso   1.00
C944   C     0.14307   0.84347   0.96078   0.00000  Uiso   1.00
C945   C     0.11264   0.87111   0.98227   0.00000  Uiso   1.00
C946   C     0.16148   0.82025   0.98144   0.00000  Uiso   1.00
C947   C     0.15257   0.82875   0.52311   0.00000  Uiso   1.00
C948   C     0.11835   0.85281   0.54345   0.00000  Uiso   1.00
C949   C     0.09955   0.87426   0.52317   0.00000  Uiso   1.00
C950   C     0.18723   0.78789   0.96218   0.00000  Uiso   1.00
C951   C     0.20498   0.76583   0.98288   0.00000  Uiso   1.00
C952   C     0.20031   0.77708   0.52285   0.00000  Uiso   1.00
C953   C     0.17621   0.81051   0.54298   0.00000  Uiso   1.00
C954   C     0.21977   0.75531   0.54293   0.00000  Uiso   1.00
C955   C     0.21616   0.76685   0.58267   0.00000  Uiso   1.00
C956   C     0.17809   0.82510   0.58174   0.00000  Uiso   1.00
H957   H     0.07403   0.89312   0.53968   0.00000  Uiso   1.00
H958   H     0.22954   0.74867   0.59841   0.00000  Uiso   1.00
H959   H     0.22343   0.74041   0.96724   0.00000  Uiso   1.00
H960   H     0.07226   0.91675   0.97955   0.00000  Uiso   1.00
H961   H     0.17812   0.82073   0.90175   0.00000  Uiso   1.00
H962   H     0.19267   0.77736   0.93133   0.00000  Uiso   1.00
H963   H     0.23709   0.72892   0.52806   0.00000  Uiso   1.00
C964   C     0.32701   0.84287   0.73765   0.00000  Uiso   1.00
H965   H     0.01672   0.86004   0.71503   0.00000  Uiso   1.00
C966   C     0.00709   0.82422   0.76211   0.00000  Uiso   1.00
H967   H     0.31804   0.80702   0.78502   0.00000  Uiso   1.00
C968   C     0.18097   0.98879   0.73814   0.00000  Uiso   1.00
C969   C     0.15146   0.67875   0.76195   0.00000  Uiso   1.00
H970   H     0.12380   0.99885   0.78383   0.00000  Uiso   1.00
F971   F     0.21512   0.67286   0.71073   0.00000  Uiso   1.00
F972   F     0.16573   0.86284   0.59952   0.00000  Uiso   1.00
N973   N     0.09020   0.92009   0.90350   0.00000  Uiso   1.00
O974   O     0.11686   0.94659   0.88149   0.00000  Uiso   1.00
O975   O     0.04935   0.92522   0.91552   0.00000  Uiso   1.00
F976   F     0.09911   0.85202   0.58251   0.00000  Uiso   1.00
Zn977  Zn    0.52577   0.80756   0.78278   0.00000  Uiso   1.00
Zn978  Zn    0.46792   0.79044   0.72258   0.00000  Uiso   1.00
Zn979  Zn    0.54500   0.86331   0.71188   0.00000  Uiso   1.00
Zn980  Zn    0.46131   0.87202   0.78277   0.00000  Uiso   1.00
O981   O     0.50000   0.83333   0.75000   0.00000  Uiso   1.00
O982   O     0.40323   0.85627   0.77820   0.00000  Uiso   1.00
O983   O     0.58773   0.81944   0.76768   0.00000  Uiso   1.00
O984   O     0.47133   0.73570   0.73607   0.00000  Uiso   1.00
O985   O     0.53771   0.92193   0.71805   0.00000  Uiso   1.00
O986   O     0.49027   0.79060   0.66625   0.00000  Uiso   1.00
O987   O     0.46020   0.87313   0.83749   0.00000  Uiso   1.00
O988   O     0.54421   0.84159   0.65877   0.00000  Uiso   1.00
O989   O     0.50532   0.82802   0.83749   0.00000  Uiso   1.00
O990   O     0.51182   0.74768   0.77821   0.00000  Uiso   1.00
O991   O     0.47914   0.92803   0.76767   0.00000  Uiso   1.00
O992   O     0.40785   0.79917   0.73607   0.00000  Uiso   1.00
O993   O     0.60119   0.85845   0.71805   0.00000  Uiso   1.00
C994   C     0.38580   0.82659   0.75872   0.00000  Uiso   1.00
C995   C     0.61435   0.84023   0.74122   0.00000  Uiso   1.00
C996   C     0.48904   0.72281   0.75901   0.00000  Uiso   1.00
C997   C     0.51017   0.94433   0.74137   0.00000  Uiso   1.00
C998   C     0.52155   0.81166   0.64409   0.00000  Uiso   1.00
C999   C     0.47919   0.85508   0.85623   0.00000  Uiso   1.00
C1000  C     0.46919   0.86358   0.89962   0.00000  Uiso   1.00
C1001  C     0.52935   0.80212   0.60180   0.00000  Uiso   1.00
C1002  C     0.42821   0.89503   0.96276   0.00000  Uiso   1.00
C1003  C     0.44015   0.89236   0.92176   0.00000  Uiso   1.00
C1004  C     0.48769   0.84049   0.91942   0.00000  Uiso   1.00
C1005  C     0.47641   0.84347   0.96078   0.00000  Uiso   1.00
C1006  C     0.44598   0.87111   0.98227   0.00000  Uiso   1.00
C1007  C     0.49482   0.82025   0.98144   0.00000  Uiso   1.00
C1008  C     0.48590   0.82875   0.52311   0.00000  Uiso   1.00
C1009  C     0.45168   0.85281   0.54345   0.00000  Uiso   1.00
C1010  C     0.43288   0.87426   0.52317   0.00000  Uiso   1.00
C1011  C     0.52057   0.78789   0.96218   0.00000  Uiso   1.00
C1012  C     0.53831   0.76583   0.98288   0.00000  Uiso   1.00
C1013  C     0.53365   0.77708   0.52285   0.00000  Uiso   1.00
C1014  C     0.50955   0.81051   0.54298   0.00000  Uiso   1.00
C1015  C     0.55310   0.75531   0.54293   0.00000  Uiso   1.00
C1016  C     0.54949   0.76685   0.58267   0.00000  Uiso   1.00
C1017  C     0.51143   0.82510   0.58174   0.00000  Uiso   1.00
H1018  H     0.40737   0.89312   0.53968   0.00000  Uiso   1.00
H1019  H     0.56287   0.74867   0.59841   0.00000  Uiso   1.00
H1020  H     0.55676   0.74041   0.96724   0.00000  Uiso   1.00
H1021  H     0.40559   0.91675   0.97955   0.00000  Uiso   1.00
H1022  H     0.51146   0.82073   0.90175   0.00000  Uiso   1.00
H1023  H     0.52600   0.77736   0.93133   0.00000  Uiso   1.00
H1024  H     0.57042   0.72892   0.52806   0.00000  Uiso   1.00
C1025  C     0.66034   0.84287   0.73765   0.00000  Uiso   1.00
H1026  H     0.35006   0.86004   0.71503   0.00000  Uiso   1.00
C1027  C     0.34042   0.82422   0.76211   0.00000  Uiso   1.00
H1028  H     0.65137   0.80702   0.78502   0.00000  Uiso   1.00
C1029  C     0.51431   0.98879   0.73814   0.00000  Uiso   1.00
C1030  C     0.48479   0.67875   0.76195   0.00000  Uiso   1.00
H1031  H     0.45713   0.99885   0.78383   0.00000  Uiso   1.00
F1032  F     0.54845   0.67286   0.71073   0.00000  Uiso   1.00
F1033  F     0.49906   0.86284   0.59952   0.00000  Uiso   1.00
N1034  N     0.42353   0.92009   0.90350   0.00000  Uiso   1.00
O1035  O     0.45019   0.94659   0.88149   0.00000  Uiso   1.00
O1036  O     0.38268   0.92522   0.91552   0.00000  Uiso   1.00
F1037  F     0.43244   0.85202   0.58251   0.00000  Uiso   1.00
Zn1038 Zn    0.85910   0.80756   0.78278   0.00000  Uiso   1.00
Zn1039 Zn    0.80125   0.79044   0.72258   0.00000  Uiso   1.00
Zn1040 Zn    0.87833   0.86331   0.71188   0.00000  Uiso   1.00
Zn1041 Zn    0.79465   0.87202   0.78277   0.00000  Uiso   1.00
O1042  O     0.83333   0.83333   0.75000   0.00000  Uiso   1.00
O1043  O     0.73656   0.85627   0.77820   0.00000  Uiso   1.00
O1044  O     0.92106   0.81944   0.76768   0.00000  Uiso   1.00
O1045  O     0.80467   0.73570   0.73607   0.00000  Uiso   1.00
O1046  O     0.87104   0.92193   0.71805   0.00000  Uiso   1.00
O1047  O     0.82360   0.79060   0.66625   0.00000  Uiso   1.00
O1048  O     0.79354   0.87313   0.83749   0.00000  Uiso   1.00
O1049  O     0.87755   0.84159   0.65877   0.00000  Uiso   1.00
O1050  O     0.83865   0.82802   0.83749   0.00000  Uiso   1.00
O1051  O     0.84515   0.74768   0.77821   0.00000  Uiso   1.00
O1052  O     0.81247   0.92803   0.76767   0.00000  Uiso   1.00
O1053  O     0.74119   0.79917   0.73607   0.00000  Uiso   1.00
O1054  O     0.93452   0.85845   0.71805   0.00000  Uiso   1.00
C1055  C     0.71914   0.82659   0.75872   0.00000  Uiso   1.00
C1056  C     0.94769   0.84023   0.74122   0.00000  Uiso   1.00
C1057  C     0.82238   0.72281   0.75901   0.00000  Uiso   1.00
C1058  C     0.84351   0.94433   0.74137   0.00000  Uiso   1.00
C1059  C     0.85488   0.81166   0.64409   0.00000  Uiso   1.00
C1060  C     0.81252   0.85508   0.85623   0.00000  Uiso   1.00
C1061  C     0.80252   0.86358   0.89962   0.00000  Uiso   1.00
C1062  C     0.86268   0.80212   0.60180   0.00000  Uiso   1.00
C1063  C     0.76154   0.89503   0.96276   0.00000  Uiso   1.00
C1064  C     0.77348   0.89236   0.92176   0.00000  Uiso   1.00
C1065  C     0.82102   0.84049   0.91942   0.00000  Uiso   1.00
C1066  C     0.80974   0.84347   0.96078   0.00000  Uiso   1.00
C1067  C     0.77931   0.87111   0.98227   0.00000  Uiso   1.00
C1068  C     0.82815   0.82025   0.98144   0.00000  Uiso   1.00
C1069  C     0.81924   0.82875   0.52311   0.00000  Uiso   1.00
C1070  C     0.78501   0.85281   0.54345   0.00000  Uiso   1.00
C1071  C     0.76621   0.87426   0.52317   0.00000  Uiso   1.00
C1072  C     0.85390   0.78789   0.96218   0.00000  Uiso   1.00
C1073  C     0.87165   0.76583   0.98288   0.00000  Uiso   1.00
C1074  C     0.86698   0.77708   0.52285   0.00000  Uiso   1.00
C1075  C     0.84288   0.81051   0.54298   0.00000  Uiso   1.00
C1076  C     0.88643   0.75531   0.54293   0.00000  Uiso   1.00
C1077  C     0.88282   0.76685   0.58267   0.00000  Uiso   1.00
C1078  C     0.84476   0.82510   0.58174   0.00000  Uiso   1.00
H1079  H     0.74070   0.89312   0.53968   0.00000  Uiso   1.00
H1080  H     0.89620   0.74867   0.59841   0.00000  Uiso   1.00
H1081  H     0.89009   0.74041   0.96724   0.00000  Uiso   1.00
H1082  H     0.73893   0.91675   0.97955   0.00000  Uiso   1.00
H1083  H     0.84479   0.82073   0.90175   0.00000  Uiso   1.00
H1084  H     0.85933   0.77736   0.93133   0.00000  Uiso   1.00
H1085  H     0.90375   0.72892   0.52806   0.00000  Uiso   1.00
C1086  C     0.99368   0.84287   0.73765   0.00000  Uiso   1.00
H1087  H     0.68339   0.86004   0.71503   0.00000  Uiso   1.00
C1088  C     0.67375   0.82422   0.76211   0.00000  Uiso   1.00
H1089  H     0.98471   0.80702   0.78502   0.00000  Uiso   1.00
C1090  C     0.84764   0.98879   0.73814   0.00000  Uiso   1.00
C1091  C     0.81812   0.67875   0.76195   0.00000  Uiso   1.00
H1092  H     0.79047   0.99885   0.78383   0.00000  Uiso   1.00
F1093  F     0.88178   0.67286   0.71073   0.00000  Uiso   1.00
F1094  F     0.83239   0.86284   0.59952   0.00000  Uiso   1.00
N1095  N     0.75687   0.92009   0.90350   0.00000  Uiso   1.00
O1096  O     0.78352   0.94659   0.88149   0.00000  Uiso   1.00
O1097  O     0.71602   0.92522   0.91552   0.00000  Uiso   1.00
F1098  F     0.76578   0.85202   0.58251   0.00000  Uiso   1.00
loop_
_geom_bond_atom_site_label_1
_geom_bond_atom_site_label_2
_geom_bond_distance
_geom_bond_site_symmetry_2
_ccdc_geom_bond_type
Zn1    O14     1.928   .     S
Zn1    O5      1.962   .     S
Zn1    O13     1.926   .     S
Zn1    O7      1.924   .     S
Zn2    O16     1.927   .     S
Zn2    O5      1.939   .     S
Zn2    O10     1.933   .     S
Zn2    O8      1.940   .     S
Zn3    O9      1.930   .     S
Zn3    O17     1.937   .     S
Zn3    O12     1.933   .     S
Zn3    O5      1.938   .     S
Zn4    O15     1.934   .     S
Zn4    O11     1.942   .     S
Zn4    O6      1.931   .     S
Zn4    O5      1.931   .     S
O6     C18     1.268   .     A
O7     C19     1.280   .     A
O8     C20     1.276   .     A
O9     C21     1.270   .     A
O10    C22     1.271   .     A
O11    C23     1.281   .     A
O12    C22     1.276   .     A
O13    C23     1.291   .     A
O14    C20     1.277   .     A
O15    C21     1.272   .     A
O16    C18     1.268   .     A
O17    C19     1.284   .     A
C18    C51     1.438   .     S
C19    C49     1.455   .     S
C20    C54     1.436   .     S
C21    C53     1.452   .     S
C22    C25     1.453   .     S
C23    C24     1.483   .     S
C24    C27     1.418   .     A
C24    C28     1.403   .     A
C25    C40     1.396   .     A
C25    C41     1.395   .     A
C26    C30     1.398   .     A
C26    C27     1.396   .     A
C26    H45     1.085   .     S
C27    N58     1.434   .     S
C28    H46     1.076   .     S
C28    C29     1.409   .     A
C29    C31     1.426   .     A
C29    C30     1.415   .     A
C30    C583    1.392   .     S
C31    C35     1.415   .     A
C31    C581    1.425   .     S
C32    C38     1.424   .     A
C32    C33     1.416   .     A
C32    C580    1.425   1_554 S
C33    C34     1.387   .     A
C33    F61     1.357   .     S
C34    H42     1.084   .     S
C34    C579    1.392   1_554 S
C35    H47     1.077   .     S
C35    C36     1.388   .     A
C36    H44     1.084   .     S
C36    C586    1.392   .     S
C37    C38     1.419   .     A
C37    C39     1.402   .     A
C37    C585    1.392   1_554 S
C38    C41     1.414   .     A
C39    H48     1.084   .     S
C39    C40     1.391   .     A
C40    H43     1.083   .     S
C41    F57     1.358   .     S
C49    H111    1.088   .     S
C49    C112    1.335   .     S
H50    C171    1.088   1_455 S
C51    C171    1.335   1_455 S
C51    H174    1.086   1_455 S
H52    C112    1.086   .     S
C53    C237    1.333   .     S
C53    F239    1.363   .     S
C54    C419    1.333   1_545 S
C54    H421    1.086   1_545 S
H55    C237    1.086   .     S
F56    C419    1.363   1_545 S
N58    O59     1.301   .     A
N58    O60     1.301   .     A
Zn62   O75     1.928   .     S
Zn62   O66     1.962   .     S
Zn62   O74     1.926   .     S
Zn62   O68     1.924   .     S
Zn63   O77     1.927   .     S
Zn63   O66     1.939   .     S
Zn63   O71     1.933   .     S
Zn63   O69     1.940   .     S
Zn64   O70     1.930   .     S
Zn64   O78     1.937   .     S
Zn64   O73     1.933   .     S
Zn64   O66     1.938   .     S
Zn65   O76     1.934   .     S
Zn65   O72     1.942   .     S
Zn65   O67     1.931   .     S
Zn65   O66     1.931   .     S
O67    C79     1.268   .     A
O68    C80     1.280   .     A
O69    C81     1.276   .     A
O70    C82     1.270   .     A
O71    C83     1.271   .     A
O72    C84     1.281   .     A
O73    C83     1.276   .     A
O74    C84     1.291   .     A
O75    C81     1.277   .     A
O76    C82     1.272   .     A
O77    C79     1.268   .     A
O78    C80     1.284   .     A
C79    C112    1.438   .     S
C80    C110    1.455   .     S
C81    C115    1.436   .     S
C82    C114    1.452   .     S
C83    C86     1.453   .     S
C84    C85     1.483   .     S
C85    C88     1.418   .     A
C85    C89     1.403   .     A
C86    C101    1.396   .     A
C86    C102    1.395   .     A
C87    C91     1.398   .     A
C87    C88     1.396   .     A
C87    H106    1.085   .     S
C88    N119    1.434   .     S
C89    H107    1.076   .     S
C89    C90     1.409   .     A
C90    C92     1.426   .     A
C90    C91     1.415   .     A
C91    C644    1.392   .     S
C92    C96     1.415   .     A
C92    C642    1.425   .     S
C93    C99     1.424   .     A
C93    C94     1.416   .     A
C93    C641    1.425   1_554 S
C94    C95     1.387   .     A
C94    F122    1.357   .     S
C95    H103    1.084   .     S
C95    C640    1.392   1_554 S
C96    H108    1.077   .     S
C96    C97     1.388   .     A
C97    H105    1.084   .     S
C97    C647    1.392   .     S
C98    C99     1.419   .     A
C98    C100    1.402   .     A
C98    C646    1.392   1_554 S
C99    C102    1.414   .     A
C100   H109    1.084   .     S
C100   C101    1.391   .     A
C101   H104    1.083   .     S
C102   F118    1.358   .     S
C110   H172    1.088   .     S
C110   C173    1.335   .     S
H113   C173    1.086   .     S
C114   C298    1.333   .     S
C114   F300    1.363   .     S
C115   C480    1.333   1_545 S
C115   H482    1.086   1_545 S
H116   C298    1.086   .     S
F117   C480    1.363   1_545 S
N119   O120    1.301   .     A
N119   O121    1.301   .     A
Zn123  O136    1.928   .     S
Zn123  O127    1.962   .     S
Zn123  O135    1.926   .     S
Zn123  O129    1.924   .     S
Zn124  O138    1.927   .     S
Zn124  O127    1.939   .     S
Zn124  O132    1.933   .     S
Zn124  O130    1.940   .     S
Zn125  O131    1.930   .     S
Zn125  O139    1.937   .     S
Zn125  O134    1.933   .     S
Zn125  O127    1.938   .     S
Zn126  O137    1.934   .     S
Zn126  O133    1.942   .     S
Zn126  O128    1.931   .     S
Zn126  O127    1.931   .     S
O128   C140    1.268   .     A
O129   C141    1.280   .     A
O130   C142    1.276   .     A
O131   C143    1.270   .     A
O132   C144    1.271   .     A
O133   C145    1.281   .     A
O134   C144    1.276   .     A
O135   C145    1.291   .     A
O136   C142    1.277   .     A
O137   C143    1.272   .     A
O138   C140    1.268   .     A
O139   C141    1.284   .     A
C140   C173    1.438   .     S
C141   C171    1.455   .     S
C142   C176    1.436   .     S
C143   C175    1.452   .     S
C144   C147    1.453   .     S
C145   C146    1.483   .     S
C146   C149    1.418   .     A
C146   C150    1.403   .     A
C147   C162    1.396   .     A
C147   C163    1.395   .     A
C148   C152    1.398   .     A
C148   C149    1.396   .     A
C148   H167    1.085   .     S
C149   N180    1.434   .     S
C150   H168    1.076   .     S
C150   C151    1.409   .     A
C151   C153    1.426   .     A
C151   C152    1.415   .     A
C152   C705    1.392   .     S
C153   C157    1.415   .     A
C153   C703    1.425   .     S
C154   C160    1.424   .     A
C154   C155    1.416   .     A
C154   C702    1.425   1_554 S
C155   C156    1.387   .     A
C155   F183    1.357   .     S
C156   H164    1.084   .     S
C156   C701    1.392   1_554 S
C157   H169    1.077   .     S
C157   C158    1.388   .     A
C158   H166    1.084   .     S
C158   C708    1.392   .     S
C159   C160    1.419   .     A
C159   C161    1.402   .     A
C159   C707    1.392   1_554 S
C160   C163    1.414   .     A
C161   H170    1.084   .     S
C161   C162    1.391   .     A
C162   H165    1.083   .     S
C163   F179    1.358   .     S
C171   H50     1.088   1_655 S
C171   C51     1.335   1_655 S
H174   C51     1.086   1_655 S
C175   C359    1.333   .     S
C175   F361    1.363   .     S
C176   C541    1.333   1_545 S
C176   H543    1.086   1_545 S
H177   C359    1.086   .     S
F178   C541    1.363   1_545 S
N180   O181    1.301   .     A
N180   O182    1.301   .     A
Zn184  O197    1.928   .     S
Zn184  O188    1.962   .     S
Zn184  O196    1.926   .     S
Zn184  O190    1.924   .     S
Zn185  O199    1.927   .     S
Zn185  O188    1.939   .     S
Zn185  O193    1.933   .     S
Zn185  O191    1.940   .     S
Zn186  O192    1.930   .     S
Zn186  O200    1.937   .     S
Zn186  O195    1.933   .     S
Zn186  O188    1.938   .     S
Zn187  O198    1.934   .     S
Zn187  O194    1.942   .     S
Zn187  O189    1.931   .     S
Zn187  O188    1.931   .     S
O189   C201    1.268   .     A
O190   C202    1.280   .     A
O191   C203    1.276   .     A
O192   C204    1.270   .     A
O193   C205    1.271   .     A
O194   C206    1.281   .     A
O195   C205    1.276   .     A
O196   C206    1.291   .     A
O197   C203    1.277   .     A
O198   C204    1.272   .     A
O199   C201    1.268   .     A
O200   C202    1.284   .     A
C201   C234    1.438   .     S
C202   C232    1.455   .     S
C203   C237    1.436   .     S
C204   C236    1.452   .     S
C205   C208    1.453   .     S
C206   C207    1.483   .     S
C207   C210    1.418   .     A
C207   C211    1.403   .     A
C208   C223    1.396   .     A
C208   C224    1.395   .     A
C209   C213    1.398   .     A
C209   C210    1.396   .     A
C209   H228    1.085   .     S
C210   N241    1.434   .     S
C211   H229    1.076   .     S
C211   C212    1.409   .     A
C212   C214    1.426   .     A
C212   C213    1.415   .     A
C213   C766    1.392   .     S
C214   C218    1.415   .     A
C214   C764    1.425   .     S
C215   C221    1.424   .     A
C215   C216    1.416   .     A
C215   C763    1.425   1_554 S
C216   C217    1.387   .     A
C216   F244    1.357   .     S
C217   H225    1.084   .     S
C217   C762    1.392   1_554 S
C218   H230    1.077   .     S
C218   C219    1.388   .     A
C219   H227    1.084   .     S
C219   C769    1.392   .     S
C220   C221    1.419   .     A
C220   C222    1.402   .     A
C220   C768    1.392   1_554 S
C221   C224    1.414   .     A
C222   H231    1.084   .     S
C222   C223    1.391   .     A
C223   H226    1.083   .     S
C224   F240    1.358   .     S
C232   H294    1.088   .     S
C232   C295    1.335   .     S
H233   C354    1.088   1_455 S
C234   C354    1.335   1_455 S
C234   H357    1.086   1_455 S
H235   C295    1.086   .     S
C236   C420    1.333   .     S
C236   F422    1.363   .     S
H238   C420    1.086   .     S
N241   O242    1.301   .     A
N241   O243    1.301   .     A
Zn245  O258    1.928   .     S
Zn245  O249    1.962   .     S
Zn245  O257    1.926   .     S
Zn245  O251    1.924   .     S
Zn246  O260    1.927   .     S
Zn246  O249    1.939   .     S
Zn246  O254    1.933   .     S
Zn246  O252    1.940   .     S
Zn247  O253    1.930   .     S
Zn247  O261    1.937   .     S
Zn247  O256    1.933   .     S
Zn247  O249    1.938   .     S
Zn248  O259    1.934   .     S
Zn248  O255    1.942   .     S
Zn248  O250    1.931   .     S
Zn248  O249    1.931   .     S
O250   C262    1.268   .     A
O251   C263    1.280   .     A
O252   C264    1.276   .     A
O253   C265    1.270   .     A
O254   C266    1.271   .     A
O255   C267    1.281   .     A
O256   C266    1.276   .     A
O257   C267    1.291   .     A
O258   C264    1.277   .     A
O259   C265    1.272   .     A
O260   C262    1.268   .     A
O261   C263    1.284   .     A
C262   C295    1.438   .     S
C263   C293    1.455   .     S
C264   C298    1.436   .     S
C265   C297    1.452   .     S
C266   C269    1.453   .     S
C267   C268    1.483   .     S
C268   C271    1.418   .     A
C268   C272    1.403   .     A
C269   C284    1.396   .     A
C269   C285    1.395   .     A
C270   C274    1.398   .     A
C270   C271    1.396   .     A
C270   H289    1.085   .     S
C271   N302    1.434   .     S
C272   H290    1.076   .     S
C272   C273    1.409   .     A
C273   C275    1.426   .     A
C273   C274    1.415   .     A
C274   C827    1.392   .     S
C275   C279    1.415   .     A
C275   C825    1.425   .     S
C276   C282    1.424   .     A
C276   C277    1.416   .     A
C276   C824    1.425   1_554 S
C277   C278    1.387   .     A
C277   F305    1.357   .     S
C278   H286    1.084   .     S
C278   C823    1.392   1_554 S
C279   H291    1.077   .     S
C279   C280    1.388   .     A
C280   H288    1.084   .     S
C280   C830    1.392   .     S
C281   C282    1.419   .     A
C281   C283    1.402   .     A
C281   C829    1.392   1_554 S
C282   C285    1.414   .     A
C283   H292    1.084   .     S
C283   C284    1.391   .     A
C284   H287    1.083   .     S
C285   F301    1.358   .     S
C293   H355    1.088   .     S
C293   C356    1.335   .     S
H296   C356    1.086   .     S
C297   C481    1.333   .     S
C297   F483    1.363   .     S
H299   C481    1.086   .     S
N302   O303    1.301   .     A
N302   O304    1.301   .     A
Zn306  O319    1.928   .     S
Zn306  O310    1.962   .     S
Zn306  O318    1.926   .     S
Zn306  O312    1.924   .     S
Zn307  O321    1.927   .     S
Zn307  O310    1.939   .     S
Zn307  O315    1.933   .     S
Zn307  O313    1.940   .     S
Zn308  O314    1.930   .     S
Zn308  O322    1.937   .     S
Zn308  O317    1.933   .     S
Zn308  O310    1.938   .     S
Zn309  O320    1.934   .     S
Zn309  O316    1.942   .     S
Zn309  O311    1.931   .     S
Zn309  O310    1.931   .     S
O311   C323    1.268   .     A
O312   C324    1.280   .     A
O313   C325    1.276   .     A
O314   C326    1.270   .     A
O315   C327    1.271   .     A
O316   C328    1.281   .     A
O317   C327    1.276   .     A
O318   C328    1.291   .     A
O319   C325    1.277   .     A
O320   C326    1.272   .     A
O321   C323    1.268   .     A
O322   C324    1.284   .     A
C323   C356    1.438   .     S
C324   C354    1.455   .     S
C325   C359    1.436   .     S
C326   C358    1.452   .     S
C327   C330    1.453   .     S
C328   C329    1.483   .     S
C329   C332    1.418   .     A
C329   C333    1.403   .     A
C330   C345    1.396   .     A
C330   C346    1.395   .     A
C331   C335    1.398   .     A
C331   C332    1.396   .     A
C331   H350    1.085   .     S
C332   N363    1.434   .     S
C333   H351    1.076   .     S
C333   C334    1.409   .     A
C334   C336    1.426   .     A
C334   C335    1.415   .     A
C335   C888    1.392   .     S
C336   C340    1.415   .     A
C336   C886    1.425   .     S
C337   C343    1.424   .     A
C337   C338    1.416   .     A
C337   C885    1.425   1_554 S
C338   C339    1.387   .     A
C338   F366    1.357   .     S
C339   H347    1.084   .     S
C339   C884    1.392   1_554 S
C340   H352    1.077   .     S
C340   C341    1.388   .     A
C341   H349    1.084   .     S
C341   C891    1.392   .     S
C342   C343    1.419   .     A
C342   C344    1.402   .     A
C342   C890    1.392   1_554 S
C343   C346    1.414   .     A
C344   H353    1.084   .     S
C344   C345    1.391   .     A
C345   H348    1.083   .     S
C346   F362    1.358   .     S
C354   H233    1.088   1_655 S
C354   C234    1.335   1_655 S
H357   C234    1.086   1_655 S
C358   C542    1.333   .     S
C358   F544    1.363   .     S
H360   C542    1.086   .     S
N363   O364    1.301   .     A
N363   O365    1.301   .     A
Zn367  O380    1.928   .     S
Zn367  O371    1.962   .     S
Zn367  O379    1.926   .     S
Zn367  O373    1.924   .     S
Zn368  O382    1.927   .     S
Zn368  O371    1.939   .     S
Zn368  O376    1.933   .     S
Zn368  O374    1.940   .     S
Zn369  O375    1.930   .     S
Zn369  O383    1.937   .     S
Zn369  O378    1.933   .     S
Zn369  O371    1.938   .     S
Zn370  O381    1.934   .     S
Zn370  O377    1.942   .     S
Zn370  O372    1.931   .     S
Zn370  O371    1.931   .     S
O372   C384    1.268   .     A
O373   C385    1.280   .     A
O374   C386    1.276   .     A
O375   C387    1.270   .     A
O376   C388    1.271   .     A
O377   C389    1.281   .     A
O378   C388    1.276   .     A
O379   C389    1.291   .     A
O380   C386    1.277   .     A
O381   C387    1.272   .     A
O382   C384    1.268   .     A
O383   C385    1.284   .     A
C384   C417    1.438   .     S
C385   C415    1.455   .     S
C386   C420    1.436   .     S
C387   C419    1.452   .     S
C388   C391    1.453   .     S
C389   C390    1.483   .     S
C390   C393    1.418   .     A
C390   C394    1.403   .     A
C391   C406    1.396   .     A
C391   C407    1.395   .     A
C392   C396    1.398   .     A
C392   C393    1.396   .     A
C392   H411    1.085   .     S
C393   N424    1.434   .     S
C394   H412    1.076   .     S
C394   C395    1.409   .     A
C395   C397    1.426   .     A
C395   C396    1.415   .     A
C396   C949    1.392   .     S
C397   C401    1.415   .     A
C397   C947    1.425   .     S
C398   C404    1.424   .     A
C398   C399    1.416   .     A
C398   C946    1.425   1_554 S
C399   C400    1.387   .     A
C399   F427    1.357   .     S
C400   H408    1.084   .     S
C400   C945    1.392   1_554 S
C401   H413    1.077   .     S
C401   C402    1.388   .     A
C402   H410    1.084   .     S
C402   C952    1.392   .     S
C403   C404    1.419   .     A
C403   C405    1.402   .     A
C403   C951    1.392   1_554 S
C404   C407    1.414   .     A
C405   H414    1.084   .     S
C405   C406    1.391   .     A
C406   H409    1.083   .     S
C407   F423    1.358   .     S
C415   H477    1.088   .     S
C415   C478    1.335   .     S
H416   C537    1.088   1_455 S
C417   C537    1.335   1_455 S
C417   H540    1.086   1_455 S
H418   C478    1.086   .     S
C419   C54     1.333   1_565 S
C419   F56     1.363   1_565 S
H421   C54     1.086   1_565 S
N424   O425    1.301   .     A
N424   O426    1.301   .     A
Zn428  O441    1.928   .     S
Zn428  O432    1.962   .     S
Zn428  O440    1.926   .     S
Zn428  O434    1.924   .     S
Zn429  O443    1.927   .     S
Zn429  O432    1.939   .     S
Zn429  O437    1.933   .     S
Zn429  O435    1.940   .     S
Zn430  O436    1.930   .     S
Zn430  O444    1.937   .     S
Zn430  O439    1.933   .     S
Zn430  O432    1.938   .     S
Zn431  O442    1.934   .     S
Zn431  O438    1.942   .     S
Zn431  O433    1.931   .     S
Zn431  O432    1.931   .     S
O433   C445    1.268   .     A
O434   C446    1.280   .     A
O435   C447    1.276   .     A
O436   C448    1.270   .     A
O437   C449    1.271   .     A
O438   C450    1.281   .     A
O439   C449    1.276   .     A
O440   C450    1.291   .     A
O441   C447    1.277   .     A
O442   C448    1.272   .     A
O443   C445    1.268   .     A
O444   C446    1.284   .     A
C445   C478    1.438   .     S
C446   C476    1.455   .     S
C447   C481    1.436   .     S
C448   C480    1.452   .     S
C449   C452    1.453   .     S
C450   C451    1.483   .     S
C451   C454    1.418   .     A
C451   C455    1.403   .     A
C452   C467    1.396   .     A
C452   C468    1.395   .     A
C453   C457    1.398   .     A
C453   C454    1.396   .     A
C453   H472    1.085   .     S
C454   N485    1.434   .     S
C455   H473    1.076   .     S
C455   C456    1.409   .     A
C456   C458    1.426   .     A
C456   C457    1.415   .     A
C457   C1010   1.392   .     S
C458   C462    1.415   .     A
C458   C1008   1.425   .     S
C459   C465    1.424   .     A
C459   C460    1.416   .     A
C459   C1007   1.425   1_554 S
C460   C461    1.387   .     A
C460   F488    1.357   .     S
C461   H469    1.084   .     S
C461   C1006   1.392   1_554 S
C462   H474    1.077   .     S
C462   C463    1.388   .     A
C463   H471    1.084   .     S
C463   C1013   1.392   .     S
C464   C465    1.419   .     A
C464   C466    1.402   .     A
C464   C1012   1.392   1_554 S
C465   C468    1.414   .     A
C466   H475    1.084   .     S
C466   C467    1.391   .     A
C467   H470    1.083   .     S
C468   F484    1.358   .     S
C476   H538    1.088   .     S
C476   C539    1.335   .     S
H479   C539    1.086   .     S
C480   C115    1.333   1_565 S
C480   F117    1.363   1_565 S
H482   C115    1.086   1_565 S
N485   O486    1.301   .     A
N485   O487    1.301   .     A
Zn489  O502    1.928   .     S
Zn489  O493    1.962   .     S
Zn489  O501    1.926   .     S
Zn489  O495    1.924   .     S
Zn490  O504    1.927   .     S
Zn490  O493    1.939   .     S
Zn490  O498    1.933   .     S
Zn490  O496    1.940   .     S
Zn491  O497    1.930   .     S
Zn491  O505    1.937   .     S
Zn491  O500    1.933   .     S
Zn491  O493    1.938   .     S
Zn492  O503    1.934   .     S
Zn492  O499    1.942   .     S
Zn492  O494    1.931   .     S
Zn492  O493    1.931   .     S
O494   C506    1.268   .     A
O495   C507    1.280   .     A
O496   C508    1.276   .     A
O497   C509    1.270   .     A
O498   C510    1.271   .     A
O499   C511    1.281   .     A
O500   C510    1.276   .     A
O501   C511    1.291   .     A
O502   C508    1.277   .     A
O503   C509    1.272   .     A
O504   C506    1.268   .     A
O505   C507    1.284   .     A
C506   C539    1.438   .     S
C507   C537    1.455   .     S
C508   C542    1.436   .     S
C509   C541    1.452   .     S
C510   C513    1.453   .     S
C511   C512    1.483   .     S
C512   C515    1.418   .     A
C512   C516    1.403   .     A
C513   C528    1.396   .     A
C513   C529    1.395   .     A
C514   C518    1.398   .     A
C514   C515    1.396   .     A
C514   H533    1.085   .     S
C515   N546    1.434   .     S
C516   H534    1.076   .     S
C516   C517    1.409   .     A
C517   C519    1.426   .     A
C517   C518    1.415   .     A
C518   C1071   1.392   .     S
C519   C523    1.415   .     A
C519   C1069   1.425   .     S
C520   C526    1.424   .     A
C520   C521    1.416   .     A
C520   C1068   1.425   1_554 S
C521   C522    1.387   .     A
C521   F549    1.357   .     S
C522   H530    1.084   .     S
C522   C1067   1.392   1_554 S
C523   H535    1.077   .     S
C523   C524    1.388   .     A
C524   H532    1.084   .     S
C524   C1074   1.392   .     S
C525   C526    1.419   .     A
C525   C527    1.402   .     A
C525   C1073   1.392   1_554 S
C526   C529    1.414   .     A
C527   H536    1.084   .     S
C527   C528    1.391   .     A
C528   H531    1.083   .     S
C529   F545    1.358   .     S
C537   H416    1.088   1_655 S
C537   C417    1.335   1_655 S
H540   C417    1.086   1_655 S
C541   C176    1.333   1_565 S
C541   F178    1.363   1_565 S
H543   C176    1.086   1_565 S
N546   O547    1.301   .     A
N546   O548    1.301   .     A
Zn550  O563    1.928   .     S
Zn550  O554    1.962   .     S
Zn550  O562    1.926   .     S
Zn550  O556    1.924   .     S
Zn551  O565    1.927   .     S
Zn551  O554    1.939   .     S
Zn551  O559    1.933   .     S
Zn551  O557    1.940   .     S
Zn552  O558    1.930   .     S
Zn552  O566    1.937   .     S
Zn552  O561    1.933   .     S
Zn552  O554    1.938   .     S
Zn553  O564    1.934   .     S
Zn553  O560    1.942   .     S
Zn553  O555    1.931   .     S
Zn553  O554    1.931   .     S
O555   C567    1.268   .     A
O556   C568    1.280   .     A
O557   C569    1.276   .     A
O558   C570    1.270   .     A
O559   C571    1.271   .     A
O560   C572    1.281   .     A
O561   C571    1.276   .     A
O562   C572    1.291   .     A
O563   C569    1.277   .     A
O564   C570    1.272   .     A
O565   C567    1.268   .     A
O566   C568    1.284   .     A
C567   C600    1.438   .     S
C568   C598    1.455   .     S
C569   C603    1.436   .     S
C570   C602    1.452   .     S
C571   C574    1.453   .     S
C572   C573    1.483   .     S
C573   C576    1.418   .     A
C573   C577    1.403   .     A
C574   C589    1.396   .     A
C574   C590    1.395   .     A
C575   C579    1.398   .     A
C575   C576    1.396   .     A
C575   H594    1.085   .     S
C576   N607    1.434   .     S
C577   H595    1.076   .     S
C577   C578    1.409   .     A
C578   C580    1.426   .     A
C578   C579    1.415   .     A
C579   C34     1.392   1_556 S
C580   C584    1.415   .     A
C580   C32     1.425   1_556 S
C581   C587    1.424   .     A
C581   C582    1.416   .     A
C582   C583    1.387   .     A
C582   F610    1.357   .     S
C583   H591    1.084   .     S
C584   H596    1.077   .     S
C584   C585    1.388   .     A
C585   H593    1.084   .     S
C585   C37     1.392   1_556 S
C586   C587    1.419   .     A
C586   C588    1.402   .     A
C587   C590    1.414   .     A
C588   H597    1.084   .     S
C588   C589    1.391   .     A
C589   H592    1.083   .     S
C590   F606    1.358   .     S
C598   H660    1.088   .     S
C598   C661    1.335   .     S
H599   C720    1.088   1_455 S
C600   C720    1.335   1_455 S
C600   H723    1.086   1_455 S
H601   C661    1.086   .     S
C602   C786    1.333   .     S
C602   F788    1.363   .     S
C603   C968    1.333   1_545 S
C603   H970    1.086   1_545 S
H604   C786    1.086   .     S
F605   C968    1.363   1_545 S
N607   O608    1.301   .     A
N607   O609    1.301   .     A
Zn611  O624    1.928   .     S
Zn611  O615    1.962   .     S
Zn611  O623    1.926   .     S
Zn611  O617    1.924   .     S
Zn612  O626    1.927   .     S
Zn612  O615    1.939   .     S
Zn612  O620    1.933   .     S
Zn612  O618    1.940   .     S
Zn613  O619    1.930   .     S
Zn613  O627    1.937   .     S
Zn613  O622    1.933   .     S
Zn613  O615    1.938   .     S
Zn614  O625    1.934   .     S
Zn614  O621    1.942   .     S
Zn614  O616    1.931   .     S
Zn614  O615    1.931   .     S
O616   C628    1.268   .     A
O617   C629    1.280   .     A
O618   C630    1.276   .     A
O619   C631    1.270   .     A
O620   C632    1.271   .     A
O621   C633    1.281   .     A
O622   C632    1.276   .     A
O623   C633    1.291   .     A
O624   C630    1.277   .     A
O625   C631    1.272   .     A
O626   C628    1.268   .     A
O627   C629    1.284   .     A
C628   C661    1.438   .     S
C629   C659    1.455   .     S
C630   C664    1.436   .     S
C631   C663    1.452   .     S
C632   C635    1.453   .     S
C633   C634    1.483   .     S
C634   C637    1.418   .     A
C634   C638    1.403   .     A
C635   C650    1.396   .     A
C635   C651    1.395   .     A
C636   C640    1.398   .     A
C636   C637    1.396   .     A
C636   H655    1.085   .     S
C637   N668    1.434   .     S
C638   H656    1.076   .     S
C638   C639    1.409   .     A
C639   C641    1.426   .     A
C639   C640    1.415   .     A
C640   C95     1.392   1_556 S
C641   C645    1.415   .     A
C641   C93     1.425   1_556 S
C642   C648    1.424   .     A
C642   C643    1.416   .     A
C643   C644    1.387   .     A
C643   F671    1.357   .     S
C644   H652    1.084   .     S
C645   H657    1.077   .     S
C645   C646    1.388   .     A
C646   H654    1.084   .     S
C646   C98     1.392   1_556 S
C647   C648    1.419   .     A
C647   C649    1.402   .     A
C648   C651    1.414   .     A
C649   H658    1.084   .     S
C649   C650    1.391   .     A
C650   H653    1.083   .     S
C651   F667    1.358   .     S
C659   H721    1.088   .     S
C659   C722    1.335   .     S
H662   C722    1.086   .     S
C663   C847    1.333   .     S
C663   F849    1.363   .     S
C664   C1029   1.333   1_545 S
C664   H1031   1.086   1_545 S
H665   C847    1.086   .     S
F666   C1029   1.363   1_545 S
N668   O669    1.301   .     A
N668   O670    1.301   .     A
Zn672  O685    1.928   .     S
Zn672  O676    1.962   .     S
Zn672  O684    1.926   .     S
Zn672  O678    1.924   .     S
Zn673  O687    1.927   .     S
Zn673  O676    1.939   .     S
Zn673  O681    1.933   .     S
Zn673  O679    1.940   .     S
Zn674  O680    1.930   .     S
Zn674  O688    1.937   .     S
Zn674  O683    1.933   .     S
Zn674  O676    1.938   .     S
Zn675  O686    1.934   .     S
Zn675  O682    1.942   .     S
Zn675  O677    1.931   .     S
Zn675  O676    1.931   .     S
O677   C689    1.268   .     A
O678   C690    1.280   .     A
O679   C691    1.276   .     A
O680   C692    1.270   .     A
O681   C693    1.271   .     A
O682   C694    1.281   .     A
O683   C693    1.276   .     A
O684   C694    1.291   .     A
O685   C691    1.277   .     A
O686   C692    1.272   .     A
O687   C689    1.268   .     A
O688   C690    1.284   .     A
C689   C722    1.438   .     S
C690   C720    1.455   .     S
C691   C725    1.436   .     S
C692   C724    1.452   .     S
C693   C696    1.453   .     S
C694   C695    1.483   .     S
C695   C698    1.418   .     A
C695   C699    1.403   .     A
C696   C711    1.396   .     A
C696   C712    1.395   .     A
C697   C701    1.398   .     A
C697   C698    1.396   .     A
C697   H716    1.085   .     S
C698   N729    1.434   .     S
C699   H717    1.076   .     S
C699   C700    1.409   .     A
C700   C702    1.426   .     A
C700   C701    1.415   .     A
C701   C156    1.392   1_556 S
C702   C706    1.415   .     A
C702   C154    1.425   1_556 S
C703   C709    1.424   .     A
C703   C704    1.416   .     A
C704   C705    1.387   .     A
C704   F732    1.357   .     S
C705   H713    1.084   .     S
C706   H718    1.077   .     S
C706   C707    1.388   .     A
C707   H715    1.084   .     S
C707   C159    1.392   1_556 S
C708   C709    1.419   .     A
C708   C710    1.402   .     A
C709   C712    1.414   .     A
C710   H719    1.084   .     S
C710   C711    1.391   .     A
C711   H714    1.083   .     S
C712   F728    1.358   .     S
C720   H599    1.088   1_655 S
C720   C600    1.335   1_655 S
H723   C600    1.086   1_655 S
C724   C908    1.333   .     S
C724   F910    1.363   .     S
C725   C1090   1.333   1_545 S
C725   H1092   1.086   1_545 S
H726   C908    1.086   .     S
F727   C1090   1.363   1_545 S
N729   O730    1.301   .     A
N729   O731    1.301   .     A
Zn733  O746    1.928   .     S
Zn733  O737    1.962   .     S
Zn733  O745    1.926   .     S
Zn733  O739    1.924   .     S
Zn734  O748    1.927   .     S
Zn734  O737    1.939   .     S
Zn734  O742    1.933   .     S
Zn734  O740    1.940   .     S
Zn735  O741    1.930   .     S
Zn735  O749    1.937   .     S
Zn735  O744    1.933   .     S
Zn735  O737    1.938   .     S
Zn736  O747    1.934   .     S
Zn736  O743    1.942   .     S
Zn736  O738    1.931   .     S
Zn736  O737    1.931   .     S
O738   C750    1.268   .     A
O739   C751    1.280   .     A
O740   C752    1.276   .     A
O741   C753    1.270   .     A
O742   C754    1.271   .     A
O743   C755    1.281   .     A
O744   C754    1.276   .     A
O745   C755    1.291   .     A
O746   C752    1.277   .     A
O747   C753    1.272   .     A
O748   C750    1.268   .     A
O749   C751    1.284   .     A
C750   C783    1.438   .     S
C751   C781    1.455   .     S
C752   C786    1.436   .     S
C753   C785    1.452   .     S
C754   C757    1.453   .     S
C755   C756    1.483   .     S
C756   C759    1.418   .     A
C756   C760    1.403   .     A
C757   C772    1.396   .     A
C757   C773    1.395   .     A
C758   C762    1.398   .     A
C758   C759    1.396   .     A
C758   H777    1.085   .     S
C759   N790    1.434   .     S
C760   H778    1.076   .     S
C760   C761    1.409   .     A
C761   C763    1.426   .     A
C761   C762    1.415   .     A
C762   C217    1.392   1_556 S
C763   C767    1.415   .     A
C763   C215    1.425   1_556 S
C764   C770    1.424   .     A
C764   C765    1.416   .     A
C765   C766    1.387   .     A
C765   F793    1.357   .     S
C766   H774    1.084   .     S
C767   H779    1.077   .     S
C767   C768    1.388   .     A
C768   H776    1.084   .     S
C768   C220    1.392   1_556 S
C769   C770    1.419   .     A
C769   C771    1.402   .     A
C770   C773    1.414   .     A
C771   H780    1.084   .     S
C771   C772    1.391   .     A
C772   H775    1.083   .     S
C773   F789    1.358   .     S
C781   H843    1.088   .     S
C781   C844    1.335   .     S
H782   C903    1.088   1_455 S
C783   C903    1.335   1_455 S
C783   H906    1.086   1_455 S
H784   C844    1.086   .     S
C785   C969    1.333   .     S
C785   F971    1.363   .     S
H787   C969    1.086   .     S
N790   O791    1.301   .     A
N790   O792    1.301   .     A
Zn794  O807    1.928   .     S
Zn794  O798    1.962   .     S
Zn794  O806    1.926   .     S
Zn794  O800    1.924   .     S
Zn795  O809    1.927   .     S
Zn795  O798    1.939   .     S
Zn795  O803    1.933   .     S
Zn795  O801    1.940   .     S
Zn796  O802    1.930   .     S
Zn796  O810    1.937   .     S
Zn796  O805    1.933   .     S
Zn796  O798    1.938   .     S
Zn797  O808    1.934   .     S
Zn797  O804    1.942   .     S
Zn797  O799    1.931   .     S
Zn797  O798    1.931   .     S
O799   C811    1.268   .     A
O800   C812    1.280   .     A
O801   C813    1.276   .     A
O802   C814    1.270   .     A
O803   C815    1.271   .     A
O804   C816    1.281   .     A
O805   C815    1.276   .     A
O806   C816    1.291   .     A
O807   C813    1.277   .     A
O808   C814    1.272   .     A
O809   C811    1.268   .     A
O810   C812    1.284   .     A
C811   C844    1.438   .     S
C812   C842    1.455   .     S
C813   C847    1.436   .     S
C814   C846    1.452   .     S
C815   C818    1.453   .     S
C816   C817    1.483   .     S
C817   C820    1.418   .     A
C817   C821    1.403   .     A
C818   C833    1.396   .     A
C818   C834    1.395   .     A
C819   C823    1.398   .     A
C819   C820    1.396   .     A
C819   H838    1.085   .     S
C820   N851    1.434   .     S
C821   H839    1.076   .     S
C821   C822    1.409   .     A
C822   C824    1.426   .     A
C822   C823    1.415   .     A
C823   C278    1.392   1_556 S
C824   C828    1.415   .     A
C824   C276    1.425   1_556 S
C825   C831    1.424   .     A
C825   C826    1.416   .     A
C826   C827    1.387   .     A
C826   F854    1.357   .     S
C827   H835    1.084   .     S
C828   H840    1.077   .     S
C828   C829    1.388   .     A
C829   H837    1.084   .     S
C829   C281    1.392   1_556 S
C830   C831    1.419   .     A
C830   C832    1.402   .     A
C831   C834    1.414   .     A
C832   H841    1.084   .     S
C832   C833    1.391   .     A
C833   H836    1.083   .     S
C834   F850    1.358   .     S
C842   H904    1.088   .     S
C842   C905    1.335   .     S
H845   C905    1.086   .     S
C846   C1030   1.333   .     S
C846   F1032   1.363   .     S
H848   C1030   1.086   .     S
N851   O852    1.301   .     A
N851   O853    1.301   .     A
Zn855  O868    1.928   .     S
Zn855  O859    1.962   .     S
Zn855  O867    1.926   .     S
Zn855  O861    1.924   .     S
Zn856  O870    1.927   .     S
Zn856  O859    1.939   .     S
Zn856  O864    1.933   .     S
Zn856  O862    1.940   .     S
Zn857  O863    1.930   .     S
Zn857  O871    1.937   .     S
Zn857  O866    1.933   .     S
Zn857  O859    1.938   .     S
Zn858  O869    1.934   .     S
Zn858  O865    1.942   .     S
Zn858  O860    1.931   .     S
Zn858  O859    1.931   .     S
O860   C872    1.268   .     A
O861   C873    1.280   .     A
O862   C874    1.276   .     A
O863   C875    1.270   .     A
O864   C876    1.271   .     A
O865   C877    1.281   .     A
O866   C876    1.276   .     A
O867   C877    1.291   .     A
O868   C874    1.277   .     A
O869   C875    1.272   .     A
O870   C872    1.268   .     A
O871   C873    1.284   .     A
C872   C905    1.438   .     S
C873   C903    1.455   .     S
C874   C908    1.436   .     S
C875   C907    1.452   .     S
C876   C879    1.453   .     S
C877   C878    1.483   .     S
C878   C881    1.418   .     A
C878   C882    1.403   .     A
C879   C894    1.396   .     A
C879   C895    1.395   .     A
C880   C884    1.398   .     A
C880   C881    1.396   .     A
C880   H899    1.085   .     S
C881   N912    1.434   .     S
C882   H900    1.076   .     S
C882   C883    1.409   .     A
C883   C885    1.426   .     A
C883   C884    1.415   .     A
C884   C339    1.392   1_556 S
C885   C889    1.415   .     A
C885   C337    1.425   1_556 S
C886   C892    1.424   .     A
C886   C887    1.416   .     A
C887   C888    1.387   .     A
C887   F915    1.357   .     S
C888   H896    1.084   .     S
C889   H901    1.077   .     S
C889   C890    1.388   .     A
C890   H898    1.084   .     S
C890   C342    1.392   1_556 S
C891   C892    1.419   .     A
C891   C893    1.402   .     A
C892   C895    1.414   .     A
C893   H902    1.084   .     S
C893   C894    1.391   .     A
C894   H897    1.083   .     S
C895   F911    1.358   .     S
C903   H782    1.088   1_655 S
C903   C783    1.335   1_655 S
H906   C783    1.086   1_655 S
C907   C1091   1.333   .     S
C907   F1093   1.363   .     S
H909   C1091   1.086   .     S
N912   O913    1.301   .     A
N912   O914    1.301   .     A
Zn916  O929    1.928   .     S
Zn916  O920    1.962   .     S
Zn916  O928    1.926   .     S
Zn916  O922    1.924   .     S
Zn917  O931    1.927   .     S
Zn917  O920    1.939   .     S
Zn917  O925    1.933   .     S
Zn917  O923    1.940   .     S
Zn918  O924    1.930   .     S
Zn918  O932    1.937   .     S
Zn918  O927    1.933   .     S
Zn918  O920    1.938   .     S
Zn919  O930    1.934   .     S
Zn919  O926    1.942   .     S
Zn919  O921    1.931   .     S
Zn919  O920    1.931   .     S
O921   C933    1.268   .     A
O922   C934    1.280   .     A
O923   C935    1.276   .     A
O924   C936    1.270   .     A
O925   C937    1.271   .     A
O926   C938    1.281   .     A
O927   C937    1.276   .     A
O928   C938    1.291   .     A
O929   C935    1.277   .     A
O930   C936    1.272   .     A
O931   C933    1.268   .     A
O932   C934    1.284   .     A
C933   C966    1.438   .     S
C934   C964    1.455   .     S
C935   C969    1.436   .     S
C936   C968    1.452   .     S
C937   C940    1.453   .     S
C938   C939    1.483   .     S
C939   C942    1.418   .     A
C939   C943    1.403   .     A
C940   C955    1.396   .     A
C940   C956    1.395   .     A
C941   C945    1.398   .     A
C941   C942    1.396   .     A
C941   H960    1.085   .     S
C942   N973    1.434   .     S
C943   H961    1.076   .     S
C943   C944    1.409   .     A
C944   C946    1.426   .     A
C944   C945    1.415   .     A
C945   C400    1.392   1_556 S
C946   C950    1.415   .     A
C946   C398    1.425   1_556 S
C947   C953    1.424   .     A
C947   C948    1.416   .     A
C948   C949    1.387   .     A
C948   F976    1.357   .     S
C949   H957    1.084   .     S
C950   H962    1.077   .     S
C950   C951    1.388   .     A
C951   H959    1.084   .     S
C951   C403    1.392   1_556 S
C952   C953    1.419   .     A
C952   C954    1.402   .     A
C953   C956    1.414   .     A
C954   H963    1.084   .     S
C954   C955    1.391   .     A
C955   H958    1.083   .     S
C956   F972    1.358   .     S
C964   H1026   1.088   .     S
C964   C1027   1.335   .     S
H965   C1086   1.088   1_455 S
C966   C1086   1.335   1_455 S
C966   H1089   1.086   1_455 S
H967   C1027   1.086   .     S
C968   C603    1.333   1_565 S
C968   F605    1.363   1_565 S
H970   C603    1.086   1_565 S
N973   O974    1.301   .     A
N973   O975    1.301   .     A
Zn977  O990    1.928   .     S
Zn977  O981    1.962   .     S
Zn977  O989    1.926   .     S
Zn977  O983    1.924   .     S
Zn978  O992    1.927   .     S
Zn978  O981    1.939   .     S
Zn978  O986    1.933   .     S
Zn978  O984    1.940   .     S
Zn979  O985    1.930   .     S
Zn979  O993    1.937   .     S
Zn979  O988    1.933   .     S
Zn979  O981    1.938   .     S
Zn980  O991    1.934   .     S
Zn980  O987    1.942   .     S
Zn980  O982    1.931   .     S
Zn980  O981    1.931   .     S
O982   C994    1.268   .     A
O983   C995    1.280   .     A
O984   C996    1.276   .     A
O985   C997    1.270   .     A
O986   C998    1.271   .     A
O987   C999    1.281   .     A
O988   C998    1.276   .     A
O989   C999    1.291   .     A
O990   C996    1.277   .     A
O991   C997    1.272   .     A
O992   C994    1.268   .     A
O993   C995    1.284   .     A
C994   C1027   1.438   .     S
C995   C1025   1.455   .     S
C996   C1030   1.436   .     S
C997   C1029   1.452   .     S
C998   C1001   1.453   .     S
C999   C1000   1.483   .     S
C1000  C1003   1.418   .     A
C1000  C1004   1.403   .     A
C1001  C1016   1.396   .     A
C1001  C1017   1.395   .     A
C1002  C1006   1.398   .     A
C1002  C1003   1.396   .     A
C1002  H1021   1.085   .     S
C1003  N1034   1.434   .     S
C1004  H1022   1.076   .     S
C1004  C1005   1.409   .     A
C1005  C1007   1.426   .     A
C1005  C1006   1.415   .     A
C1006  C461    1.392   1_556 S
C1007  C1011   1.415   .     A
C1007  C459    1.425   1_556 S
C1008  C1014   1.424   .     A
C1008  C1009   1.416   .     A
C1009  C1010   1.387   .     A
C1009  F1037   1.357   .     S
C1010  H1018   1.084   .     S
C1011  H1023   1.077   .     S
C1011  C1012   1.388   .     A
C1012  H1020   1.084   .     S
C1012  C464    1.392   1_556 S
C1013  C1014   1.419   .     A
C1013  C1015   1.402   .     A
C1014  C1017   1.414   .     A
C1015  H1024   1.084   .     S
C1015  C1016   1.391   .     A
C1016  H1019   1.083   .     S
C1017  F1033   1.358   .     S
C1025  H1087   1.088   .     S
C1025  C1088   1.335   .     S
H1028  C1088   1.086   .     S
C1029  C664    1.333   1_565 S
C1029  F666    1.363   1_565 S
H1031  C664    1.086   1_565 S
N1034  O1035   1.301   .     A
N1034  O1036   1.301   .     A
Zn1038 O1051   1.928   .     S
Zn1038 O1042   1.962   .     S
Zn1038 O1050   1.926   .     S
Zn1038 O1044   1.924   .     S
Zn1039 O1053   1.927   .     S
Zn1039 O1042   1.939   .     S
Zn1039 O1047   1.933   .     S
Zn1039 O1045   1.940   .     S
Zn1040 O1046   1.930   .     S
Zn1040 O1054   1.937   .     S
Zn1040 O1049   1.933   .     S
Zn1040 O1042   1.938   .     S
Zn1041 O1052   1.934   .     S
Zn1041 O1048   1.942   .     S
Zn1041 O1043   1.931   .     S
Zn1041 O1042   1.931   .     S
O1043  C1055   1.268   .     A
O1044  C1056   1.280   .     A
O1045  C1057   1.276   .     A
O1046  C1058   1.270   .     A
O1047  C1059   1.271   .     A
O1048  C1060   1.281   .     A
O1049  C1059   1.276   .     A
O1050  C1060   1.291   .     A
O1051  C1057   1.277   .     A
O1052  C1058   1.272   .     A
O1053  C1055   1.268   .     A
O1054  C1056   1.284   .     A
C1055  C1088   1.438   .     S
C1056  C1086   1.455   .     S
C1057  C1091   1.436   .     S
C1058  C1090   1.452   .     S
C1059  C1062   1.453   .     S
C1060  C1061   1.483   .     S
C1061  C1064   1.418   .     A
C1061  C1065   1.403   .     A
C1062  C1077   1.396   .     A
C1062  C1078   1.395   .     A
C1063  C1067   1.398   .     A
C1063  C1064   1.396   .     A
C1063  H1082   1.085   .     S
C1064  N1095   1.434   .     S
C1065  H1083   1.076   .     S
C1065  C1066   1.409   .     A
C1066  C1068   1.426   .     A
C1066  C1067   1.415   .     A
C1067  C522    1.392   1_556 S
C1068  C1072   1.415   .     A
C1068  C520    1.425   1_556 S
C1069  C1075   1.424   .     A
C1069  C1070   1.416   .     A
C1070  C1071   1.387   .     A
C1070  F1098   1.357   .     S
C1071  H1079   1.084   .     S
C1072  H1084   1.077   .     S
C1072  C1073   1.388   .     A
C1073  H1081   1.084   .     S
C1073  C525    1.392   1_556 S
C1074  C1075   1.419   .     A
C1074  C1076   1.402   .     A
C1075  C1078   1.414   .     A
C1076  H1085   1.084   .     S
C1076  C1077   1.391   .     A
C1077  H1080   1.083   .     S
C1078  F1094   1.358   .     S
C1086  H965    1.088   1_655 S
C1086  C966    1.335   1_655 S
H1089  C966    1.086   1_655 S
C1090  C725    1.333   1_565 S
C1090  F727    1.363   1_565 S
H1092  C725    1.086   1_565 S
N1095  O1096   1.301   .     A
N1095  O1097   1.301   .     A
