data_str_m1_o10_o18_pcu_sym.13
_audit_creation_date              2020-01-03
_audit_creation_method            'Materials Studio'
_symmetry_space_group_name_H-M    'P1'
_symmetry_Int_Tables_number       1
_symmetry_cell_setting            triclinic
loop_
_symmetry_equiv_pos_as_xyz
  x,y,z
_cell_length_a                    32.7405
_cell_length_b                    32.4917
_cell_length_c                    35.7429
_cell_angle_alpha                 98.0228
_cell_angle_beta                  72.9601
_cell_angle_gamma                 98.7443
loop_
_atom_site_label
_atom_site_type_symbol
_atom_site_fract_x
_atom_site_fract_y
_atom_site_fract_z
_atom_site_U_iso_or_equiv
_atom_site_adp_type
_atom_site_occupancy
Zn1    Zn    0.19244   0.14090   0.28278   0.00000  Uiso   1.00
Zn2    Zn    0.13459   0.12378   0.22258   0.00000  Uiso   1.00
Zn3    Zn    0.21166   0.19664   0.21188   0.00000  Uiso   1.00
Zn4    Zn    0.12798   0.20535   0.28277   0.00000  Uiso   1.00
O5     O     0.16667   0.16667   0.25000   0.00000  Uiso   1.00
O6     O     0.06990   0.18960   0.27820   0.00000  Uiso   1.00
O7     O     0.25440   0.15277   0.26768   0.00000  Uiso   1.00
O8     O     0.13800   0.06903   0.23607   0.00000  Uiso   1.00
O9     O     0.20437   0.25527   0.21806   0.00000  Uiso   1.00
O10    O     0.15693   0.12393   0.16625   0.00000  Uiso   1.00
O11    O     0.12687   0.20646   0.33749   0.00000  Uiso   1.00
O12    O     0.21088   0.17493   0.15877   0.00000  Uiso   1.00
O13    O     0.17198   0.16135   0.33749   0.00000  Uiso   1.00
O14    O     0.17849   0.08101   0.27821   0.00000  Uiso   1.00
O15    O     0.14581   0.26136   0.26767   0.00000  Uiso   1.00
O16    O     0.07452   0.13251   0.23607   0.00000  Uiso   1.00
O17    O     0.26785   0.19179   0.21806   0.00000  Uiso   1.00
C18    C     0.05283   0.16001   0.25872   0.00000  Uiso   1.00
C19    C     0.28106   0.17322   0.24106   0.00000  Uiso   1.00
C20    C     0.15529   0.05629   0.25949   0.00000  Uiso   1.00
C21    C     0.17694   0.27768   0.24107   0.00000  Uiso   1.00
C22    C     0.18836   0.14500   0.14412   0.00000  Uiso   1.00
C23    C     0.14671   0.18892   0.35587   0.00000  Uiso   1.00
C24    C     0.14394   0.20295   0.39753   0.00000  Uiso   1.00
C25    C     0.19713   0.13514   0.10185   0.00000  Uiso   1.00
C26    C     0.13497   0.25543   0.45375   0.00000  Uiso   1.00
C27    C     0.13373   0.24328   0.41501   0.00000  Uiso   1.00
C28    C     0.15510   0.17601   0.41928   0.00000  Uiso   1.00
C29    C     0.15827   0.18850   0.45780   0.00000  Uiso   1.00
C30    C     0.14812   0.22906   0.47469   0.00000  Uiso   1.00
C31    C     0.17216   0.16241   0.47960   0.00000  Uiso   1.00
C32    C     0.17610   0.17775   0.01792   0.00000  Uiso   1.00
C33    C     0.16696   0.21904   0.03286   0.00000  Uiso   1.00
C34    C     0.15263   0.24378   0.01188   0.00000  Uiso   1.00
C35    C     0.18221   0.12154   0.46438   0.00000  Uiso   1.00
C36    C     0.19650   0.09675   0.48528   0.00000  Uiso   1.00
C37    C     0.20024   0.11079   0.02300   0.00000  Uiso   1.00
C38    C     0.18878   0.15123   0.04017   0.00000  Uiso   1.00
C39    C     0.21243   0.08403   0.04498   0.00000  Uiso   1.00
C40    C     0.20949   0.09618   0.08461   0.00000  Uiso   1.00
C41    C     0.18801   0.16276   0.07987   0.00000  Uiso   1.00
H42    H     0.14584   0.27516   0.02463   0.00000  Uiso   1.00
H43    H     0.17725   0.19163   0.09570   0.00000  Uiso   1.00
H44    H     0.21676   0.07515   0.10218   0.00000  Uiso   1.00
H45    H     0.20271   0.06549   0.47200   0.00000  Uiso   1.00
H46    H     0.12783   0.28663   0.46683   0.00000  Uiso   1.00
H47    H     0.16229   0.14568   0.40466   0.00000  Uiso   1.00
H48    H     0.17120   0.23380   0.06057   0.00000  Uiso   1.00
H49    H     0.17897   0.10702   0.43634   0.00000  Uiso   1.00
C50    C     0.32711   0.17553   0.23740   0.00000  Uiso   1.00
C51    C     0.00773   0.15784   0.26307   0.00000  Uiso   1.00
C52    C     0.18175   0.32240   0.23737   0.00000  Uiso   1.00
C53    C     0.15238   0.01213   0.26186   0.00000  Uiso   1.00
H54    H     0.12544   0.33180   0.28422   0.00000  Uiso   1.00
N55    N     0.22685   0.04420   0.02792   0.00000  Uiso   1.00
O56    O     0.21452   0.01193   0.04807   0.00000  Uiso   1.00
O57    O     0.25770   0.04177   0.49531   0.00000  Uiso   1.00
N58    N     0.02390   0.19619   0.20534   0.00000  Uiso   1.00
O59    O     0.01740   0.19082   0.17068   0.00000  Uiso   1.00
O60    O     0.05548   0.22330   0.21144   0.00000  Uiso   1.00
C61    C     0.31324   0.13659   0.29735   0.00000  Uiso   1.00
C62    C     0.30663   0.09272   0.29496   0.00000  Uiso   1.00
C63    C     0.28045   0.07253   0.32720   0.00000  Uiso   1.00
C64    C     0.26112   0.09599   0.36206   0.00000  Uiso   1.00
C65    C     0.26792   0.13972   0.36476   0.00000  Uiso   1.00
C66    C     0.29405   0.16005   0.33256   0.00000  Uiso   1.00
H67    H     0.32155   0.07426   0.26811   0.00000  Uiso   1.00
H68    H     0.27521   0.03868   0.32517   0.00000  Uiso   1.00
H69    H     0.24107   0.08022   0.38698   0.00000  Uiso   1.00
H70    H     0.25300   0.15784   0.39181   0.00000  Uiso   1.00
H71    H     0.29915   0.19393   0.33488   0.00000  Uiso   1.00
C72    C     0.21852   0.00764   0.20649   0.00000  Uiso   1.00
C73    C     0.22081   0.33009   0.16657   0.00000  Uiso   1.00
C74    C     0.25480   0.01487   0.13753   0.00000  Uiso   1.00
C75    C     0.28665   0.04393   0.14814   0.00000  Uiso   1.00
C76    C     0.28482   0.05459   0.18781   0.00000  Uiso   1.00
C77    C     0.25106   0.03633   0.21691   0.00000  Uiso   1.00
H78    H     0.19610   0.30790   0.15799   0.00000  Uiso   1.00
H79    H     0.25636   0.00651   0.10680   0.00000  Uiso   1.00
H80    H     0.31280   0.05807   0.12563   0.00000  Uiso   1.00
H81    H     0.30959   0.07698   0.19602   0.00000  Uiso   1.00
H82    H     0.25018   0.04456   0.24752   0.00000  Uiso   1.00
N83    N     0.12527   0.27343   0.39332   0.00000  Uiso   1.00
O84    O     0.15433   0.28519   0.36192   0.00000  Uiso   1.00
O85    O     0.09340   0.29549   0.40931   0.00000  Uiso   1.00
Zn86   Zn    0.52577   0.14090   0.28278   0.00000  Uiso   1.00
Zn87   Zn    0.46792   0.12378   0.22258   0.00000  Uiso   1.00
Zn88   Zn    0.54500   0.19664   0.21188   0.00000  Uiso   1.00
Zn89   Zn    0.46131   0.20535   0.28277   0.00000  Uiso   1.00
O90    O     0.50000   0.16667   0.25000   0.00000  Uiso   1.00
O91    O     0.40323   0.18960   0.27820   0.00000  Uiso   1.00
O92    O     0.58773   0.15277   0.26768   0.00000  Uiso   1.00
O93    O     0.47133   0.06903   0.23607   0.00000  Uiso   1.00
O94    O     0.53771   0.25527   0.21806   0.00000  Uiso   1.00
O95    O     0.49027   0.12393   0.16625   0.00000  Uiso   1.00
O96    O     0.46020   0.20646   0.33749   0.00000  Uiso   1.00
O97    O     0.54421   0.17493   0.15877   0.00000  Uiso   1.00
O98    O     0.50532   0.16135   0.33749   0.00000  Uiso   1.00
O99    O     0.51182   0.08101   0.27821   0.00000  Uiso   1.00
O100   O     0.47914   0.26136   0.26767   0.00000  Uiso   1.00
O101   O     0.40785   0.13251   0.23607   0.00000  Uiso   1.00
O102   O     0.60119   0.19179   0.21806   0.00000  Uiso   1.00
C103   C     0.38617   0.16001   0.25872   0.00000  Uiso   1.00
C104   C     0.61439   0.17322   0.24106   0.00000  Uiso   1.00
C105   C     0.48863   0.05629   0.25949   0.00000  Uiso   1.00
C106   C     0.51027   0.27768   0.24107   0.00000  Uiso   1.00
C107   C     0.52170   0.14500   0.14412   0.00000  Uiso   1.00
C108   C     0.48005   0.18892   0.35587   0.00000  Uiso   1.00
C109   C     0.47727   0.20295   0.39753   0.00000  Uiso   1.00
C110   C     0.53046   0.13514   0.10185   0.00000  Uiso   1.00
C111   C     0.46830   0.25543   0.45375   0.00000  Uiso   1.00
C112   C     0.46707   0.24328   0.41501   0.00000  Uiso   1.00
C113   C     0.48844   0.17601   0.41928   0.00000  Uiso   1.00
C114   C     0.49160   0.18850   0.45780   0.00000  Uiso   1.00
C115   C     0.48145   0.22906   0.47469   0.00000  Uiso   1.00
C116   C     0.50550   0.16241   0.47960   0.00000  Uiso   1.00
C117   C     0.50943   0.17775   0.01792   0.00000  Uiso   1.00
C118   C     0.50029   0.21904   0.03286   0.00000  Uiso   1.00
C119   C     0.48597   0.24378   0.01188   0.00000  Uiso   1.00
C120   C     0.51555   0.12154   0.46438   0.00000  Uiso   1.00
C121   C     0.52984   0.09675   0.48528   0.00000  Uiso   1.00
C122   C     0.53357   0.11079   0.02300   0.00000  Uiso   1.00
C123   C     0.52212   0.15123   0.04017   0.00000  Uiso   1.00
C124   C     0.54576   0.08403   0.04498   0.00000  Uiso   1.00
C125   C     0.54282   0.09618   0.08461   0.00000  Uiso   1.00
C126   C     0.52135   0.16276   0.07987   0.00000  Uiso   1.00
H127   H     0.47917   0.27516   0.02463   0.00000  Uiso   1.00
H128   H     0.51059   0.19163   0.09570   0.00000  Uiso   1.00
H129   H     0.55009   0.07515   0.10218   0.00000  Uiso   1.00
H130   H     0.53605   0.06549   0.47200   0.00000  Uiso   1.00
H131   H     0.46116   0.28663   0.46683   0.00000  Uiso   1.00
H132   H     0.49562   0.14568   0.40466   0.00000  Uiso   1.00
H133   H     0.50453   0.23380   0.06057   0.00000  Uiso   1.00
H134   H     0.51231   0.10702   0.43634   0.00000  Uiso   1.00
C135   C     0.66045   0.17553   0.23740   0.00000  Uiso   1.00
C136   C     0.34106   0.15784   0.26307   0.00000  Uiso   1.00
C137   C     0.51509   0.32240   0.23737   0.00000  Uiso   1.00
C138   C     0.48571   0.01213   0.26186   0.00000  Uiso   1.00
H139   H     0.45877   0.33180   0.28422   0.00000  Uiso   1.00
N140   N     0.56018   0.04420   0.02792   0.00000  Uiso   1.00
O141   O     0.54785   0.01193   0.04807   0.00000  Uiso   1.00
O142   O     0.59104   0.04177   0.49531   0.00000  Uiso   1.00
N143   N     0.35723   0.19619   0.20534   0.00000  Uiso   1.00
O144   O     0.35073   0.19082   0.17068   0.00000  Uiso   1.00
O145   O     0.38881   0.22330   0.21144   0.00000  Uiso   1.00
C146   C     0.64657   0.13659   0.29735   0.00000  Uiso   1.00
C147   C     0.63997   0.09272   0.29496   0.00000  Uiso   1.00
C148   C     0.61379   0.07253   0.32720   0.00000  Uiso   1.00
C149   C     0.59446   0.09599   0.36206   0.00000  Uiso   1.00
C150   C     0.60125   0.13972   0.36476   0.00000  Uiso   1.00
C151   C     0.62738   0.16005   0.33256   0.00000  Uiso   1.00
H152   H     0.65489   0.07426   0.26811   0.00000  Uiso   1.00
H153   H     0.60854   0.03868   0.32517   0.00000  Uiso   1.00
H154   H     0.57440   0.08022   0.38698   0.00000  Uiso   1.00
H155   H     0.58634   0.15784   0.39181   0.00000  Uiso   1.00
H156   H     0.63248   0.19393   0.33488   0.00000  Uiso   1.00
C157   C     0.55186   0.00764   0.20649   0.00000  Uiso   1.00
C158   C     0.55415   0.33009   0.16657   0.00000  Uiso   1.00
C159   C     0.58813   0.01487   0.13753   0.00000  Uiso   1.00
C160   C     0.61998   0.04393   0.14814   0.00000  Uiso   1.00
C161   C     0.61816   0.05459   0.18781   0.00000  Uiso   1.00
C162   C     0.58439   0.03633   0.21691   0.00000  Uiso   1.00
H163   H     0.52944   0.30790   0.15799   0.00000  Uiso   1.00
H164   H     0.58970   0.00651   0.10680   0.00000  Uiso   1.00
H165   H     0.64613   0.05807   0.12563   0.00000  Uiso   1.00
H166   H     0.64292   0.07698   0.19602   0.00000  Uiso   1.00
H167   H     0.58351   0.04456   0.24752   0.00000  Uiso   1.00
N168   N     0.45861   0.27343   0.39332   0.00000  Uiso   1.00
O169   O     0.48766   0.28519   0.36192   0.00000  Uiso   1.00
O170   O     0.42673   0.29549   0.40931   0.00000  Uiso   1.00
Zn171  Zn    0.85910   0.14090   0.28278   0.00000  Uiso   1.00
Zn172  Zn    0.80125   0.12378   0.22258   0.00000  Uiso   1.00
Zn173  Zn    0.87833   0.19664   0.21188   0.00000  Uiso   1.00
Zn174  Zn    0.79465   0.20535   0.28277   0.00000  Uiso   1.00
O175   O     0.83333   0.16667   0.25000   0.00000  Uiso   1.00
O176   O     0.73656   0.18960   0.27820   0.00000  Uiso   1.00
O177   O     0.92106   0.15277   0.26768   0.00000  Uiso   1.00
O178   O     0.80467   0.06903   0.23607   0.00000  Uiso   1.00
O179   O     0.87104   0.25527   0.21806   0.00000  Uiso   1.00
O180   O     0.82360   0.12393   0.16625   0.00000  Uiso   1.00
O181   O     0.79354   0.20646   0.33749   0.00000  Uiso   1.00
O182   O     0.87755   0.17493   0.15877   0.00000  Uiso   1.00
O183   O     0.83865   0.16135   0.33749   0.00000  Uiso   1.00
O184   O     0.84515   0.08101   0.27821   0.00000  Uiso   1.00
O185   O     0.81247   0.26136   0.26767   0.00000  Uiso   1.00
O186   O     0.74119   0.13251   0.23607   0.00000  Uiso   1.00
O187   O     0.93452   0.19179   0.21806   0.00000  Uiso   1.00
C188   C     0.71950   0.16001   0.25872   0.00000  Uiso   1.00
C189   C     0.94773   0.17322   0.24106   0.00000  Uiso   1.00
C190   C     0.82196   0.05629   0.25949   0.00000  Uiso   1.00
C191   C     0.84360   0.27768   0.24107   0.00000  Uiso   1.00
C192   C     0.85503   0.14500   0.14412   0.00000  Uiso   1.00
C193   C     0.81338   0.18892   0.35587   0.00000  Uiso   1.00
C194   C     0.81060   0.20295   0.39753   0.00000  Uiso   1.00
C195   C     0.86379   0.13514   0.10185   0.00000  Uiso   1.00
C196   C     0.80163   0.25543   0.45375   0.00000  Uiso   1.00
C197   C     0.80040   0.24328   0.41501   0.00000  Uiso   1.00
C198   C     0.82177   0.17601   0.41928   0.00000  Uiso   1.00
C199   C     0.82493   0.18850   0.45780   0.00000  Uiso   1.00
C200   C     0.81479   0.22906   0.47469   0.00000  Uiso   1.00
C201   C     0.83883   0.16241   0.47960   0.00000  Uiso   1.00
C202   C     0.84277   0.17775   0.01792   0.00000  Uiso   1.00
C203   C     0.83362   0.21904   0.03286   0.00000  Uiso   1.00
C204   C     0.81930   0.24378   0.01188   0.00000  Uiso   1.00
C205   C     0.84888   0.12154   0.46438   0.00000  Uiso   1.00
C206   C     0.86317   0.09675   0.48528   0.00000  Uiso   1.00
C207   C     0.86690   0.11079   0.02300   0.00000  Uiso   1.00
C208   C     0.85545   0.15123   0.04017   0.00000  Uiso   1.00
C209   C     0.87910   0.08403   0.04498   0.00000  Uiso   1.00
C210   C     0.87615   0.09618   0.08461   0.00000  Uiso   1.00
C211   C     0.85468   0.16276   0.07987   0.00000  Uiso   1.00
H212   H     0.81250   0.27516   0.02463   0.00000  Uiso   1.00
H213   H     0.84392   0.19163   0.09570   0.00000  Uiso   1.00
H214   H     0.88342   0.07515   0.10218   0.00000  Uiso   1.00
H215   H     0.86938   0.06549   0.47200   0.00000  Uiso   1.00
H216   H     0.79449   0.28663   0.46683   0.00000  Uiso   1.00
H217   H     0.82896   0.14568   0.40466   0.00000  Uiso   1.00
H218   H     0.83786   0.23380   0.06057   0.00000  Uiso   1.00
H219   H     0.84564   0.10702   0.43634   0.00000  Uiso   1.00
C220   C     0.99378   0.17553   0.23740   0.00000  Uiso   1.00
C221   C     0.67440   0.15784   0.26307   0.00000  Uiso   1.00
C222   C     0.84842   0.32240   0.23737   0.00000  Uiso   1.00
C223   C     0.81904   0.01213   0.26186   0.00000  Uiso   1.00
H224   H     0.79210   0.33180   0.28422   0.00000  Uiso   1.00
N225   N     0.89351   0.04420   0.02792   0.00000  Uiso   1.00
O226   O     0.88118   0.01193   0.04807   0.00000  Uiso   1.00
O227   O     0.92437   0.04177   0.49531   0.00000  Uiso   1.00
N228   N     0.69056   0.19619   0.20534   0.00000  Uiso   1.00
O229   O     0.68407   0.19082   0.17068   0.00000  Uiso   1.00
O230   O     0.72215   0.22330   0.21144   0.00000  Uiso   1.00
C231   C     0.97990   0.13659   0.29735   0.00000  Uiso   1.00
C232   C     0.97330   0.09272   0.29496   0.00000  Uiso   1.00
C233   C     0.94712   0.07253   0.32720   0.00000  Uiso   1.00
C234   C     0.92779   0.09599   0.36206   0.00000  Uiso   1.00
C235   C     0.93458   0.13972   0.36476   0.00000  Uiso   1.00
C236   C     0.96071   0.16005   0.33256   0.00000  Uiso   1.00
H237   H     0.98822   0.07426   0.26811   0.00000  Uiso   1.00
H238   H     0.94187   0.03868   0.32517   0.00000  Uiso   1.00
H239   H     0.90774   0.08022   0.38698   0.00000  Uiso   1.00
H240   H     0.91967   0.15784   0.39181   0.00000  Uiso   1.00
H241   H     0.96581   0.19393   0.33488   0.00000  Uiso   1.00
C242   C     0.88519   0.00764   0.20649   0.00000  Uiso   1.00
C243   C     0.88748   0.33009   0.16657   0.00000  Uiso   1.00
C244   C     0.92146   0.01487   0.13753   0.00000  Uiso   1.00
C245   C     0.95331   0.04393   0.14814   0.00000  Uiso   1.00
C246   C     0.95149   0.05459   0.18781   0.00000  Uiso   1.00
C247   C     0.91772   0.03633   0.21691   0.00000  Uiso   1.00
H248   H     0.86277   0.30790   0.15799   0.00000  Uiso   1.00
H249   H     0.92303   0.00651   0.10680   0.00000  Uiso   1.00
H250   H     0.97946   0.05807   0.12563   0.00000  Uiso   1.00
H251   H     0.97625   0.07698   0.19602   0.00000  Uiso   1.00
H252   H     0.91685   0.04456   0.24752   0.00000  Uiso   1.00
N253   N     0.79194   0.27343   0.39332   0.00000  Uiso   1.00
O254   O     0.82100   0.28519   0.36192   0.00000  Uiso   1.00
O255   O     0.76006   0.29549   0.40931   0.00000  Uiso   1.00
Zn256  Zn    0.19244   0.47423   0.28278   0.00000  Uiso   1.00
Zn257  Zn    0.13459   0.45711   0.22258   0.00000  Uiso   1.00
Zn258  Zn    0.21166   0.52997   0.21188   0.00000  Uiso   1.00
Zn259  Zn    0.12798   0.53868   0.28277   0.00000  Uiso   1.00
O260   O     0.16667   0.50000   0.25000   0.00000  Uiso   1.00
O261   O     0.06990   0.52293   0.27820   0.00000  Uiso   1.00
O262   O     0.25440   0.48610   0.26768   0.00000  Uiso   1.00
O263   O     0.13800   0.40236   0.23607   0.00000  Uiso   1.00
O264   O     0.20437   0.58860   0.21806   0.00000  Uiso   1.00
O265   O     0.15693   0.45726   0.16625   0.00000  Uiso   1.00
O266   O     0.12687   0.53979   0.33749   0.00000  Uiso   1.00
O267   O     0.21088   0.50826   0.15877   0.00000  Uiso   1.00
O268   O     0.17198   0.49468   0.33749   0.00000  Uiso   1.00
O269   O     0.17849   0.41434   0.27821   0.00000  Uiso   1.00
O270   O     0.14581   0.59469   0.26767   0.00000  Uiso   1.00
O271   O     0.07452   0.46584   0.23607   0.00000  Uiso   1.00
O272   O     0.26785   0.52512   0.21806   0.00000  Uiso   1.00
C273   C     0.05283   0.49334   0.25872   0.00000  Uiso   1.00
C274   C     0.28106   0.50656   0.24106   0.00000  Uiso   1.00
C275   C     0.15529   0.38962   0.25949   0.00000  Uiso   1.00
C276   C     0.17694   0.61101   0.24107   0.00000  Uiso   1.00
C277   C     0.18836   0.47833   0.14412   0.00000  Uiso   1.00
C278   C     0.14671   0.52226   0.35587   0.00000  Uiso   1.00
C279   C     0.14394   0.53628   0.39753   0.00000  Uiso   1.00
C280   C     0.19713   0.46848   0.10185   0.00000  Uiso   1.00
C281   C     0.13497   0.58876   0.45375   0.00000  Uiso   1.00
C282   C     0.13373   0.57661   0.41501   0.00000  Uiso   1.00
C283   C     0.15510   0.50934   0.41928   0.00000  Uiso   1.00
C284   C     0.15827   0.52183   0.45780   0.00000  Uiso   1.00
C285   C     0.14812   0.56239   0.47469   0.00000  Uiso   1.00
C286   C     0.17216   0.49575   0.47960   0.00000  Uiso   1.00
C287   C     0.17610   0.51109   0.01792   0.00000  Uiso   1.00
C288   C     0.16696   0.55238   0.03286   0.00000  Uiso   1.00
C289   C     0.15263   0.57712   0.01188   0.00000  Uiso   1.00
C290   C     0.18221   0.45487   0.46438   0.00000  Uiso   1.00
C291   C     0.19650   0.43008   0.48528   0.00000  Uiso   1.00
C292   C     0.20024   0.44413   0.02300   0.00000  Uiso   1.00
C293   C     0.18878   0.48457   0.04017   0.00000  Uiso   1.00
C294   C     0.21243   0.41737   0.04498   0.00000  Uiso   1.00
C295   C     0.20949   0.42951   0.08461   0.00000  Uiso   1.00
C296   C     0.18801   0.49609   0.07987   0.00000  Uiso   1.00
H297   H     0.14584   0.60849   0.02463   0.00000  Uiso   1.00
H298   H     0.17725   0.52496   0.09570   0.00000  Uiso   1.00
H299   H     0.21676   0.40848   0.10218   0.00000  Uiso   1.00
H300   H     0.20271   0.39883   0.47200   0.00000  Uiso   1.00
H301   H     0.12783   0.61997   0.46683   0.00000  Uiso   1.00
H302   H     0.16229   0.47902   0.40466   0.00000  Uiso   1.00
H303   H     0.17120   0.56713   0.06057   0.00000  Uiso   1.00
H304   H     0.17897   0.44036   0.43634   0.00000  Uiso   1.00
C305   C     0.32711   0.50886   0.23740   0.00000  Uiso   1.00
C306   C     0.00773   0.49117   0.26307   0.00000  Uiso   1.00
C307   C     0.18175   0.65574   0.23737   0.00000  Uiso   1.00
C308   C     0.15238   0.34546   0.26186   0.00000  Uiso   1.00
H309   H     0.12544   0.66513   0.28422   0.00000  Uiso   1.00
N310   N     0.22685   0.37754   0.02792   0.00000  Uiso   1.00
O311   O     0.21452   0.34526   0.04807   0.00000  Uiso   1.00
O312   O     0.25770   0.37510   0.49531   0.00000  Uiso   1.00
N313   N     0.02390   0.52952   0.20534   0.00000  Uiso   1.00
O314   O     0.01740   0.52416   0.17068   0.00000  Uiso   1.00
O315   O     0.05548   0.55663   0.21144   0.00000  Uiso   1.00
C316   C     0.31324   0.46993   0.29735   0.00000  Uiso   1.00
C317   C     0.30663   0.42605   0.29496   0.00000  Uiso   1.00
C318   C     0.28045   0.40586   0.32720   0.00000  Uiso   1.00
C319   C     0.26112   0.42932   0.36206   0.00000  Uiso   1.00
C320   C     0.26792   0.47305   0.36476   0.00000  Uiso   1.00
C321   C     0.29405   0.49339   0.33256   0.00000  Uiso   1.00
H322   H     0.32155   0.40760   0.26811   0.00000  Uiso   1.00
H323   H     0.27521   0.37202   0.32517   0.00000  Uiso   1.00
H324   H     0.24107   0.41355   0.38698   0.00000  Uiso   1.00
H325   H     0.25300   0.49117   0.39181   0.00000  Uiso   1.00
H326   H     0.29915   0.52726   0.33488   0.00000  Uiso   1.00
C327   C     0.21852   0.34097   0.20649   0.00000  Uiso   1.00
C328   C     0.22081   0.66342   0.16657   0.00000  Uiso   1.00
C329   C     0.25480   0.34821   0.13753   0.00000  Uiso   1.00
C330   C     0.28665   0.37726   0.14814   0.00000  Uiso   1.00
C331   C     0.28482   0.38793   0.18781   0.00000  Uiso   1.00
C332   C     0.25106   0.36967   0.21691   0.00000  Uiso   1.00
H333   H     0.19610   0.64123   0.15799   0.00000  Uiso   1.00
H334   H     0.25636   0.33984   0.10680   0.00000  Uiso   1.00
H335   H     0.31280   0.39140   0.12563   0.00000  Uiso   1.00
H336   H     0.30959   0.41032   0.19602   0.00000  Uiso   1.00
H337   H     0.25018   0.37789   0.24752   0.00000  Uiso   1.00
N338   N     0.12527   0.60676   0.39332   0.00000  Uiso   1.00
O339   O     0.15433   0.61852   0.36192   0.00000  Uiso   1.00
O340   O     0.09340   0.62882   0.40931   0.00000  Uiso   1.00
Zn341  Zn    0.52577   0.47423   0.28278   0.00000  Uiso   1.00
Zn342  Zn    0.46792   0.45711   0.22258   0.00000  Uiso   1.00
Zn343  Zn    0.54500   0.52997   0.21188   0.00000  Uiso   1.00
Zn344  Zn    0.46131   0.53868   0.28277   0.00000  Uiso   1.00
O345   O     0.50000   0.50000   0.25000   0.00000  Uiso   1.00
O346   O     0.40323   0.52293   0.27820   0.00000  Uiso   1.00
O347   O     0.58773   0.48610   0.26768   0.00000  Uiso   1.00
O348   O     0.47133   0.40236   0.23607   0.00000  Uiso   1.00
O349   O     0.53771   0.58860   0.21806   0.00000  Uiso   1.00
O350   O     0.49027   0.45726   0.16625   0.00000  Uiso   1.00
O351   O     0.46020   0.53979   0.33749   0.00000  Uiso   1.00
O352   O     0.54421   0.50826   0.15877   0.00000  Uiso   1.00
O353   O     0.50532   0.49468   0.33749   0.00000  Uiso   1.00
O354   O     0.51182   0.41434   0.27821   0.00000  Uiso   1.00
O355   O     0.47914   0.59469   0.26767   0.00000  Uiso   1.00
O356   O     0.40785   0.46584   0.23607   0.00000  Uiso   1.00
O357   O     0.60119   0.52512   0.21806   0.00000  Uiso   1.00
C358   C     0.38617   0.49334   0.25872   0.00000  Uiso   1.00
C359   C     0.61439   0.50656   0.24106   0.00000  Uiso   1.00
C360   C     0.48863   0.38962   0.25949   0.00000  Uiso   1.00
C361   C     0.51027   0.61101   0.24107   0.00000  Uiso   1.00
C362   C     0.52170   0.47833   0.14412   0.00000  Uiso   1.00
C363   C     0.48005   0.52226   0.35587   0.00000  Uiso   1.00
C364   C     0.47727   0.53628   0.39753   0.00000  Uiso   1.00
C365   C     0.53046   0.46848   0.10185   0.00000  Uiso   1.00
C366   C     0.46830   0.58876   0.45375   0.00000  Uiso   1.00
C367   C     0.46707   0.57661   0.41501   0.00000  Uiso   1.00
C368   C     0.48844   0.50934   0.41928   0.00000  Uiso   1.00
C369   C     0.49160   0.52183   0.45780   0.00000  Uiso   1.00
C370   C     0.48145   0.56239   0.47469   0.00000  Uiso   1.00
C371   C     0.50550   0.49575   0.47960   0.00000  Uiso   1.00
C372   C     0.50943   0.51109   0.01792   0.00000  Uiso   1.00
C373   C     0.50029   0.55238   0.03286   0.00000  Uiso   1.00
C374   C     0.48597   0.57712   0.01188   0.00000  Uiso   1.00
C375   C     0.51555   0.45487   0.46438   0.00000  Uiso   1.00
C376   C     0.52984   0.43008   0.48528   0.00000  Uiso   1.00
C377   C     0.53357   0.44413   0.02300   0.00000  Uiso   1.00
C378   C     0.52212   0.48457   0.04017   0.00000  Uiso   1.00
C379   C     0.54576   0.41737   0.04498   0.00000  Uiso   1.00
C380   C     0.54282   0.42951   0.08461   0.00000  Uiso   1.00
C381   C     0.52135   0.49609   0.07987   0.00000  Uiso   1.00
H382   H     0.47917   0.60849   0.02463   0.00000  Uiso   1.00
H383   H     0.51059   0.52496   0.09570   0.00000  Uiso   1.00
H384   H     0.55009   0.40848   0.10218   0.00000  Uiso   1.00
H385   H     0.53605   0.39883   0.47200   0.00000  Uiso   1.00
H386   H     0.46116   0.61997   0.46683   0.00000  Uiso   1.00
H387   H     0.49562   0.47902   0.40466   0.00000  Uiso   1.00
H388   H     0.50453   0.56713   0.06057   0.00000  Uiso   1.00
H389   H     0.51231   0.44036   0.43634   0.00000  Uiso   1.00
C390   C     0.66045   0.50886   0.23740   0.00000  Uiso   1.00
C391   C     0.34106   0.49117   0.26307   0.00000  Uiso   1.00
C392   C     0.51509   0.65574   0.23737   0.00000  Uiso   1.00
C393   C     0.48571   0.34546   0.26186   0.00000  Uiso   1.00
H394   H     0.45877   0.66513   0.28422   0.00000  Uiso   1.00
N395   N     0.56018   0.37754   0.02792   0.00000  Uiso   1.00
O396   O     0.54785   0.34526   0.04807   0.00000  Uiso   1.00
O397   O     0.59104   0.37510   0.49531   0.00000  Uiso   1.00
N398   N     0.35723   0.52952   0.20534   0.00000  Uiso   1.00
O399   O     0.35073   0.52416   0.17068   0.00000  Uiso   1.00
O400   O     0.38881   0.55663   0.21144   0.00000  Uiso   1.00
C401   C     0.64657   0.46993   0.29735   0.00000  Uiso   1.00
C402   C     0.63997   0.42605   0.29496   0.00000  Uiso   1.00
C403   C     0.61379   0.40586   0.32720   0.00000  Uiso   1.00
C404   C     0.59446   0.42932   0.36206   0.00000  Uiso   1.00
C405   C     0.60125   0.47305   0.36476   0.00000  Uiso   1.00
C406   C     0.62738   0.49339   0.33256   0.00000  Uiso   1.00
H407   H     0.65489   0.40760   0.26811   0.00000  Uiso   1.00
H408   H     0.60854   0.37202   0.32517   0.00000  Uiso   1.00
H409   H     0.57440   0.41355   0.38698   0.00000  Uiso   1.00
H410   H     0.58634   0.49117   0.39181   0.00000  Uiso   1.00
H411   H     0.63248   0.52726   0.33488   0.00000  Uiso   1.00
C412   C     0.55186   0.34097   0.20649   0.00000  Uiso   1.00
C413   C     0.55415   0.66342   0.16657   0.00000  Uiso   1.00
C414   C     0.58813   0.34821   0.13753   0.00000  Uiso   1.00
C415   C     0.61998   0.37726   0.14814   0.00000  Uiso   1.00
C416   C     0.61816   0.38793   0.18781   0.00000  Uiso   1.00
C417   C     0.58439   0.36967   0.21691   0.00000  Uiso   1.00
H418   H     0.52944   0.64123   0.15799   0.00000  Uiso   1.00
H419   H     0.58970   0.33984   0.10680   0.00000  Uiso   1.00
H420   H     0.64613   0.39140   0.12563   0.00000  Uiso   1.00
H421   H     0.64292   0.41032   0.19602   0.00000  Uiso   1.00
H422   H     0.58351   0.37789   0.24752   0.00000  Uiso   1.00
N423   N     0.45861   0.60676   0.39332   0.00000  Uiso   1.00
O424   O     0.48766   0.61852   0.36192   0.00000  Uiso   1.00
O425   O     0.42673   0.62882   0.40931   0.00000  Uiso   1.00
Zn426  Zn    0.85910   0.47423   0.28278   0.00000  Uiso   1.00
Zn427  Zn    0.80125   0.45711   0.22258   0.00000  Uiso   1.00
Zn428  Zn    0.87833   0.52997   0.21188   0.00000  Uiso   1.00
Zn429  Zn    0.79465   0.53868   0.28277   0.00000  Uiso   1.00
O430   O     0.83333   0.50000   0.25000   0.00000  Uiso   1.00
O431   O     0.73656   0.52293   0.27820   0.00000  Uiso   1.00
O432   O     0.92106   0.48610   0.26768   0.00000  Uiso   1.00
O433   O     0.80467   0.40236   0.23607   0.00000  Uiso   1.00
O434   O     0.87104   0.58860   0.21806   0.00000  Uiso   1.00
O435   O     0.82360   0.45726   0.16625   0.00000  Uiso   1.00
O436   O     0.79354   0.53979   0.33749   0.00000  Uiso   1.00
O437   O     0.87755   0.50826   0.15877   0.00000  Uiso   1.00
O438   O     0.83865   0.49468   0.33749   0.00000  Uiso   1.00
O439   O     0.84515   0.41434   0.27821   0.00000  Uiso   1.00
O440   O     0.81247   0.59469   0.26767   0.00000  Uiso   1.00
O441   O     0.74119   0.46584   0.23607   0.00000  Uiso   1.00
O442   O     0.93452   0.52512   0.21806   0.00000  Uiso   1.00
C443   C     0.71950   0.49334   0.25872   0.00000  Uiso   1.00
C444   C     0.94773   0.50656   0.24106   0.00000  Uiso   1.00
C445   C     0.82196   0.38962   0.25949   0.00000  Uiso   1.00
C446   C     0.84360   0.61101   0.24107   0.00000  Uiso   1.00
C447   C     0.85503   0.47833   0.14412   0.00000  Uiso   1.00
C448   C     0.81338   0.52226   0.35587   0.00000  Uiso   1.00
C449   C     0.81060   0.53628   0.39753   0.00000  Uiso   1.00
C450   C     0.86379   0.46848   0.10185   0.00000  Uiso   1.00
C451   C     0.80163   0.58876   0.45375   0.00000  Uiso   1.00
C452   C     0.80040   0.57661   0.41501   0.00000  Uiso   1.00
C453   C     0.82177   0.50934   0.41928   0.00000  Uiso   1.00
C454   C     0.82493   0.52183   0.45780   0.00000  Uiso   1.00
C455   C     0.81479   0.56239   0.47469   0.00000  Uiso   1.00
C456   C     0.83883   0.49575   0.47960   0.00000  Uiso   1.00
C457   C     0.84277   0.51109   0.01792   0.00000  Uiso   1.00
C458   C     0.83362   0.55238   0.03286   0.00000  Uiso   1.00
C459   C     0.81930   0.57712   0.01188   0.00000  Uiso   1.00
C460   C     0.84888   0.45487   0.46438   0.00000  Uiso   1.00
C461   C     0.86317   0.43008   0.48528   0.00000  Uiso   1.00
C462   C     0.86690   0.44413   0.02300   0.00000  Uiso   1.00
C463   C     0.85545   0.48457   0.04017   0.00000  Uiso   1.00
C464   C     0.87910   0.41737   0.04498   0.00000  Uiso   1.00
C465   C     0.87615   0.42951   0.08461   0.00000  Uiso   1.00
C466   C     0.85468   0.49609   0.07987   0.00000  Uiso   1.00
H467   H     0.81250   0.60849   0.02463   0.00000  Uiso   1.00
H468   H     0.84392   0.52496   0.09570   0.00000  Uiso   1.00
H469   H     0.88342   0.40848   0.10218   0.00000  Uiso   1.00
H470   H     0.86938   0.39883   0.47200   0.00000  Uiso   1.00
H471   H     0.79449   0.61997   0.46683   0.00000  Uiso   1.00
H472   H     0.82896   0.47902   0.40466   0.00000  Uiso   1.00
H473   H     0.83786   0.56713   0.06057   0.00000  Uiso   1.00
H474   H     0.84564   0.44036   0.43634   0.00000  Uiso   1.00
C475   C     0.99378   0.50886   0.23740   0.00000  Uiso   1.00
C476   C     0.67440   0.49117   0.26307   0.00000  Uiso   1.00
C477   C     0.84842   0.65574   0.23737   0.00000  Uiso   1.00
C478   C     0.81904   0.34546   0.26186   0.00000  Uiso   1.00
H479   H     0.79210   0.66513   0.28422   0.00000  Uiso   1.00
N480   N     0.89351   0.37754   0.02792   0.00000  Uiso   1.00
O481   O     0.88118   0.34526   0.04807   0.00000  Uiso   1.00
O482   O     0.92437   0.37510   0.49531   0.00000  Uiso   1.00
N483   N     0.69056   0.52952   0.20534   0.00000  Uiso   1.00
O484   O     0.68407   0.52416   0.17068   0.00000  Uiso   1.00
O485   O     0.72215   0.55663   0.21144   0.00000  Uiso   1.00
C486   C     0.97990   0.46993   0.29735   0.00000  Uiso   1.00
C487   C     0.97330   0.42605   0.29496   0.00000  Uiso   1.00
C488   C     0.94712   0.40586   0.32720   0.00000  Uiso   1.00
C489   C     0.92779   0.42932   0.36206   0.00000  Uiso   1.00
C490   C     0.93458   0.47305   0.36476   0.00000  Uiso   1.00
C491   C     0.96071   0.49339   0.33256   0.00000  Uiso   1.00
H492   H     0.98822   0.40760   0.26811   0.00000  Uiso   1.00
H493   H     0.94187   0.37202   0.32517   0.00000  Uiso   1.00
H494   H     0.90774   0.41355   0.38698   0.00000  Uiso   1.00
H495   H     0.91967   0.49117   0.39181   0.00000  Uiso   1.00
H496   H     0.96581   0.52726   0.33488   0.00000  Uiso   1.00
C497   C     0.88519   0.34097   0.20649   0.00000  Uiso   1.00
C498   C     0.88748   0.66342   0.16657   0.00000  Uiso   1.00
C499   C     0.92146   0.34821   0.13753   0.00000  Uiso   1.00
C500   C     0.95331   0.37726   0.14814   0.00000  Uiso   1.00
C501   C     0.95149   0.38793   0.18781   0.00000  Uiso   1.00
C502   C     0.91772   0.36967   0.21691   0.00000  Uiso   1.00
H503   H     0.86277   0.64123   0.15799   0.00000  Uiso   1.00
H504   H     0.92303   0.33984   0.10680   0.00000  Uiso   1.00
H505   H     0.97946   0.39140   0.12563   0.00000  Uiso   1.00
H506   H     0.97625   0.41032   0.19602   0.00000  Uiso   1.00
H507   H     0.91685   0.37789   0.24752   0.00000  Uiso   1.00
N508   N     0.79194   0.60676   0.39332   0.00000  Uiso   1.00
O509   O     0.82100   0.61852   0.36192   0.00000  Uiso   1.00
O510   O     0.76006   0.62882   0.40931   0.00000  Uiso   1.00
Zn511  Zn    0.19244   0.80756   0.28278   0.00000  Uiso   1.00
Zn512  Zn    0.13459   0.79044   0.22258   0.00000  Uiso   1.00
Zn513  Zn    0.21166   0.86331   0.21188   0.00000  Uiso   1.00
Zn514  Zn    0.12798   0.87202   0.28277   0.00000  Uiso   1.00
O515   O     0.16667   0.83333   0.25000   0.00000  Uiso   1.00
O516   O     0.06990   0.85627   0.27820   0.00000  Uiso   1.00
O517   O     0.25440   0.81944   0.26768   0.00000  Uiso   1.00
O518   O     0.13800   0.73570   0.23607   0.00000  Uiso   1.00
O519   O     0.20437   0.92193   0.21806   0.00000  Uiso   1.00
O520   O     0.15693   0.79060   0.16625   0.00000  Uiso   1.00
O521   O     0.12687   0.87313   0.33749   0.00000  Uiso   1.00
O522   O     0.21088   0.84159   0.15877   0.00000  Uiso   1.00
O523   O     0.17198   0.82802   0.33749   0.00000  Uiso   1.00
O524   O     0.17849   0.74768   0.27821   0.00000  Uiso   1.00
O525   O     0.14581   0.92803   0.26767   0.00000  Uiso   1.00
O526   O     0.07452   0.79917   0.23607   0.00000  Uiso   1.00
O527   O     0.26785   0.85845   0.21806   0.00000  Uiso   1.00
C528   C     0.05283   0.82668   0.25872   0.00000  Uiso   1.00
C529   C     0.28106   0.83989   0.24106   0.00000  Uiso   1.00
C530   C     0.15529   0.72296   0.25949   0.00000  Uiso   1.00
C531   C     0.17694   0.94435   0.24107   0.00000  Uiso   1.00
C532   C     0.18836   0.81167   0.14412   0.00000  Uiso   1.00
C533   C     0.14671   0.85559   0.35587   0.00000  Uiso   1.00
C534   C     0.14394   0.86962   0.39753   0.00000  Uiso   1.00
C535   C     0.19713   0.80181   0.10185   0.00000  Uiso   1.00
C536   C     0.13497   0.92210   0.45375   0.00000  Uiso   1.00
C537   C     0.13373   0.90995   0.41501   0.00000  Uiso   1.00
C538   C     0.15510   0.84267   0.41928   0.00000  Uiso   1.00
C539   C     0.15827   0.85517   0.45780   0.00000  Uiso   1.00
C540   C     0.14812   0.89573   0.47469   0.00000  Uiso   1.00
C541   C     0.17216   0.82908   0.47960   0.00000  Uiso   1.00
C542   C     0.17610   0.84442   0.01792   0.00000  Uiso   1.00
C543   C     0.16696   0.88571   0.03286   0.00000  Uiso   1.00
C544   C     0.15263   0.91045   0.01188   0.00000  Uiso   1.00
C545   C     0.18221   0.78820   0.46438   0.00000  Uiso   1.00
C546   C     0.19650   0.76342   0.48528   0.00000  Uiso   1.00
C547   C     0.20024   0.77746   0.02300   0.00000  Uiso   1.00
C548   C     0.18878   0.81790   0.04017   0.00000  Uiso   1.00
C549   C     0.21243   0.75070   0.04498   0.00000  Uiso   1.00
C550   C     0.20949   0.76285   0.08461   0.00000  Uiso   1.00
C551   C     0.18801   0.82942   0.07987   0.00000  Uiso   1.00
H552   H     0.14584   0.94182   0.02463   0.00000  Uiso   1.00
H553   H     0.17725   0.85829   0.09570   0.00000  Uiso   1.00
H554   H     0.21676   0.74181   0.10218   0.00000  Uiso   1.00
H555   H     0.20271   0.73216   0.47200   0.00000  Uiso   1.00
H556   H     0.12783   0.95330   0.46683   0.00000  Uiso   1.00
H557   H     0.16229   0.81235   0.40466   0.00000  Uiso   1.00
H558   H     0.17120   0.90046   0.06057   0.00000  Uiso   1.00
H559   H     0.17897   0.77369   0.43634   0.00000  Uiso   1.00
C560   C     0.32711   0.84219   0.23740   0.00000  Uiso   1.00
C561   C     0.00773   0.82451   0.26307   0.00000  Uiso   1.00
C562   C     0.18175   0.98907   0.23737   0.00000  Uiso   1.00
C563   C     0.15238   0.67880   0.26186   0.00000  Uiso   1.00
H564   H     0.12544   0.99847   0.28422   0.00000  Uiso   1.00
N565   N     0.22685   0.71087   0.02792   0.00000  Uiso   1.00
O566   O     0.21452   0.67859   0.04807   0.00000  Uiso   1.00
O567   O     0.25770   0.70843   0.49531   0.00000  Uiso   1.00
N568   N     0.02390   0.86285   0.20534   0.00000  Uiso   1.00
O569   O     0.01740   0.85749   0.17068   0.00000  Uiso   1.00
O570   O     0.05548   0.88997   0.21144   0.00000  Uiso   1.00
C571   C     0.31324   0.80326   0.29735   0.00000  Uiso   1.00
C572   C     0.30663   0.75939   0.29496   0.00000  Uiso   1.00
C573   C     0.28045   0.73919   0.32720   0.00000  Uiso   1.00
C574   C     0.26112   0.76265   0.36206   0.00000  Uiso   1.00
C575   C     0.26792   0.80638   0.36476   0.00000  Uiso   1.00
C576   C     0.29405   0.82672   0.33256   0.00000  Uiso   1.00
H577   H     0.32155   0.74093   0.26811   0.00000  Uiso   1.00
H578   H     0.27521   0.70535   0.32517   0.00000  Uiso   1.00
H579   H     0.24107   0.74688   0.38698   0.00000  Uiso   1.00
H580   H     0.25300   0.82451   0.39181   0.00000  Uiso   1.00
H581   H     0.29915   0.86059   0.33488   0.00000  Uiso   1.00
C582   C     0.21852   0.67431   0.20649   0.00000  Uiso   1.00
C583   C     0.22081   0.99675   0.16657   0.00000  Uiso   1.00
C584   C     0.25480   0.68154   0.13753   0.00000  Uiso   1.00
C585   C     0.28665   0.71059   0.14814   0.00000  Uiso   1.00
C586   C     0.28482   0.72126   0.18781   0.00000  Uiso   1.00
C587   C     0.25106   0.70300   0.21691   0.00000  Uiso   1.00
H588   H     0.19610   0.97457   0.15799   0.00000  Uiso   1.00
H589   H     0.25636   0.67318   0.10680   0.00000  Uiso   1.00
H590   H     0.31280   0.72473   0.12563   0.00000  Uiso   1.00
H591   H     0.30959   0.74365   0.19602   0.00000  Uiso   1.00
H592   H     0.25018   0.71123   0.24752   0.00000  Uiso   1.00
N593   N     0.12527   0.94009   0.39332   0.00000  Uiso   1.00
O594   O     0.15433   0.95185   0.36192   0.00000  Uiso   1.00
O595   O     0.09340   0.96216   0.40931   0.00000  Uiso   1.00
Zn596  Zn    0.52577   0.80756   0.28278   0.00000  Uiso   1.00
Zn597  Zn    0.46792   0.79044   0.22258   0.00000  Uiso   1.00
Zn598  Zn    0.54500   0.86331   0.21188   0.00000  Uiso   1.00
Zn599  Zn    0.46131   0.87202   0.28277   0.00000  Uiso   1.00
O600   O     0.50000   0.83333   0.25000   0.00000  Uiso   1.00
O601   O     0.40323   0.85627   0.27820   0.00000  Uiso   1.00
O602   O     0.58773   0.81944   0.26768   0.00000  Uiso   1.00
O603   O     0.47133   0.73570   0.23607   0.00000  Uiso   1.00
O604   O     0.53771   0.92193   0.21806   0.00000  Uiso   1.00
O605   O     0.49027   0.79060   0.16625   0.00000  Uiso   1.00
O606   O     0.46020   0.87313   0.33749   0.00000  Uiso   1.00
O607   O     0.54421   0.84159   0.15877   0.00000  Uiso   1.00
O608   O     0.50532   0.82802   0.33749   0.00000  Uiso   1.00
O609   O     0.51182   0.74768   0.27821   0.00000  Uiso   1.00
O610   O     0.47914   0.92803   0.26767   0.00000  Uiso   1.00
O611   O     0.40785   0.79917   0.23607   0.00000  Uiso   1.00
O612   O     0.60119   0.85845   0.21806   0.00000  Uiso   1.00
C613   C     0.38617   0.82668   0.25872   0.00000  Uiso   1.00
C614   C     0.61439   0.83989   0.24106   0.00000  Uiso   1.00
C615   C     0.48863   0.72296   0.25949   0.00000  Uiso   1.00
C616   C     0.51027   0.94435   0.24107   0.00000  Uiso   1.00
C617   C     0.52170   0.81167   0.14412   0.00000  Uiso   1.00
C618   C     0.48005   0.85559   0.35587   0.00000  Uiso   1.00
C619   C     0.47727   0.86962   0.39753   0.00000  Uiso   1.00
C620   C     0.53046   0.80181   0.10185   0.00000  Uiso   1.00
C621   C     0.46830   0.92210   0.45375   0.00000  Uiso   1.00
C622   C     0.46707   0.90995   0.41501   0.00000  Uiso   1.00
C623   C     0.48844   0.84267   0.41928   0.00000  Uiso   1.00
C624   C     0.49160   0.85517   0.45780   0.00000  Uiso   1.00
C625   C     0.48145   0.89573   0.47469   0.00000  Uiso   1.00
C626   C     0.50550   0.82908   0.47960   0.00000  Uiso   1.00
C627   C     0.50943   0.84442   0.01792   0.00000  Uiso   1.00
C628   C     0.50029   0.88571   0.03286   0.00000  Uiso   1.00
C629   C     0.48597   0.91045   0.01188   0.00000  Uiso   1.00
C630   C     0.51555   0.78820   0.46438   0.00000  Uiso   1.00
C631   C     0.52984   0.76342   0.48528   0.00000  Uiso   1.00
C632   C     0.53357   0.77746   0.02300   0.00000  Uiso   1.00
C633   C     0.52212   0.81790   0.04017   0.00000  Uiso   1.00
C634   C     0.54576   0.75070   0.04498   0.00000  Uiso   1.00
C635   C     0.54282   0.76285   0.08461   0.00000  Uiso   1.00
C636   C     0.52135   0.82942   0.07987   0.00000  Uiso   1.00
H637   H     0.47917   0.94182   0.02463   0.00000  Uiso   1.00
H638   H     0.51059   0.85829   0.09570   0.00000  Uiso   1.00
H639   H     0.55009   0.74181   0.10218   0.00000  Uiso   1.00
H640   H     0.53605   0.73216   0.47200   0.00000  Uiso   1.00
H641   H     0.46116   0.95330   0.46683   0.00000  Uiso   1.00
H642   H     0.49562   0.81235   0.40466   0.00000  Uiso   1.00
H643   H     0.50453   0.90046   0.06057   0.00000  Uiso   1.00
H644   H     0.51231   0.77369   0.43634   0.00000  Uiso   1.00
C645   C     0.66045   0.84219   0.23740   0.00000  Uiso   1.00
C646   C     0.34106   0.82451   0.26307   0.00000  Uiso   1.00
C647   C     0.51509   0.98907   0.23737   0.00000  Uiso   1.00
C648   C     0.48571   0.67880   0.26186   0.00000  Uiso   1.00
H649   H     0.45877   0.99847   0.28422   0.00000  Uiso   1.00
N650   N     0.56018   0.71087   0.02792   0.00000  Uiso   1.00
O651   O     0.54785   0.67859   0.04807   0.00000  Uiso   1.00
O652   O     0.59104   0.70843   0.49531   0.00000  Uiso   1.00
N653   N     0.35723   0.86285   0.20534   0.00000  Uiso   1.00
O654   O     0.35073   0.85749   0.17068   0.00000  Uiso   1.00
O655   O     0.38881   0.88997   0.21144   0.00000  Uiso   1.00
C656   C     0.64657   0.80326   0.29735   0.00000  Uiso   1.00
C657   C     0.63997   0.75939   0.29496   0.00000  Uiso   1.00
C658   C     0.61379   0.73919   0.32720   0.00000  Uiso   1.00
C659   C     0.59446   0.76265   0.36206   0.00000  Uiso   1.00
C660   C     0.60125   0.80638   0.36476   0.00000  Uiso   1.00
C661   C     0.62738   0.82672   0.33256   0.00000  Uiso   1.00
H662   H     0.65489   0.74093   0.26811   0.00000  Uiso   1.00
H663   H     0.60854   0.70535   0.32517   0.00000  Uiso   1.00
H664   H     0.57440   0.74688   0.38698   0.00000  Uiso   1.00
H665   H     0.58634   0.82451   0.39181   0.00000  Uiso   1.00
H666   H     0.63248   0.86059   0.33488   0.00000  Uiso   1.00
C667   C     0.55186   0.67431   0.20649   0.00000  Uiso   1.00
C668   C     0.55415   0.99675   0.16657   0.00000  Uiso   1.00
C669   C     0.58813   0.68154   0.13753   0.00000  Uiso   1.00
C670   C     0.61998   0.71059   0.14814   0.00000  Uiso   1.00
C671   C     0.61816   0.72126   0.18781   0.00000  Uiso   1.00
C672   C     0.58439   0.70300   0.21691   0.00000  Uiso   1.00
H673   H     0.52944   0.97457   0.15799   0.00000  Uiso   1.00
H674   H     0.58970   0.67318   0.10680   0.00000  Uiso   1.00
H675   H     0.64613   0.72473   0.12563   0.00000  Uiso   1.00
H676   H     0.64292   0.74365   0.19602   0.00000  Uiso   1.00
H677   H     0.58351   0.71123   0.24752   0.00000  Uiso   1.00
N678   N     0.45861   0.94009   0.39332   0.00000  Uiso   1.00
O679   O     0.48766   0.95185   0.36192   0.00000  Uiso   1.00
O680   O     0.42673   0.96216   0.40931   0.00000  Uiso   1.00
Zn681  Zn    0.85910   0.80756   0.28278   0.00000  Uiso   1.00
Zn682  Zn    0.80125   0.79044   0.22258   0.00000  Uiso   1.00
Zn683  Zn    0.87833   0.86331   0.21188   0.00000  Uiso   1.00
Zn684  Zn    0.79465   0.87202   0.28277   0.00000  Uiso   1.00
O685   O     0.83333   0.83333   0.25000   0.00000  Uiso   1.00
O686   O     0.73656   0.85627   0.27820   0.00000  Uiso   1.00
O687   O     0.92106   0.81944   0.26768   0.00000  Uiso   1.00
O688   O     0.80467   0.73570   0.23607   0.00000  Uiso   1.00
O689   O     0.87104   0.92193   0.21806   0.00000  Uiso   1.00
O690   O     0.82360   0.79060   0.16625   0.00000  Uiso   1.00
O691   O     0.79354   0.87313   0.33749   0.00000  Uiso   1.00
O692   O     0.87755   0.84159   0.15877   0.00000  Uiso   1.00
O693   O     0.83865   0.82802   0.33749   0.00000  Uiso   1.00
O694   O     0.84515   0.74768   0.27821   0.00000  Uiso   1.00
O695   O     0.81247   0.92803   0.26767   0.00000  Uiso   1.00
O696   O     0.74119   0.79917   0.23607   0.00000  Uiso   1.00
O697   O     0.93452   0.85845   0.21806   0.00000  Uiso   1.00
C698   C     0.71950   0.82668   0.25872   0.00000  Uiso   1.00
C699   C     0.94773   0.83989   0.24106   0.00000  Uiso   1.00
C700   C     0.82196   0.72296   0.25949   0.00000  Uiso   1.00
C701   C     0.84360   0.94435   0.24107   0.00000  Uiso   1.00
C702   C     0.85503   0.81167   0.14412   0.00000  Uiso   1.00
C703   C     0.81338   0.85559   0.35587   0.00000  Uiso   1.00
C704   C     0.81060   0.86962   0.39753   0.00000  Uiso   1.00
C705   C     0.86379   0.80181   0.10185   0.00000  Uiso   1.00
C706   C     0.80163   0.92210   0.45375   0.00000  Uiso   1.00
C707   C     0.80040   0.90995   0.41501   0.00000  Uiso   1.00
C708   C     0.82177   0.84267   0.41928   0.00000  Uiso   1.00
C709   C     0.82493   0.85517   0.45780   0.00000  Uiso   1.00
C710   C     0.81479   0.89573   0.47469   0.00000  Uiso   1.00
C711   C     0.83883   0.82908   0.47960   0.00000  Uiso   1.00
C712   C     0.84277   0.84442   0.01792   0.00000  Uiso   1.00
C713   C     0.83362   0.88571   0.03286   0.00000  Uiso   1.00
C714   C     0.81930   0.91045   0.01188   0.00000  Uiso   1.00
C715   C     0.84888   0.78820   0.46438   0.00000  Uiso   1.00
C716   C     0.86317   0.76342   0.48528   0.00000  Uiso   1.00
C717   C     0.86690   0.77746   0.02300   0.00000  Uiso   1.00
C718   C     0.85545   0.81790   0.04017   0.00000  Uiso   1.00
C719   C     0.87910   0.75070   0.04498   0.00000  Uiso   1.00
C720   C     0.87615   0.76285   0.08461   0.00000  Uiso   1.00
C721   C     0.85468   0.82942   0.07987   0.00000  Uiso   1.00
H722   H     0.81250   0.94182   0.02463   0.00000  Uiso   1.00
H723   H     0.84392   0.85829   0.09570   0.00000  Uiso   1.00
H724   H     0.88342   0.74181   0.10218   0.00000  Uiso   1.00
H725   H     0.86938   0.73216   0.47200   0.00000  Uiso   1.00
H726   H     0.79449   0.95330   0.46683   0.00000  Uiso   1.00
H727   H     0.82896   0.81235   0.40466   0.00000  Uiso   1.00
H728   H     0.83786   0.90046   0.06057   0.00000  Uiso   1.00
H729   H     0.84564   0.77369   0.43634   0.00000  Uiso   1.00
C730   C     0.99378   0.84219   0.23740   0.00000  Uiso   1.00
C731   C     0.67440   0.82451   0.26307   0.00000  Uiso   1.00
C732   C     0.84842   0.98907   0.23737   0.00000  Uiso   1.00
C733   C     0.81904   0.67880   0.26186   0.00000  Uiso   1.00
H734   H     0.79210   0.99847   0.28422   0.00000  Uiso   1.00
N735   N     0.89351   0.71087   0.02792   0.00000  Uiso   1.00
O736   O     0.88118   0.67859   0.04807   0.00000  Uiso   1.00
O737   O     0.92437   0.70843   0.49531   0.00000  Uiso   1.00
N738   N     0.69056   0.86285   0.20534   0.00000  Uiso   1.00
O739   O     0.68407   0.85749   0.17068   0.00000  Uiso   1.00
O740   O     0.72215   0.88997   0.21144   0.00000  Uiso   1.00
C741   C     0.97990   0.80326   0.29735   0.00000  Uiso   1.00
C742   C     0.97330   0.75939   0.29496   0.00000  Uiso   1.00
C743   C     0.94712   0.73919   0.32720   0.00000  Uiso   1.00
C744   C     0.92779   0.76265   0.36206   0.00000  Uiso   1.00
C745   C     0.93458   0.80638   0.36476   0.00000  Uiso   1.00
C746   C     0.96071   0.82672   0.33256   0.00000  Uiso   1.00
H747   H     0.98822   0.74093   0.26811   0.00000  Uiso   1.00
H748   H     0.94187   0.70535   0.32517   0.00000  Uiso   1.00
H749   H     0.90774   0.74688   0.38698   0.00000  Uiso   1.00
H750   H     0.91967   0.82451   0.39181   0.00000  Uiso   1.00
H751   H     0.96581   0.86059   0.33488   0.00000  Uiso   1.00
C752   C     0.88519   0.67431   0.20649   0.00000  Uiso   1.00
C753   C     0.88748   0.99675   0.16657   0.00000  Uiso   1.00
C754   C     0.92146   0.68154   0.13753   0.00000  Uiso   1.00
C755   C     0.95331   0.71059   0.14814   0.00000  Uiso   1.00
C756   C     0.95149   0.72126   0.18781   0.00000  Uiso   1.00
C757   C     0.91772   0.70300   0.21691   0.00000  Uiso   1.00
H758   H     0.86277   0.97457   0.15799   0.00000  Uiso   1.00
H759   H     0.92303   0.67318   0.10680   0.00000  Uiso   1.00
H760   H     0.97946   0.72473   0.12563   0.00000  Uiso   1.00
H761   H     0.97625   0.74365   0.19602   0.00000  Uiso   1.00
H762   H     0.91685   0.71123   0.24752   0.00000  Uiso   1.00
N763   N     0.79194   0.94009   0.39332   0.00000  Uiso   1.00
O764   O     0.82100   0.95185   0.36192   0.00000  Uiso   1.00
O765   O     0.76006   0.96216   0.40931   0.00000  Uiso   1.00
Zn766  Zn    0.19244   0.14090   0.78278   0.00000  Uiso   1.00
Zn767  Zn    0.13459   0.12378   0.72258   0.00000  Uiso   1.00
Zn768  Zn    0.21166   0.19664   0.71188   0.00000  Uiso   1.00
Zn769  Zn    0.12798   0.20535   0.78277   0.00000  Uiso   1.00
O770   O     0.16667   0.16667   0.75000   0.00000  Uiso   1.00
O771   O     0.06990   0.18960   0.77820   0.00000  Uiso   1.00
O772   O     0.25440   0.15277   0.76768   0.00000  Uiso   1.00
O773   O     0.13800   0.06903   0.73607   0.00000  Uiso   1.00
O774   O     0.20437   0.25527   0.71806   0.00000  Uiso   1.00
O775   O     0.15693   0.12393   0.66625   0.00000  Uiso   1.00
O776   O     0.12687   0.20646   0.83749   0.00000  Uiso   1.00
O777   O     0.21088   0.17493   0.65877   0.00000  Uiso   1.00
O778   O     0.17198   0.16135   0.83749   0.00000  Uiso   1.00
O779   O     0.17849   0.08101   0.77821   0.00000  Uiso   1.00
O780   O     0.14581   0.26136   0.76767   0.00000  Uiso   1.00
O781   O     0.07452   0.13251   0.73607   0.00000  Uiso   1.00
O782   O     0.26785   0.19179   0.71806   0.00000  Uiso   1.00
C783   C     0.05283   0.16001   0.75872   0.00000  Uiso   1.00
C784   C     0.28106   0.17322   0.74106   0.00000  Uiso   1.00
C785   C     0.15529   0.05629   0.75949   0.00000  Uiso   1.00
C786   C     0.17694   0.27768   0.74107   0.00000  Uiso   1.00
C787   C     0.18836   0.14500   0.64412   0.00000  Uiso   1.00
C788   C     0.14671   0.18892   0.85587   0.00000  Uiso   1.00
C789   C     0.14394   0.20295   0.89753   0.00000  Uiso   1.00
C790   C     0.19713   0.13514   0.60185   0.00000  Uiso   1.00
C791   C     0.13497   0.25543   0.95375   0.00000  Uiso   1.00
C792   C     0.13373   0.24328   0.91501   0.00000  Uiso   1.00
C793   C     0.15510   0.17601   0.91928   0.00000  Uiso   1.00
C794   C     0.15827   0.18850   0.95780   0.00000  Uiso   1.00
C795   C     0.14812   0.22906   0.97469   0.00000  Uiso   1.00
C796   C     0.17216   0.16241   0.97960   0.00000  Uiso   1.00
C797   C     0.17610   0.17775   0.51792   0.00000  Uiso   1.00
C798   C     0.16696   0.21904   0.53286   0.00000  Uiso   1.00
C799   C     0.15263   0.24378   0.51188   0.00000  Uiso   1.00
C800   C     0.18221   0.12154   0.96438   0.00000  Uiso   1.00
C801   C     0.19650   0.09675   0.98528   0.00000  Uiso   1.00
C802   C     0.20024   0.11079   0.52300   0.00000  Uiso   1.00
C803   C     0.18878   0.15123   0.54017   0.00000  Uiso   1.00
C804   C     0.21243   0.08403   0.54498   0.00000  Uiso   1.00
C805   C     0.20949   0.09618   0.58461   0.00000  Uiso   1.00
C806   C     0.18801   0.16276   0.57987   0.00000  Uiso   1.00
H807   H     0.14584   0.27516   0.52463   0.00000  Uiso   1.00
H808   H     0.17725   0.19163   0.59570   0.00000  Uiso   1.00
H809   H     0.21676   0.07515   0.60218   0.00000  Uiso   1.00
H810   H     0.20271   0.06549   0.97200   0.00000  Uiso   1.00
H811   H     0.12783   0.28663   0.96683   0.00000  Uiso   1.00
H812   H     0.16229   0.14568   0.90466   0.00000  Uiso   1.00
H813   H     0.17120   0.23380   0.56057   0.00000  Uiso   1.00
H814   H     0.17897   0.10702   0.93634   0.00000  Uiso   1.00
C815   C     0.32711   0.17553   0.73740   0.00000  Uiso   1.00
C816   C     0.00773   0.15784   0.76307   0.00000  Uiso   1.00
C817   C     0.18175   0.32240   0.73737   0.00000  Uiso   1.00
C818   C     0.15238   0.01213   0.76186   0.00000  Uiso   1.00
H819   H     0.12544   0.33180   0.78422   0.00000  Uiso   1.00
N820   N     0.22685   0.04420   0.52792   0.00000  Uiso   1.00
O821   O     0.21452   0.01193   0.54807   0.00000  Uiso   1.00
O822   O     0.25770   0.04177   0.99531   0.00000  Uiso   1.00
N823   N     0.02390   0.19619   0.70534   0.00000  Uiso   1.00
O824   O     0.01740   0.19082   0.67068   0.00000  Uiso   1.00
O825   O     0.05548   0.22330   0.71144   0.00000  Uiso   1.00
C826   C     0.31324   0.13659   0.79735   0.00000  Uiso   1.00
C827   C     0.30663   0.09272   0.79496   0.00000  Uiso   1.00
C828   C     0.28045   0.07253   0.82720   0.00000  Uiso   1.00
C829   C     0.26112   0.09599   0.86206   0.00000  Uiso   1.00
C830   C     0.26792   0.13972   0.86476   0.00000  Uiso   1.00
C831   C     0.29405   0.16005   0.83256   0.00000  Uiso   1.00
H832   H     0.32155   0.07426   0.76811   0.00000  Uiso   1.00
H833   H     0.27521   0.03868   0.82517   0.00000  Uiso   1.00
H834   H     0.24107   0.08022   0.88698   0.00000  Uiso   1.00
H835   H     0.25300   0.15784   0.89181   0.00000  Uiso   1.00
H836   H     0.29915   0.19393   0.83488   0.00000  Uiso   1.00
C837   C     0.21852   0.00764   0.70649   0.00000  Uiso   1.00
C838   C     0.22081   0.33009   0.66657   0.00000  Uiso   1.00
C839   C     0.25480   0.01487   0.63753   0.00000  Uiso   1.00
C840   C     0.28665   0.04393   0.64814   0.00000  Uiso   1.00
C841   C     0.28482   0.05459   0.68781   0.00000  Uiso   1.00
C842   C     0.25106   0.03633   0.71691   0.00000  Uiso   1.00
H843   H     0.19610   0.30790   0.65799   0.00000  Uiso   1.00
H844   H     0.25636   0.00651   0.60680   0.00000  Uiso   1.00
H845   H     0.31280   0.05807   0.62563   0.00000  Uiso   1.00
H846   H     0.30959   0.07698   0.69602   0.00000  Uiso   1.00
H847   H     0.25018   0.04456   0.74752   0.00000  Uiso   1.00
N848   N     0.12527   0.27343   0.89332   0.00000  Uiso   1.00
O849   O     0.15433   0.28519   0.86192   0.00000  Uiso   1.00
O850   O     0.09340   0.29549   0.90931   0.00000  Uiso   1.00
Zn851  Zn    0.52577   0.14090   0.78278   0.00000  Uiso   1.00
Zn852  Zn    0.46792   0.12378   0.72258   0.00000  Uiso   1.00
Zn853  Zn    0.54500   0.19664   0.71188   0.00000  Uiso   1.00
Zn854  Zn    0.46131   0.20535   0.78277   0.00000  Uiso   1.00
O855   O     0.50000   0.16667   0.75000   0.00000  Uiso   1.00
O856   O     0.40323   0.18960   0.77820   0.00000  Uiso   1.00
O857   O     0.58773   0.15277   0.76768   0.00000  Uiso   1.00
O858   O     0.47133   0.06903   0.73607   0.00000  Uiso   1.00
O859   O     0.53771   0.25527   0.71806   0.00000  Uiso   1.00
O860   O     0.49027   0.12393   0.66625   0.00000  Uiso   1.00
O861   O     0.46020   0.20646   0.83749   0.00000  Uiso   1.00
O862   O     0.54421   0.17493   0.65877   0.00000  Uiso   1.00
O863   O     0.50532   0.16135   0.83749   0.00000  Uiso   1.00
O864   O     0.51182   0.08101   0.77821   0.00000  Uiso   1.00
O865   O     0.47914   0.26136   0.76767   0.00000  Uiso   1.00
O866   O     0.40785   0.13251   0.73607   0.00000  Uiso   1.00
O867   O     0.60119   0.19179   0.71806   0.00000  Uiso   1.00
C868   C     0.38617   0.16001   0.75872   0.00000  Uiso   1.00
C869   C     0.61439   0.17322   0.74106   0.00000  Uiso   1.00
C870   C     0.48863   0.05629   0.75949   0.00000  Uiso   1.00
C871   C     0.51027   0.27768   0.74107   0.00000  Uiso   1.00
C872   C     0.52170   0.14500   0.64412   0.00000  Uiso   1.00
C873   C     0.48005   0.18892   0.85587   0.00000  Uiso   1.00
C874   C     0.47727   0.20295   0.89753   0.00000  Uiso   1.00
C875   C     0.53046   0.13514   0.60185   0.00000  Uiso   1.00
C876   C     0.46830   0.25543   0.95375   0.00000  Uiso   1.00
C877   C     0.46707   0.24328   0.91501   0.00000  Uiso   1.00
C878   C     0.48844   0.17601   0.91928   0.00000  Uiso   1.00
C879   C     0.49160   0.18850   0.95780   0.00000  Uiso   1.00
C880   C     0.48145   0.22906   0.97469   0.00000  Uiso   1.00
C881   C     0.50550   0.16241   0.97960   0.00000  Uiso   1.00
C882   C     0.50943   0.17775   0.51792   0.00000  Uiso   1.00
C883   C     0.50029   0.21904   0.53286   0.00000  Uiso   1.00
C884   C     0.48597   0.24378   0.51188   0.00000  Uiso   1.00
C885   C     0.51555   0.12154   0.96438   0.00000  Uiso   1.00
C886   C     0.52984   0.09675   0.98528   0.00000  Uiso   1.00
C887   C     0.53357   0.11079   0.52300   0.00000  Uiso   1.00
C888   C     0.52212   0.15123   0.54017   0.00000  Uiso   1.00
C889   C     0.54576   0.08403   0.54498   0.00000  Uiso   1.00
C890   C     0.54282   0.09618   0.58461   0.00000  Uiso   1.00
C891   C     0.52135   0.16276   0.57987   0.00000  Uiso   1.00
H892   H     0.47917   0.27516   0.52463   0.00000  Uiso   1.00
H893   H     0.51059   0.19163   0.59570   0.00000  Uiso   1.00
H894   H     0.55009   0.07515   0.60218   0.00000  Uiso   1.00
H895   H     0.53605   0.06549   0.97200   0.00000  Uiso   1.00
H896   H     0.46116   0.28663   0.96683   0.00000  Uiso   1.00
H897   H     0.49562   0.14568   0.90466   0.00000  Uiso   1.00
H898   H     0.50453   0.23380   0.56057   0.00000  Uiso   1.00
H899   H     0.51231   0.10702   0.93634   0.00000  Uiso   1.00
C900   C     0.66045   0.17553   0.73740   0.00000  Uiso   1.00
C901   C     0.34106   0.15784   0.76307   0.00000  Uiso   1.00
C902   C     0.51509   0.32240   0.73737   0.00000  Uiso   1.00
C903   C     0.48571   0.01213   0.76186   0.00000  Uiso   1.00
H904   H     0.45877   0.33180   0.78422   0.00000  Uiso   1.00
N905   N     0.56018   0.04420   0.52792   0.00000  Uiso   1.00
O906   O     0.54785   0.01193   0.54807   0.00000  Uiso   1.00
O907   O     0.59104   0.04177   0.99531   0.00000  Uiso   1.00
N908   N     0.35723   0.19619   0.70534   0.00000  Uiso   1.00
O909   O     0.35073   0.19082   0.67068   0.00000  Uiso   1.00
O910   O     0.38881   0.22330   0.71144   0.00000  Uiso   1.00
C911   C     0.64657   0.13659   0.79735   0.00000  Uiso   1.00
C912   C     0.63997   0.09272   0.79496   0.00000  Uiso   1.00
C913   C     0.61379   0.07253   0.82720   0.00000  Uiso   1.00
C914   C     0.59446   0.09599   0.86206   0.00000  Uiso   1.00
C915   C     0.60125   0.13972   0.86476   0.00000  Uiso   1.00
C916   C     0.62738   0.16005   0.83256   0.00000  Uiso   1.00
H917   H     0.65489   0.07426   0.76811   0.00000  Uiso   1.00
H918   H     0.60854   0.03868   0.82517   0.00000  Uiso   1.00
H919   H     0.57440   0.08022   0.88698   0.00000  Uiso   1.00
H920   H     0.58634   0.15784   0.89181   0.00000  Uiso   1.00
H921   H     0.63248   0.19393   0.83488   0.00000  Uiso   1.00
C922   C     0.55186   0.00764   0.70649   0.00000  Uiso   1.00
C923   C     0.55415   0.33009   0.66657   0.00000  Uiso   1.00
C924   C     0.58813   0.01487   0.63753   0.00000  Uiso   1.00
C925   C     0.61998   0.04393   0.64814   0.00000  Uiso   1.00
C926   C     0.61816   0.05459   0.68781   0.00000  Uiso   1.00
C927   C     0.58439   0.03633   0.71691   0.00000  Uiso   1.00
H928   H     0.52944   0.30790   0.65799   0.00000  Uiso   1.00
H929   H     0.58970   0.00651   0.60680   0.00000  Uiso   1.00
H930   H     0.64613   0.05807   0.62563   0.00000  Uiso   1.00
H931   H     0.64292   0.07698   0.69602   0.00000  Uiso   1.00
H932   H     0.58351   0.04456   0.74752   0.00000  Uiso   1.00
N933   N     0.45861   0.27343   0.89332   0.00000  Uiso   1.00
O934   O     0.48766   0.28519   0.86192   0.00000  Uiso   1.00
O935   O     0.42673   0.29549   0.90931   0.00000  Uiso   1.00
Zn936  Zn    0.85910   0.14090   0.78278   0.00000  Uiso   1.00
Zn937  Zn    0.80125   0.12378   0.72258   0.00000  Uiso   1.00
Zn938  Zn    0.87833   0.19664   0.71188   0.00000  Uiso   1.00
Zn939  Zn    0.79465   0.20535   0.78277   0.00000  Uiso   1.00
O940   O     0.83333   0.16667   0.75000   0.00000  Uiso   1.00
O941   O     0.73656   0.18960   0.77820   0.00000  Uiso   1.00
O942   O     0.92106   0.15277   0.76768   0.00000  Uiso   1.00
O943   O     0.80467   0.06903   0.73607   0.00000  Uiso   1.00
O944   O     0.87104   0.25527   0.71806   0.00000  Uiso   1.00
O945   O     0.82360   0.12393   0.66625   0.00000  Uiso   1.00
O946   O     0.79354   0.20646   0.83749   0.00000  Uiso   1.00
O947   O     0.87755   0.17493   0.65877   0.00000  Uiso   1.00
O948   O     0.83865   0.16135   0.83749   0.00000  Uiso   1.00
O949   O     0.84515   0.08101   0.77821   0.00000  Uiso   1.00
O950   O     0.81247   0.26136   0.76767   0.00000  Uiso   1.00
O951   O     0.74119   0.13251   0.73607   0.00000  Uiso   1.00
O952   O     0.93452   0.19179   0.71806   0.00000  Uiso   1.00
C953   C     0.71950   0.16001   0.75872   0.00000  Uiso   1.00
C954   C     0.94773   0.17322   0.74106   0.00000  Uiso   1.00
C955   C     0.82196   0.05629   0.75949   0.00000  Uiso   1.00
C956   C     0.84360   0.27768   0.74107   0.00000  Uiso   1.00
C957   C     0.85503   0.14500   0.64412   0.00000  Uiso   1.00
C958   C     0.81338   0.18892   0.85587   0.00000  Uiso   1.00
C959   C     0.81060   0.20295   0.89753   0.00000  Uiso   1.00
C960   C     0.86379   0.13514   0.60185   0.00000  Uiso   1.00
C961   C     0.80163   0.25543   0.95375   0.00000  Uiso   1.00
C962   C     0.80040   0.24328   0.91501   0.00000  Uiso   1.00
C963   C     0.82177   0.17601   0.91928   0.00000  Uiso   1.00
C964   C     0.82493   0.18850   0.95780   0.00000  Uiso   1.00
C965   C     0.81479   0.22906   0.97469   0.00000  Uiso   1.00
C966   C     0.83883   0.16241   0.97960   0.00000  Uiso   1.00
C967   C     0.84277   0.17775   0.51792   0.00000  Uiso   1.00
C968   C     0.83362   0.21904   0.53286   0.00000  Uiso   1.00
C969   C     0.81930   0.24378   0.51188   0.00000  Uiso   1.00
C970   C     0.84888   0.12154   0.96438   0.00000  Uiso   1.00
C971   C     0.86317   0.09675   0.98528   0.00000  Uiso   1.00
C972   C     0.86690   0.11079   0.52300   0.00000  Uiso   1.00
C973   C     0.85545   0.15123   0.54017   0.00000  Uiso   1.00
C974   C     0.87910   0.08403   0.54498   0.00000  Uiso   1.00
C975   C     0.87615   0.09618   0.58461   0.00000  Uiso   1.00
C976   C     0.85468   0.16276   0.57987   0.00000  Uiso   1.00
H977   H     0.81250   0.27516   0.52463   0.00000  Uiso   1.00
H978   H     0.84392   0.19163   0.59570   0.00000  Uiso   1.00
H979   H     0.88342   0.07515   0.60218   0.00000  Uiso   1.00
H980   H     0.86938   0.06549   0.97200   0.00000  Uiso   1.00
H981   H     0.79449   0.28663   0.96683   0.00000  Uiso   1.00
H982   H     0.82896   0.14568   0.90466   0.00000  Uiso   1.00
H983   H     0.83786   0.23380   0.56057   0.00000  Uiso   1.00
H984   H     0.84564   0.10702   0.93634   0.00000  Uiso   1.00
C985   C     0.99378   0.17553   0.73740   0.00000  Uiso   1.00
C986   C     0.67440   0.15784   0.76307   0.00000  Uiso   1.00
C987   C     0.84842   0.32240   0.73737   0.00000  Uiso   1.00
C988   C     0.81904   0.01213   0.76186   0.00000  Uiso   1.00
H989   H     0.79210   0.33180   0.78422   0.00000  Uiso   1.00
N990   N     0.89351   0.04420   0.52792   0.00000  Uiso   1.00
O991   O     0.88118   0.01193   0.54807   0.00000  Uiso   1.00
O992   O     0.92437   0.04177   0.99531   0.00000  Uiso   1.00
N993   N     0.69056   0.19619   0.70534   0.00000  Uiso   1.00
O994   O     0.68407   0.19082   0.67068   0.00000  Uiso   1.00
O995   O     0.72215   0.22330   0.71144   0.00000  Uiso   1.00
C996   C     0.97990   0.13659   0.79735   0.00000  Uiso   1.00
C997   C     0.97330   0.09272   0.79496   0.00000  Uiso   1.00
C998   C     0.94712   0.07253   0.82720   0.00000  Uiso   1.00
C999   C     0.92779   0.09599   0.86206   0.00000  Uiso   1.00
C1000  C     0.93458   0.13972   0.86476   0.00000  Uiso   1.00
C1001  C     0.96071   0.16005   0.83256   0.00000  Uiso   1.00
H1002  H     0.98822   0.07426   0.76811   0.00000  Uiso   1.00
H1003  H     0.94187   0.03868   0.82517   0.00000  Uiso   1.00
H1004  H     0.90774   0.08022   0.88698   0.00000  Uiso   1.00
H1005  H     0.91967   0.15784   0.89181   0.00000  Uiso   1.00
H1006  H     0.96581   0.19393   0.83488   0.00000  Uiso   1.00
C1007  C     0.88519   0.00764   0.70649   0.00000  Uiso   1.00
C1008  C     0.88748   0.33009   0.66657   0.00000  Uiso   1.00
C1009  C     0.92146   0.01487   0.63753   0.00000  Uiso   1.00
C1010  C     0.95331   0.04393   0.64814   0.00000  Uiso   1.00
C1011  C     0.95149   0.05459   0.68781   0.00000  Uiso   1.00
C1012  C     0.91772   0.03633   0.71691   0.00000  Uiso   1.00
H1013  H     0.86277   0.30790   0.65799   0.00000  Uiso   1.00
H1014  H     0.92303   0.00651   0.60680   0.00000  Uiso   1.00
H1015  H     0.97946   0.05807   0.62563   0.00000  Uiso   1.00
H1016  H     0.97625   0.07698   0.69602   0.00000  Uiso   1.00
H1017  H     0.91685   0.04456   0.74752   0.00000  Uiso   1.00
N1018  N     0.79194   0.27343   0.89332   0.00000  Uiso   1.00
O1019  O     0.82100   0.28519   0.86192   0.00000  Uiso   1.00
O1020  O     0.76006   0.29549   0.90931   0.00000  Uiso   1.00
Zn1021 Zn    0.19244   0.47423   0.78278   0.00000  Uiso   1.00
Zn1022 Zn    0.13459   0.45711   0.72258   0.00000  Uiso   1.00
Zn1023 Zn    0.21166   0.52997   0.71188   0.00000  Uiso   1.00
Zn1024 Zn    0.12798   0.53868   0.78277   0.00000  Uiso   1.00
O1025  O     0.16667   0.50000   0.75000   0.00000  Uiso   1.00
O1026  O     0.06990   0.52293   0.77820   0.00000  Uiso   1.00
O1027  O     0.25440   0.48610   0.76768   0.00000  Uiso   1.00
O1028  O     0.13800   0.40236   0.73607   0.00000  Uiso   1.00
O1029  O     0.20437   0.58860   0.71806   0.00000  Uiso   1.00
O1030  O     0.15693   0.45726   0.66625   0.00000  Uiso   1.00
O1031  O     0.12687   0.53979   0.83749   0.00000  Uiso   1.00
O1032  O     0.21088   0.50826   0.65877   0.00000  Uiso   1.00
O1033  O     0.17198   0.49468   0.83749   0.00000  Uiso   1.00
O1034  O     0.17849   0.41434   0.77821   0.00000  Uiso   1.00
O1035  O     0.14581   0.59469   0.76767   0.00000  Uiso   1.00
O1036  O     0.07452   0.46584   0.73607   0.00000  Uiso   1.00
O1037  O     0.26785   0.52512   0.71806   0.00000  Uiso   1.00
C1038  C     0.05283   0.49334   0.75872   0.00000  Uiso   1.00
C1039  C     0.28106   0.50656   0.74106   0.00000  Uiso   1.00
C1040  C     0.15529   0.38962   0.75949   0.00000  Uiso   1.00
C1041  C     0.17694   0.61101   0.74107   0.00000  Uiso   1.00
C1042  C     0.18836   0.47833   0.64412   0.00000  Uiso   1.00
C1043  C     0.14671   0.52226   0.85587   0.00000  Uiso   1.00
C1044  C     0.14394   0.53628   0.89753   0.00000  Uiso   1.00
C1045  C     0.19713   0.46848   0.60185   0.00000  Uiso   1.00
C1046  C     0.13497   0.58876   0.95375   0.00000  Uiso   1.00
C1047  C     0.13373   0.57661   0.91501   0.00000  Uiso   1.00
C1048  C     0.15510   0.50934   0.91928   0.00000  Uiso   1.00
C1049  C     0.15827   0.52183   0.95780   0.00000  Uiso   1.00
C1050  C     0.14812   0.56239   0.97469   0.00000  Uiso   1.00
C1051  C     0.17216   0.49575   0.97960   0.00000  Uiso   1.00
C1052  C     0.17610   0.51109   0.51792   0.00000  Uiso   1.00
C1053  C     0.16696   0.55238   0.53286   0.00000  Uiso   1.00
C1054  C     0.15263   0.57712   0.51188   0.00000  Uiso   1.00
C1055  C     0.18221   0.45487   0.96438   0.00000  Uiso   1.00
C1056  C     0.19650   0.43008   0.98528   0.00000  Uiso   1.00
C1057  C     0.20024   0.44413   0.52300   0.00000  Uiso   1.00
C1058  C     0.18878   0.48457   0.54017   0.00000  Uiso   1.00
C1059  C     0.21243   0.41737   0.54498   0.00000  Uiso   1.00
C1060  C     0.20949   0.42951   0.58461   0.00000  Uiso   1.00
C1061  C     0.18801   0.49609   0.57987   0.00000  Uiso   1.00
H1062  H     0.14584   0.60849   0.52463   0.00000  Uiso   1.00
H1063  H     0.17725   0.52496   0.59570   0.00000  Uiso   1.00
H1064  H     0.21676   0.40848   0.60218   0.00000  Uiso   1.00
H1065  H     0.20271   0.39883   0.97200   0.00000  Uiso   1.00
H1066  H     0.12783   0.61997   0.96683   0.00000  Uiso   1.00
H1067  H     0.16229   0.47902   0.90466   0.00000  Uiso   1.00
H1068  H     0.17120   0.56713   0.56057   0.00000  Uiso   1.00
H1069  H     0.17897   0.44036   0.93634   0.00000  Uiso   1.00
C1070  C     0.32711   0.50886   0.73740   0.00000  Uiso   1.00
C1071  C     0.00773   0.49117   0.76307   0.00000  Uiso   1.00
C1072  C     0.18175   0.65574   0.73737   0.00000  Uiso   1.00
C1073  C     0.15238   0.34546   0.76186   0.00000  Uiso   1.00
H1074  H     0.12544   0.66513   0.78422   0.00000  Uiso   1.00
N1075  N     0.22685   0.37754   0.52792   0.00000  Uiso   1.00
O1076  O     0.21452   0.34526   0.54807   0.00000  Uiso   1.00
O1077  O     0.25770   0.37510   0.99531   0.00000  Uiso   1.00
N1078  N     0.02390   0.52952   0.70534   0.00000  Uiso   1.00
O1079  O     0.01740   0.52416   0.67068   0.00000  Uiso   1.00
O1080  O     0.05548   0.55663   0.71144   0.00000  Uiso   1.00
C1081  C     0.31324   0.46993   0.79735   0.00000  Uiso   1.00
C1082  C     0.30663   0.42605   0.79496   0.00000  Uiso   1.00
C1083  C     0.28045   0.40586   0.82720   0.00000  Uiso   1.00
C1084  C     0.26112   0.42932   0.86206   0.00000  Uiso   1.00
C1085  C     0.26792   0.47305   0.86476   0.00000  Uiso   1.00
C1086  C     0.29405   0.49339   0.83256   0.00000  Uiso   1.00
H1087  H     0.32155   0.40760   0.76811   0.00000  Uiso   1.00
H1088  H     0.27521   0.37202   0.82517   0.00000  Uiso   1.00
H1089  H     0.24107   0.41355   0.88698   0.00000  Uiso   1.00
H1090  H     0.25300   0.49117   0.89181   0.00000  Uiso   1.00
H1091  H     0.29915   0.52726   0.83488   0.00000  Uiso   1.00
C1092  C     0.21852   0.34097   0.70649   0.00000  Uiso   1.00
C1093  C     0.22081   0.66342   0.66657   0.00000  Uiso   1.00
C1094  C     0.25480   0.34821   0.63753   0.00000  Uiso   1.00
C1095  C     0.28665   0.37726   0.64814   0.00000  Uiso   1.00
C1096  C     0.28482   0.38793   0.68781   0.00000  Uiso   1.00
C1097  C     0.25106   0.36967   0.71691   0.00000  Uiso   1.00
H1098  H     0.19610   0.64123   0.65799   0.00000  Uiso   1.00
H1099  H     0.25636   0.33984   0.60680   0.00000  Uiso   1.00
H1100  H     0.31280   0.39140   0.62563   0.00000  Uiso   1.00
H1101  H     0.30959   0.41032   0.69602   0.00000  Uiso   1.00
H1102  H     0.25018   0.37789   0.74752   0.00000  Uiso   1.00
N1103  N     0.12527   0.60676   0.89332   0.00000  Uiso   1.00
O1104  O     0.15433   0.61852   0.86192   0.00000  Uiso   1.00
O1105  O     0.09340   0.62882   0.90931   0.00000  Uiso   1.00
Zn1106 Zn    0.52577   0.47423   0.78278   0.00000  Uiso   1.00
Zn1107 Zn    0.46792   0.45711   0.72258   0.00000  Uiso   1.00
Zn1108 Zn    0.54500   0.52997   0.71188   0.00000  Uiso   1.00
Zn1109 Zn    0.46131   0.53868   0.78277   0.00000  Uiso   1.00
O1110  O     0.50000   0.50000   0.75000   0.00000  Uiso   1.00
O1111  O     0.40323   0.52293   0.77820   0.00000  Uiso   1.00
O1112  O     0.58773   0.48610   0.76768   0.00000  Uiso   1.00
O1113  O     0.47133   0.40236   0.73607   0.00000  Uiso   1.00
O1114  O     0.53771   0.58860   0.71806   0.00000  Uiso   1.00
O1115  O     0.49027   0.45726   0.66625   0.00000  Uiso   1.00
O1116  O     0.46020   0.53979   0.83749   0.00000  Uiso   1.00
O1117  O     0.54421   0.50826   0.65877   0.00000  Uiso   1.00
O1118  O     0.50532   0.49468   0.83749   0.00000  Uiso   1.00
O1119  O     0.51182   0.41434   0.77821   0.00000  Uiso   1.00
O1120  O     0.47914   0.59469   0.76767   0.00000  Uiso   1.00
O1121  O     0.40785   0.46584   0.73607   0.00000  Uiso   1.00
O1122  O     0.60119   0.52512   0.71806   0.00000  Uiso   1.00
C1123  C     0.38617   0.49334   0.75872   0.00000  Uiso   1.00
C1124  C     0.61439   0.50656   0.74106   0.00000  Uiso   1.00
C1125  C     0.48863   0.38962   0.75949   0.00000  Uiso   1.00
C1126  C     0.51027   0.61101   0.74107   0.00000  Uiso   1.00
C1127  C     0.52170   0.47833   0.64412   0.00000  Uiso   1.00
C1128  C     0.48005   0.52226   0.85587   0.00000  Uiso   1.00
C1129  C     0.47727   0.53628   0.89753   0.00000  Uiso   1.00
C1130  C     0.53046   0.46848   0.60185   0.00000  Uiso   1.00
C1131  C     0.46830   0.58876   0.95375   0.00000  Uiso   1.00
C1132  C     0.46707   0.57661   0.91501   0.00000  Uiso   1.00
C1133  C     0.48844   0.50934   0.91928   0.00000  Uiso   1.00
C1134  C     0.49160   0.52183   0.95780   0.00000  Uiso   1.00
C1135  C     0.48145   0.56239   0.97469   0.00000  Uiso   1.00
C1136  C     0.50550   0.49575   0.97960   0.00000  Uiso   1.00
C1137  C     0.50943   0.51109   0.51792   0.00000  Uiso   1.00
C1138  C     0.50029   0.55238   0.53286   0.00000  Uiso   1.00
C1139  C     0.48597   0.57712   0.51188   0.00000  Uiso   1.00
C1140  C     0.51555   0.45487   0.96438   0.00000  Uiso   1.00
C1141  C     0.52984   0.43008   0.98528   0.00000  Uiso   1.00
C1142  C     0.53357   0.44413   0.52300   0.00000  Uiso   1.00
C1143  C     0.52212   0.48457   0.54017   0.00000  Uiso   1.00
C1144  C     0.54576   0.41737   0.54498   0.00000  Uiso   1.00
C1145  C     0.54282   0.42951   0.58461   0.00000  Uiso   1.00
C1146  C     0.52135   0.49609   0.57987   0.00000  Uiso   1.00
H1147  H     0.47917   0.60849   0.52463   0.00000  Uiso   1.00
H1148  H     0.51059   0.52496   0.59570   0.00000  Uiso   1.00
H1149  H     0.55009   0.40848   0.60218   0.00000  Uiso   1.00
H1150  H     0.53605   0.39883   0.97200   0.00000  Uiso   1.00
H1151  H     0.46116   0.61997   0.96683   0.00000  Uiso   1.00
H1152  H     0.49562   0.47902   0.90466   0.00000  Uiso   1.00
H1153  H     0.50453   0.56713   0.56057   0.00000  Uiso   1.00
H1154  H     0.51231   0.44036   0.93634   0.00000  Uiso   1.00
C1155  C     0.66045   0.50886   0.73740   0.00000  Uiso   1.00
C1156  C     0.34106   0.49117   0.76307   0.00000  Uiso   1.00
C1157  C     0.51509   0.65574   0.73737   0.00000  Uiso   1.00
C1158  C     0.48571   0.34546   0.76186   0.00000  Uiso   1.00
H1159  H     0.45877   0.66513   0.78422   0.00000  Uiso   1.00
N1160  N     0.56018   0.37754   0.52792   0.00000  Uiso   1.00
O1161  O     0.54785   0.34526   0.54807   0.00000  Uiso   1.00
O1162  O     0.59104   0.37510   0.99531   0.00000  Uiso   1.00
N1163  N     0.35723   0.52952   0.70534   0.00000  Uiso   1.00
O1164  O     0.35073   0.52416   0.67068   0.00000  Uiso   1.00
O1165  O     0.38881   0.55663   0.71144   0.00000  Uiso   1.00
C1166  C     0.64657   0.46993   0.79735   0.00000  Uiso   1.00
C1167  C     0.63997   0.42605   0.79496   0.00000  Uiso   1.00
C1168  C     0.61379   0.40586   0.82720   0.00000  Uiso   1.00
C1169  C     0.59446   0.42932   0.86206   0.00000  Uiso   1.00
C1170  C     0.60125   0.47305   0.86476   0.00000  Uiso   1.00
C1171  C     0.62738   0.49339   0.83256   0.00000  Uiso   1.00
H1172  H     0.65489   0.40760   0.76811   0.00000  Uiso   1.00
H1173  H     0.60854   0.37202   0.82517   0.00000  Uiso   1.00
H1174  H     0.57440   0.41355   0.88698   0.00000  Uiso   1.00
H1175  H     0.58634   0.49117   0.89181   0.00000  Uiso   1.00
H1176  H     0.63248   0.52726   0.83488   0.00000  Uiso   1.00
C1177  C     0.55186   0.34097   0.70649   0.00000  Uiso   1.00
C1178  C     0.55415   0.66342   0.66657   0.00000  Uiso   1.00
C1179  C     0.58813   0.34821   0.63753   0.00000  Uiso   1.00
C1180  C     0.61998   0.37726   0.64814   0.00000  Uiso   1.00
C1181  C     0.61816   0.38793   0.68781   0.00000  Uiso   1.00
C1182  C     0.58439   0.36967   0.71691   0.00000  Uiso   1.00
H1183  H     0.52944   0.64123   0.65799   0.00000  Uiso   1.00
H1184  H     0.58970   0.33984   0.60680   0.00000  Uiso   1.00
H1185  H     0.64613   0.39140   0.62563   0.00000  Uiso   1.00
H1186  H     0.64292   0.41032   0.69602   0.00000  Uiso   1.00
H1187  H     0.58351   0.37789   0.74752   0.00000  Uiso   1.00
N1188  N     0.45861   0.60676   0.89332   0.00000  Uiso   1.00
O1189  O     0.48766   0.61852   0.86192   0.00000  Uiso   1.00
O1190  O     0.42673   0.62882   0.90931   0.00000  Uiso   1.00
Zn1191 Zn    0.85910   0.47423   0.78278   0.00000  Uiso   1.00
Zn1192 Zn    0.80125   0.45711   0.72258   0.00000  Uiso   1.00
Zn1193 Zn    0.87833   0.52997   0.71188   0.00000  Uiso   1.00
Zn1194 Zn    0.79465   0.53868   0.78277   0.00000  Uiso   1.00
O1195  O     0.83333   0.50000   0.75000   0.00000  Uiso   1.00
O1196  O     0.73656   0.52293   0.77820   0.00000  Uiso   1.00
O1197  O     0.92106   0.48610   0.76768   0.00000  Uiso   1.00
O1198  O     0.80467   0.40236   0.73607   0.00000  Uiso   1.00
O1199  O     0.87104   0.58860   0.71806   0.00000  Uiso   1.00
O1200  O     0.82360   0.45726   0.66625   0.00000  Uiso   1.00
O1201  O     0.79354   0.53979   0.83749   0.00000  Uiso   1.00
O1202  O     0.87755   0.50826   0.65877   0.00000  Uiso   1.00
O1203  O     0.83865   0.49468   0.83749   0.00000  Uiso   1.00
O1204  O     0.84515   0.41434   0.77821   0.00000  Uiso   1.00
O1205  O     0.81247   0.59469   0.76767   0.00000  Uiso   1.00
O1206  O     0.74119   0.46584   0.73607   0.00000  Uiso   1.00
O1207  O     0.93452   0.52512   0.71806   0.00000  Uiso   1.00
C1208  C     0.71950   0.49334   0.75872   0.00000  Uiso   1.00
C1209  C     0.94773   0.50656   0.74106   0.00000  Uiso   1.00
C1210  C     0.82196   0.38962   0.75949   0.00000  Uiso   1.00
C1211  C     0.84360   0.61101   0.74107   0.00000  Uiso   1.00
C1212  C     0.85503   0.47833   0.64412   0.00000  Uiso   1.00
C1213  C     0.81338   0.52226   0.85587   0.00000  Uiso   1.00
C1214  C     0.81060   0.53628   0.89753   0.00000  Uiso   1.00
C1215  C     0.86379   0.46848   0.60185   0.00000  Uiso   1.00
C1216  C     0.80163   0.58876   0.95375   0.00000  Uiso   1.00
C1217  C     0.80040   0.57661   0.91501   0.00000  Uiso   1.00
C1218  C     0.82177   0.50934   0.91928   0.00000  Uiso   1.00
C1219  C     0.82493   0.52183   0.95780   0.00000  Uiso   1.00
C1220  C     0.81479   0.56239   0.97469   0.00000  Uiso   1.00
C1221  C     0.83883   0.49575   0.97960   0.00000  Uiso   1.00
C1222  C     0.84277   0.51109   0.51792   0.00000  Uiso   1.00
C1223  C     0.83362   0.55238   0.53286   0.00000  Uiso   1.00
C1224  C     0.81930   0.57712   0.51188   0.00000  Uiso   1.00
C1225  C     0.84888   0.45487   0.96438   0.00000  Uiso   1.00
C1226  C     0.86317   0.43008   0.98528   0.00000  Uiso   1.00
C1227  C     0.86690   0.44413   0.52300   0.00000  Uiso   1.00
C1228  C     0.85545   0.48457   0.54017   0.00000  Uiso   1.00
C1229  C     0.87910   0.41737   0.54498   0.00000  Uiso   1.00
C1230  C     0.87615   0.42951   0.58461   0.00000  Uiso   1.00
C1231  C     0.85468   0.49609   0.57987   0.00000  Uiso   1.00
H1232  H     0.81250   0.60849   0.52463   0.00000  Uiso   1.00
H1233  H     0.84392   0.52496   0.59570   0.00000  Uiso   1.00
H1234  H     0.88342   0.40848   0.60218   0.00000  Uiso   1.00
H1235  H     0.86938   0.39883   0.97200   0.00000  Uiso   1.00
H1236  H     0.79449   0.61997   0.96683   0.00000  Uiso   1.00
H1237  H     0.82896   0.47902   0.90466   0.00000  Uiso   1.00
H1238  H     0.83786   0.56713   0.56057   0.00000  Uiso   1.00
H1239  H     0.84564   0.44036   0.93634   0.00000  Uiso   1.00
C1240  C     0.99378   0.50886   0.73740   0.00000  Uiso   1.00
C1241  C     0.67440   0.49117   0.76307   0.00000  Uiso   1.00
C1242  C     0.84842   0.65574   0.73737   0.00000  Uiso   1.00
C1243  C     0.81904   0.34546   0.76186   0.00000  Uiso   1.00
H1244  H     0.79210   0.66513   0.78422   0.00000  Uiso   1.00
N1245  N     0.89351   0.37754   0.52792   0.00000  Uiso   1.00
O1246  O     0.88118   0.34526   0.54807   0.00000  Uiso   1.00
O1247  O     0.92437   0.37510   0.99531   0.00000  Uiso   1.00
N1248  N     0.69056   0.52952   0.70534   0.00000  Uiso   1.00
O1249  O     0.68407   0.52416   0.67068   0.00000  Uiso   1.00
O1250  O     0.72215   0.55663   0.71144   0.00000  Uiso   1.00
C1251  C     0.97990   0.46993   0.79735   0.00000  Uiso   1.00
C1252  C     0.97330   0.42605   0.79496   0.00000  Uiso   1.00
C1253  C     0.94712   0.40586   0.82720   0.00000  Uiso   1.00
C1254  C     0.92779   0.42932   0.86206   0.00000  Uiso   1.00
C1255  C     0.93458   0.47305   0.86476   0.00000  Uiso   1.00
C1256  C     0.96071   0.49339   0.83256   0.00000  Uiso   1.00
H1257  H     0.98822   0.40760   0.76811   0.00000  Uiso   1.00
H1258  H     0.94187   0.37202   0.82517   0.00000  Uiso   1.00
H1259  H     0.90774   0.41355   0.88698   0.00000  Uiso   1.00
H1260  H     0.91967   0.49117   0.89181   0.00000  Uiso   1.00
H1261  H     0.96581   0.52726   0.83488   0.00000  Uiso   1.00
C1262  C     0.88519   0.34097   0.70649   0.00000  Uiso   1.00
C1263  C     0.88748   0.66342   0.66657   0.00000  Uiso   1.00
C1264  C     0.92146   0.34821   0.63753   0.00000  Uiso   1.00
C1265  C     0.95331   0.37726   0.64814   0.00000  Uiso   1.00
C1266  C     0.95149   0.38793   0.68781   0.00000  Uiso   1.00
C1267  C     0.91772   0.36967   0.71691   0.00000  Uiso   1.00
H1268  H     0.86277   0.64123   0.65799   0.00000  Uiso   1.00
H1269  H     0.92303   0.33984   0.60680   0.00000  Uiso   1.00
H1270  H     0.97946   0.39140   0.62563   0.00000  Uiso   1.00
H1271  H     0.97625   0.41032   0.69602   0.00000  Uiso   1.00
H1272  H     0.91685   0.37789   0.74752   0.00000  Uiso   1.00
N1273  N     0.79194   0.60676   0.89332   0.00000  Uiso   1.00
O1274  O     0.82100   0.61852   0.86192   0.00000  Uiso   1.00
O1275  O     0.76006   0.62882   0.90931   0.00000  Uiso   1.00
Zn1276 Zn    0.19244   0.80756   0.78278   0.00000  Uiso   1.00
Zn1277 Zn    0.13459   0.79044   0.72258   0.00000  Uiso   1.00
Zn1278 Zn    0.21166   0.86331   0.71188   0.00000  Uiso   1.00
Zn1279 Zn    0.12798   0.87202   0.78277   0.00000  Uiso   1.00
O1280  O     0.16667   0.83333   0.75000   0.00000  Uiso   1.00
O1281  O     0.06990   0.85627   0.77820   0.00000  Uiso   1.00
O1282  O     0.25440   0.81944   0.76768   0.00000  Uiso   1.00
O1283  O     0.13800   0.73570   0.73607   0.00000  Uiso   1.00
O1284  O     0.20437   0.92193   0.71806   0.00000  Uiso   1.00
O1285  O     0.15693   0.79060   0.66625   0.00000  Uiso   1.00
O1286  O     0.12687   0.87313   0.83749   0.00000  Uiso   1.00
O1287  O     0.21088   0.84159   0.65877   0.00000  Uiso   1.00
O1288  O     0.17198   0.82802   0.83749   0.00000  Uiso   1.00
O1289  O     0.17849   0.74768   0.77821   0.00000  Uiso   1.00
O1290  O     0.14581   0.92803   0.76767   0.00000  Uiso   1.00
O1291  O     0.07452   0.79917   0.73607   0.00000  Uiso   1.00
O1292  O     0.26785   0.85845   0.71806   0.00000  Uiso   1.00
C1293  C     0.05283   0.82668   0.75872   0.00000  Uiso   1.00
C1294  C     0.28106   0.83989   0.74106   0.00000  Uiso   1.00
C1295  C     0.15529   0.72296   0.75949   0.00000  Uiso   1.00
C1296  C     0.17694   0.94435   0.74107   0.00000  Uiso   1.00
C1297  C     0.18836   0.81167   0.64412   0.00000  Uiso   1.00
C1298  C     0.14671   0.85559   0.85587   0.00000  Uiso   1.00
C1299  C     0.14394   0.86962   0.89753   0.00000  Uiso   1.00
C1300  C     0.19713   0.80181   0.60185   0.00000  Uiso   1.00
C1301  C     0.13497   0.92210   0.95375   0.00000  Uiso   1.00
C1302  C     0.13373   0.90995   0.91501   0.00000  Uiso   1.00
C1303  C     0.15510   0.84267   0.91928   0.00000  Uiso   1.00
C1304  C     0.15827   0.85517   0.95780   0.00000  Uiso   1.00
C1305  C     0.14812   0.89573   0.97469   0.00000  Uiso   1.00
C1306  C     0.17216   0.82908   0.97960   0.00000  Uiso   1.00
C1307  C     0.17610   0.84442   0.51792   0.00000  Uiso   1.00
C1308  C     0.16696   0.88571   0.53286   0.00000  Uiso   1.00
C1309  C     0.15263   0.91045   0.51188   0.00000  Uiso   1.00
C1310  C     0.18221   0.78820   0.96438   0.00000  Uiso   1.00
C1311  C     0.19650   0.76342   0.98528   0.00000  Uiso   1.00
C1312  C     0.20024   0.77746   0.52300   0.00000  Uiso   1.00
C1313  C     0.18878   0.81790   0.54017   0.00000  Uiso   1.00
C1314  C     0.21243   0.75070   0.54498   0.00000  Uiso   1.00
C1315  C     0.20949   0.76285   0.58461   0.00000  Uiso   1.00
C1316  C     0.18801   0.82942   0.57987   0.00000  Uiso   1.00
H1317  H     0.14584   0.94182   0.52463   0.00000  Uiso   1.00
H1318  H     0.17725   0.85829   0.59570   0.00000  Uiso   1.00
H1319  H     0.21676   0.74181   0.60218   0.00000  Uiso   1.00
H1320  H     0.20271   0.73216   0.97200   0.00000  Uiso   1.00
H1321  H     0.12783   0.95330   0.96683   0.00000  Uiso   1.00
H1322  H     0.16229   0.81235   0.90466   0.00000  Uiso   1.00
H1323  H     0.17120   0.90046   0.56057   0.00000  Uiso   1.00
H1324  H     0.17897   0.77369   0.93634   0.00000  Uiso   1.00
C1325  C     0.32711   0.84219   0.73740   0.00000  Uiso   1.00
C1326  C     0.00773   0.82451   0.76307   0.00000  Uiso   1.00
C1327  C     0.18175   0.98907   0.73737   0.00000  Uiso   1.00
C1328  C     0.15238   0.67880   0.76186   0.00000  Uiso   1.00
H1329  H     0.12544   0.99847   0.78422   0.00000  Uiso   1.00
N1330  N     0.22685   0.71087   0.52792   0.00000  Uiso   1.00
O1331  O     0.21452   0.67859   0.54807   0.00000  Uiso   1.00
O1332  O     0.25770   0.70843   0.99531   0.00000  Uiso   1.00
N1333  N     0.02390   0.86285   0.70534   0.00000  Uiso   1.00
O1334  O     0.01740   0.85749   0.67068   0.00000  Uiso   1.00
O1335  O     0.05548   0.88997   0.71144   0.00000  Uiso   1.00
C1336  C     0.31324   0.80326   0.79735   0.00000  Uiso   1.00
C1337  C     0.30663   0.75939   0.79496   0.00000  Uiso   1.00
C1338  C     0.28045   0.73919   0.82720   0.00000  Uiso   1.00
C1339  C     0.26112   0.76265   0.86206   0.00000  Uiso   1.00
C1340  C     0.26792   0.80638   0.86476   0.00000  Uiso   1.00
C1341  C     0.29405   0.82672   0.83256   0.00000  Uiso   1.00
H1342  H     0.32155   0.74093   0.76811   0.00000  Uiso   1.00
H1343  H     0.27521   0.70535   0.82517   0.00000  Uiso   1.00
H1344  H     0.24107   0.74688   0.88698   0.00000  Uiso   1.00
H1345  H     0.25300   0.82451   0.89181   0.00000  Uiso   1.00
H1346  H     0.29915   0.86059   0.83488   0.00000  Uiso   1.00
C1347  C     0.21852   0.67431   0.70649   0.00000  Uiso   1.00
C1348  C     0.22081   0.99675   0.66657   0.00000  Uiso   1.00
C1349  C     0.25480   0.68154   0.63753   0.00000  Uiso   1.00
C1350  C     0.28665   0.71059   0.64814   0.00000  Uiso   1.00
C1351  C     0.28482   0.72126   0.68781   0.00000  Uiso   1.00
C1352  C     0.25106   0.70300   0.71691   0.00000  Uiso   1.00
H1353  H     0.19610   0.97457   0.65799   0.00000  Uiso   1.00
H1354  H     0.25636   0.67318   0.60680   0.00000  Uiso   1.00
H1355  H     0.31280   0.72473   0.62563   0.00000  Uiso   1.00
H1356  H     0.30959   0.74365   0.69602   0.00000  Uiso   1.00
H1357  H     0.25018   0.71123   0.74752   0.00000  Uiso   1.00
N1358  N     0.12527   0.94009   0.89332   0.00000  Uiso   1.00
O1359  O     0.15433   0.95185   0.86192   0.00000  Uiso   1.00
O1360  O     0.09340   0.96216   0.90931   0.00000  Uiso   1.00
Zn1361 Zn    0.52577   0.80756   0.78278   0.00000  Uiso   1.00
Zn1362 Zn    0.46792   0.79044   0.72258   0.00000  Uiso   1.00
Zn1363 Zn    0.54500   0.86331   0.71188   0.00000  Uiso   1.00
Zn1364 Zn    0.46131   0.87202   0.78277   0.00000  Uiso   1.00
O1365  O     0.50000   0.83333   0.75000   0.00000  Uiso   1.00
O1366  O     0.40323   0.85627   0.77820   0.00000  Uiso   1.00
O1367  O     0.58773   0.81944   0.76768   0.00000  Uiso   1.00
O1368  O     0.47133   0.73570   0.73607   0.00000  Uiso   1.00
O1369  O     0.53771   0.92193   0.71806   0.00000  Uiso   1.00
O1370  O     0.49027   0.79060   0.66625   0.00000  Uiso   1.00
O1371  O     0.46020   0.87313   0.83749   0.00000  Uiso   1.00
O1372  O     0.54421   0.84159   0.65877   0.00000  Uiso   1.00
O1373  O     0.50532   0.82802   0.83749   0.00000  Uiso   1.00
O1374  O     0.51182   0.74768   0.77821   0.00000  Uiso   1.00
O1375  O     0.47914   0.92803   0.76767   0.00000  Uiso   1.00
O1376  O     0.40785   0.79917   0.73607   0.00000  Uiso   1.00
O1377  O     0.60119   0.85845   0.71806   0.00000  Uiso   1.00
C1378  C     0.38617   0.82668   0.75872   0.00000  Uiso   1.00
C1379  C     0.61439   0.83989   0.74106   0.00000  Uiso   1.00
C1380  C     0.48863   0.72296   0.75949   0.00000  Uiso   1.00
C1381  C     0.51027   0.94435   0.74107   0.00000  Uiso   1.00
C1382  C     0.52170   0.81167   0.64412   0.00000  Uiso   1.00
C1383  C     0.48005   0.85559   0.85587   0.00000  Uiso   1.00
C1384  C     0.47727   0.86962   0.89753   0.00000  Uiso   1.00
C1385  C     0.53046   0.80181   0.60185   0.00000  Uiso   1.00
C1386  C     0.46830   0.92210   0.95375   0.00000  Uiso   1.00
C1387  C     0.46707   0.90995   0.91501   0.00000  Uiso   1.00
C1388  C     0.48844   0.84267   0.91928   0.00000  Uiso   1.00
C1389  C     0.49160   0.85517   0.95780   0.00000  Uiso   1.00
C1390  C     0.48145   0.89573   0.97469   0.00000  Uiso   1.00
C1391  C     0.50550   0.82908   0.97960   0.00000  Uiso   1.00
C1392  C     0.50943   0.84442   0.51792   0.00000  Uiso   1.00
C1393  C     0.50029   0.88571   0.53286   0.00000  Uiso   1.00
C1394  C     0.48597   0.91045   0.51188   0.00000  Uiso   1.00
C1395  C     0.51555   0.78820   0.96438   0.00000  Uiso   1.00
C1396  C     0.52984   0.76342   0.98528   0.00000  Uiso   1.00
C1397  C     0.53357   0.77746   0.52300   0.00000  Uiso   1.00
C1398  C     0.52212   0.81790   0.54017   0.00000  Uiso   1.00
C1399  C     0.54576   0.75070   0.54498   0.00000  Uiso   1.00
C1400  C     0.54282   0.76285   0.58461   0.00000  Uiso   1.00
C1401  C     0.52135   0.82942   0.57987   0.00000  Uiso   1.00
H1402  H     0.47917   0.94182   0.52463   0.00000  Uiso   1.00
H1403  H     0.51059   0.85829   0.59570   0.00000  Uiso   1.00
H1404  H     0.55009   0.74181   0.60218   0.00000  Uiso   1.00
H1405  H     0.53605   0.73216   0.97200   0.00000  Uiso   1.00
H1406  H     0.46116   0.95330   0.96683   0.00000  Uiso   1.00
H1407  H     0.49562   0.81235   0.90466   0.00000  Uiso   1.00
H1408  H     0.50453   0.90046   0.56057   0.00000  Uiso   1.00
H1409  H     0.51231   0.77369   0.93634   0.00000  Uiso   1.00
C1410  C     0.66045   0.84219   0.73740   0.00000  Uiso   1.00
C1411  C     0.34106   0.82451   0.76307   0.00000  Uiso   1.00
C1412  C     0.51509   0.98907   0.73737   0.00000  Uiso   1.00
C1413  C     0.48571   0.67880   0.76186   0.00000  Uiso   1.00
H1414  H     0.45877   0.99847   0.78422   0.00000  Uiso   1.00
N1415  N     0.56018   0.71087   0.52792   0.00000  Uiso   1.00
O1416  O     0.54785   0.67859   0.54807   0.00000  Uiso   1.00
O1417  O     0.59104   0.70843   0.99531   0.00000  Uiso   1.00
N1418  N     0.35723   0.86285   0.70534   0.00000  Uiso   1.00
O1419  O     0.35073   0.85749   0.67068   0.00000  Uiso   1.00
O1420  O     0.38881   0.88997   0.71144   0.00000  Uiso   1.00
C1421  C     0.64657   0.80326   0.79735   0.00000  Uiso   1.00
C1422  C     0.63997   0.75939   0.79496   0.00000  Uiso   1.00
C1423  C     0.61379   0.73919   0.82720   0.00000  Uiso   1.00
C1424  C     0.59446   0.76265   0.86206   0.00000  Uiso   1.00
C1425  C     0.60125   0.80638   0.86476   0.00000  Uiso   1.00
C1426  C     0.62738   0.82672   0.83256   0.00000  Uiso   1.00
H1427  H     0.65489   0.74093   0.76811   0.00000  Uiso   1.00
H1428  H     0.60854   0.70535   0.82517   0.00000  Uiso   1.00
H1429  H     0.57440   0.74688   0.88698   0.00000  Uiso   1.00
H1430  H     0.58634   0.82451   0.89181   0.00000  Uiso   1.00
H1431  H     0.63248   0.86059   0.83488   0.00000  Uiso   1.00
C1432  C     0.55186   0.67431   0.70649   0.00000  Uiso   1.00
C1433  C     0.55415   0.99675   0.66657   0.00000  Uiso   1.00
C1434  C     0.58813   0.68154   0.63753   0.00000  Uiso   1.00
C1435  C     0.61998   0.71059   0.64814   0.00000  Uiso   1.00
C1436  C     0.61816   0.72126   0.68781   0.00000  Uiso   1.00
C1437  C     0.58439   0.70300   0.71691   0.00000  Uiso   1.00
H1438  H     0.52944   0.97457   0.65799   0.00000  Uiso   1.00
H1439  H     0.58970   0.67318   0.60680   0.00000  Uiso   1.00
H1440  H     0.64613   0.72473   0.62563   0.00000  Uiso   1.00
H1441  H     0.64292   0.74365   0.69602   0.00000  Uiso   1.00
H1442  H     0.58351   0.71123   0.74752   0.00000  Uiso   1.00
N1443  N     0.45861   0.94009   0.89332   0.00000  Uiso   1.00
O1444  O     0.48766   0.95185   0.86192   0.00000  Uiso   1.00
O1445  O     0.42673   0.96216   0.90931   0.00000  Uiso   1.00
Zn1446 Zn    0.85910   0.80756   0.78278   0.00000  Uiso   1.00
Zn1447 Zn    0.80125   0.79044   0.72258   0.00000  Uiso   1.00
Zn1448 Zn    0.87833   0.86331   0.71188   0.00000  Uiso   1.00
Zn1449 Zn    0.79465   0.87202   0.78277   0.00000  Uiso   1.00
O1450  O     0.83333   0.83333   0.75000   0.00000  Uiso   1.00
O1451  O     0.73656   0.85627   0.77820   0.00000  Uiso   1.00
O1452  O     0.92106   0.81944   0.76768   0.00000  Uiso   1.00
O1453  O     0.80467   0.73570   0.73607   0.00000  Uiso   1.00
O1454  O     0.87104   0.92193   0.71806   0.00000  Uiso   1.00
O1455  O     0.82360   0.79060   0.66625   0.00000  Uiso   1.00
O1456  O     0.79354   0.87313   0.83749   0.00000  Uiso   1.00
O1457  O     0.87755   0.84159   0.65877   0.00000  Uiso   1.00
O1458  O     0.83865   0.82802   0.83749   0.00000  Uiso   1.00
O1459  O     0.84515   0.74768   0.77821   0.00000  Uiso   1.00
O1460  O     0.81247   0.92803   0.76767   0.00000  Uiso   1.00
O1461  O     0.74119   0.79917   0.73607   0.00000  Uiso   1.00
O1462  O     0.93452   0.85845   0.71806   0.00000  Uiso   1.00
C1463  C     0.71950   0.82668   0.75872   0.00000  Uiso   1.00
C1464  C     0.94773   0.83989   0.74106   0.00000  Uiso   1.00
C1465  C     0.82196   0.72296   0.75949   0.00000  Uiso   1.00
C1466  C     0.84360   0.94435   0.74107   0.00000  Uiso   1.00
C1467  C     0.85503   0.81167   0.64412   0.00000  Uiso   1.00
C1468  C     0.81338   0.85559   0.85587   0.00000  Uiso   1.00
C1469  C     0.81060   0.86962   0.89753   0.00000  Uiso   1.00
C1470  C     0.86379   0.80181   0.60185   0.00000  Uiso   1.00
C1471  C     0.80163   0.92210   0.95375   0.00000  Uiso   1.00
C1472  C     0.80040   0.90995   0.91501   0.00000  Uiso   1.00
C1473  C     0.82177   0.84267   0.91928   0.00000  Uiso   1.00
C1474  C     0.82493   0.85517   0.95780   0.00000  Uiso   1.00
C1475  C     0.81479   0.89573   0.97469   0.00000  Uiso   1.00
C1476  C     0.83883   0.82908   0.97960   0.00000  Uiso   1.00
C1477  C     0.84277   0.84442   0.51792   0.00000  Uiso   1.00
C1478  C     0.83362   0.88571   0.53286   0.00000  Uiso   1.00
C1479  C     0.81930   0.91045   0.51188   0.00000  Uiso   1.00
C1480  C     0.84888   0.78820   0.96438   0.00000  Uiso   1.00
C1481  C     0.86317   0.76342   0.98528   0.00000  Uiso   1.00
C1482  C     0.86690   0.77746   0.52300   0.00000  Uiso   1.00
C1483  C     0.85545   0.81790   0.54017   0.00000  Uiso   1.00
C1484  C     0.87910   0.75070   0.54498   0.00000  Uiso   1.00
C1485  C     0.87615   0.76285   0.58461   0.00000  Uiso   1.00
C1486  C     0.85468   0.82942   0.57987   0.00000  Uiso   1.00
H1487  H     0.81250   0.94182   0.52463   0.00000  Uiso   1.00
H1488  H     0.84392   0.85829   0.59570   0.00000  Uiso   1.00
H1489  H     0.88342   0.74181   0.60218   0.00000  Uiso   1.00
H1490  H     0.86938   0.73216   0.97200   0.00000  Uiso   1.00
H1491  H     0.79449   0.95330   0.96683   0.00000  Uiso   1.00
H1492  H     0.82896   0.81235   0.90466   0.00000  Uiso   1.00
H1493  H     0.83786   0.90046   0.56057   0.00000  Uiso   1.00
H1494  H     0.84564   0.77369   0.93634   0.00000  Uiso   1.00
C1495  C     0.99378   0.84219   0.73740   0.00000  Uiso   1.00
C1496  C     0.67440   0.82451   0.76307   0.00000  Uiso   1.00
C1497  C     0.84842   0.98907   0.73737   0.00000  Uiso   1.00
C1498  C     0.81904   0.67880   0.76186   0.00000  Uiso   1.00
H1499  H     0.79210   0.99847   0.78422   0.00000  Uiso   1.00
N1500  N     0.89351   0.71087   0.52792   0.00000  Uiso   1.00
O1501  O     0.88118   0.67859   0.54807   0.00000  Uiso   1.00
O1502  O     0.92437   0.70843   0.99531   0.00000  Uiso   1.00
N1503  N     0.69056   0.86285   0.70534   0.00000  Uiso   1.00
O1504  O     0.68407   0.85749   0.67068   0.00000  Uiso   1.00
O1505  O     0.72215   0.88997   0.71144   0.00000  Uiso   1.00
C1506  C     0.97990   0.80326   0.79735   0.00000  Uiso   1.00
C1507  C     0.97330   0.75939   0.79496   0.00000  Uiso   1.00
C1508  C     0.94712   0.73919   0.82720   0.00000  Uiso   1.00
C1509  C     0.92779   0.76265   0.86206   0.00000  Uiso   1.00
C1510  C     0.93458   0.80638   0.86476   0.00000  Uiso   1.00
C1511  C     0.96071   0.82672   0.83256   0.00000  Uiso   1.00
H1512  H     0.98822   0.74093   0.76811   0.00000  Uiso   1.00
H1513  H     0.94187   0.70535   0.82517   0.00000  Uiso   1.00
H1514  H     0.90774   0.74688   0.88698   0.00000  Uiso   1.00
H1515  H     0.91967   0.82451   0.89181   0.00000  Uiso   1.00
H1516  H     0.96581   0.86059   0.83488   0.00000  Uiso   1.00
C1517  C     0.88519   0.67431   0.70649   0.00000  Uiso   1.00
C1518  C     0.88748   0.99675   0.66657   0.00000  Uiso   1.00
C1519  C     0.92146   0.68154   0.63753   0.00000  Uiso   1.00
C1520  C     0.95331   0.71059   0.64814   0.00000  Uiso   1.00
C1521  C     0.95149   0.72126   0.68781   0.00000  Uiso   1.00
C1522  C     0.91772   0.70300   0.71691   0.00000  Uiso   1.00
H1523  H     0.86277   0.97457   0.65799   0.00000  Uiso   1.00
H1524  H     0.92303   0.67318   0.60680   0.00000  Uiso   1.00
H1525  H     0.97946   0.72473   0.62563   0.00000  Uiso   1.00
H1526  H     0.97625   0.74365   0.69602   0.00000  Uiso   1.00
H1527  H     0.91685   0.71123   0.74752   0.00000  Uiso   1.00
N1528  N     0.79194   0.94009   0.89332   0.00000  Uiso   1.00
O1529  O     0.82100   0.95185   0.86192   0.00000  Uiso   1.00
O1530  O     0.76006   0.96216   0.90931   0.00000  Uiso   1.00
loop_
_geom_bond_atom_site_label_1
_geom_bond_atom_site_label_2
_geom_bond_distance
_geom_bond_site_symmetry_2
_ccdc_geom_bond_type
Zn1    O5      1.963   .     S
Zn1    O13     1.929   .     S
Zn1    O7      1.932   .     S
Zn1    O14     1.925   .     S
Zn2    O16     1.938   .     S
Zn2    O5      1.945   .     S
Zn2    O10     1.930   .     S
Zn2    O8      1.934   .     S
Zn3    O9      1.930   .     S
Zn3    O12     1.937   .     S
Zn3    O5      1.932   .     S
Zn3    O17     1.948   .     S
Zn4    O6      1.941   .     S
Zn4    O5      1.939   .     S
Zn4    O11     1.941   .     S
Zn4    O15     1.926   .     S
O6     C18     1.265   .     A
O7     C19     1.274   .     A
O8     C20     1.280   .     A
O9     C21     1.270   .     A
O10    C22     1.270   .     A
O11    C23     1.283   .     A
O12    C22     1.276   .     A
O13    C23     1.289   .     A
O14    C20     1.277   .     A
O15    C21     1.278   .     A
O16    C18     1.270   .     A
O17    C19     1.286   .     A
C18    C51     1.431   .     S
C19    C50     1.466   .     S
C20    C53     1.436   .     S
C21    C52     1.458   .     S
C22    C25     1.452   .     S
C23    C24     1.475   .     S
C24    C27     1.415   .     A
C24    C28     1.399   .     A
C25    C40     1.392   .     A
C25    C41     1.388   .     A
C26    C27     1.396   .     A
C26    C30     1.400   .     A
C26    H46     1.085   .     S
C27    N83     1.435   .     S
C28    H47     1.074   .     S
C28    C29     1.409   .     A
C29    C30     1.416   .     A
C29    C31     1.429   .     A
C30    C799    1.390   .     S
C31    C35     1.412   .     A
C31    C797    1.426   .     S
C32    C38     1.429   .     A
C32    C33     1.415   .     A
C32    C796    1.426   1_554 S
C33    C34     1.385   .     A
C33    H48     1.076   .     S
C34    H42     1.085   .     S
C34    C795    1.390   1_554 S
C35    C36     1.383   .     A
C35    H49     1.074   .     S
C36    H45     1.082   .     S
C36    C802    1.396   .     S
C37    C38     1.426   .     A
C37    C39     1.419   .     A
C37    C801    1.396   1_554 S
C38    C41     1.410   .     A
C39    N55     1.437   .     S
C39    C40     1.395   .     A
C40    H44     1.084   .     S
C41    H43     1.077   .     S
C50    C136    1.361   .     S
C50    N143    1.445   .     S
C51    C220    1.361   1_455 S
C51    C231    1.483   1_455 S
C52    C308    1.340   .     S
C52    C327    1.489   .     S
C53    C562    1.340   1_545 S
C53    H564    1.086   1_545 S
H54    C308    1.086   .     S
N55    O56     1.301   .     A
N55    O822    1.301   1_554 S
O57    N820    1.301   .     S
N58    O60     1.302   .     A
N58    O59     1.301   .     A
N58    C220    1.445   1_455 S
C61    C66     1.405   .     A
C61    C62     1.403   .     A
C61    C136    1.483   .     S
C62    H67     1.083   .     S
C62    C63     1.398   .     A
C63    H68     1.082   .     S
C63    C64     1.398   .     A
C64    H69     1.082   .     S
C64    C65     1.399   .     A
C65    H70     1.082   .     S
C65    C66     1.399   .     A
C66    H71     1.083   .     S
C72    C77     1.406   .     A
C72    C562    1.489   1_545 S
C72    C583    1.404   1_545 S
C73    H78     1.084   .     S
C73    C327    1.404   .     S
C73    C329    1.399   .     S
C74    C75     1.398   .     A
C74    H79     1.082   .     S
C74    C583    1.399   1_545 S
C75    H80     1.082   .     S
C75    C76     1.398   .     A
C76    C77     1.398   .     A
C76    H81     1.083   .     S
C77    H82     1.082   .     S
N83    O84     1.302   .     A
N83    O85     1.301   .     A
Zn86   O90     1.963   .     S
Zn86   O98     1.929   .     S
Zn86   O92     1.932   .     S
Zn86   O99     1.925   .     S
Zn87   O101    1.938   .     S
Zn87   O90     1.945   .     S
Zn87   O95     1.930   .     S
Zn87   O93     1.934   .     S
Zn88   O94     1.930   .     S
Zn88   O97     1.937   .     S
Zn88   O90     1.932   .     S
Zn88   O102    1.948   .     S
Zn89   O91     1.941   .     S
Zn89   O90     1.939   .     S
Zn89   O96     1.941   .     S
Zn89   O100    1.926   .     S
O91    C103    1.265   .     A
O92    C104    1.274   .     A
O93    C105    1.280   .     A
O94    C106    1.270   .     A
O95    C107    1.270   .     A
O96    C108    1.283   .     A
O97    C107    1.276   .     A
O98    C108    1.289   .     A
O99    C105    1.277   .     A
O100   C106    1.278   .     A
O101   C103    1.270   .     A
O102   C104    1.286   .     A
C103   C136    1.431   .     S
C104   C135    1.466   .     S
C105   C138    1.436   .     S
C106   C137    1.458   .     S
C107   C110    1.452   .     S
C108   C109    1.475   .     S
C109   C112    1.415   .     A
C109   C113    1.399   .     A
C110   C125    1.392   .     A
C110   C126    1.388   .     A
C111   C112    1.396   .     A
C111   C115    1.400   .     A
C111   H131    1.085   .     S
C112   N168    1.435   .     S
C113   H132    1.074   .     S
C113   C114    1.409   .     A
C114   C115    1.416   .     A
C114   C116    1.429   .     A
C115   C884    1.390   .     S
C116   C120    1.412   .     A
C116   C882    1.426   .     S
C117   C123    1.429   .     A
C117   C118    1.415   .     A
C117   C881    1.426   1_554 S
C118   C119    1.385   .     A
C118   H133    1.076   .     S
C119   H127    1.085   .     S
C119   C880    1.390   1_554 S
C120   C121    1.383   .     A
C120   H134    1.074   .     S
C121   H130    1.082   .     S
C121   C887    1.396   .     S
C122   C123    1.426   .     A
C122   C124    1.419   .     A
C122   C886    1.396   1_554 S
C123   C126    1.410   .     A
C124   N140    1.437   .     S
C124   C125    1.395   .     A
C125   H129    1.084   .     S
C126   H128    1.077   .     S
C135   C221    1.361   .     S
C135   N228    1.445   .     S
C137   C393    1.340   .     S
C137   C412    1.489   .     S
C138   C647    1.340   1_545 S
C138   H649    1.086   1_545 S
H139   C393    1.086   .     S
N140   O141    1.301   .     A
N140   O907    1.301   1_554 S
O142   N905    1.301   .     S
N143   O145    1.302   .     A
N143   O144    1.301   .     A
C146   C151    1.405   .     A
C146   C147    1.403   .     A
C146   C221    1.483   .     S
C147   H152    1.083   .     S
C147   C148    1.398   .     A
C148   H153    1.082   .     S
C148   C149    1.398   .     A
C149   H154    1.082   .     S
C149   C150    1.399   .     A
C150   H155    1.082   .     S
C150   C151    1.399   .     A
C151   H156    1.083   .     S
C157   C162    1.406   .     A
C157   C647    1.489   1_545 S
C157   C668    1.404   1_545 S
C158   H163    1.084   .     S
C158   C412    1.404   .     S
C158   C414    1.399   .     S
C159   C160    1.398   .     A
C159   H164    1.082   .     S
C159   C668    1.399   1_545 S
C160   H165    1.082   .     S
C160   C161    1.398   .     A
C161   C162    1.398   .     A
C161   H166    1.083   .     S
C162   H167    1.082   .     S
N168   O169    1.302   .     A
N168   O170    1.301   .     A
Zn171  O175    1.963   .     S
Zn171  O183    1.929   .     S
Zn171  O177    1.932   .     S
Zn171  O184    1.925   .     S
Zn172  O186    1.938   .     S
Zn172  O175    1.945   .     S
Zn172  O180    1.930   .     S
Zn172  O178    1.934   .     S
Zn173  O179    1.930   .     S
Zn173  O182    1.937   .     S
Zn173  O175    1.932   .     S
Zn173  O187    1.948   .     S
Zn174  O176    1.941   .     S
Zn174  O175    1.939   .     S
Zn174  O181    1.941   .     S
Zn174  O185    1.926   .     S
O176   C188    1.265   .     A
O177   C189    1.274   .     A
O178   C190    1.280   .     A
O179   C191    1.270   .     A
O180   C192    1.270   .     A
O181   C193    1.283   .     A
O182   C192    1.276   .     A
O183   C193    1.289   .     A
O184   C190    1.277   .     A
O185   C191    1.278   .     A
O186   C188    1.270   .     A
O187   C189    1.286   .     A
C188   C221    1.431   .     S
C189   C220    1.466   .     S
C190   C223    1.436   .     S
C191   C222    1.458   .     S
C192   C195    1.452   .     S
C193   C194    1.475   .     S
C194   C197    1.415   .     A
C194   C198    1.399   .     A
C195   C210    1.392   .     A
C195   C211    1.388   .     A
C196   C197    1.396   .     A
C196   C200    1.400   .     A
C196   H216    1.085   .     S
C197   N253    1.435   .     S
C198   H217    1.074   .     S
C198   C199    1.409   .     A
C199   C200    1.416   .     A
C199   C201    1.429   .     A
C200   C969    1.390   .     S
C201   C205    1.412   .     A
C201   C967    1.426   .     S
C202   C208    1.429   .     A
C202   C203    1.415   .     A
C202   C966    1.426   1_554 S
C203   C204    1.385   .     A
C203   H218    1.076   .     S
C204   H212    1.085   .     S
C204   C965    1.390   1_554 S
C205   C206    1.383   .     A
C205   H219    1.074   .     S
C206   H215    1.082   .     S
C206   C972    1.396   .     S
C207   C208    1.426   .     A
C207   C209    1.419   .     A
C207   C971    1.396   1_554 S
C208   C211    1.410   .     A
C209   N225    1.437   .     S
C209   C210    1.395   .     A
C210   H214    1.084   .     S
C211   H213    1.077   .     S
C220   C51     1.361   1_655 S
C220   N58     1.445   1_655 S
C222   C478    1.340   .     S
C222   C497    1.489   .     S
C223   C732    1.340   1_545 S
C223   H734    1.086   1_545 S
H224   C478    1.086   .     S
N225   O226    1.301   .     A
N225   O992    1.301   1_554 S
O227   N990    1.301   .     S
N228   O230    1.302   .     A
N228   O229    1.301   .     A
C231   C236    1.405   .     A
C231   C232    1.403   .     A
C231   C51     1.483   1_655 S
C232   H237    1.083   .     S
C232   C233    1.398   .     A
C233   H238    1.082   .     S
C233   C234    1.398   .     A
C234   H239    1.082   .     S
C234   C235    1.399   .     A
C235   H240    1.082   .     S
C235   C236    1.399   .     A
C236   H241    1.083   .     S
C242   C247    1.406   .     A
C242   C732    1.489   1_545 S
C242   C753    1.404   1_545 S
C243   H248    1.084   .     S
C243   C497    1.404   .     S
C243   C499    1.399   .     S
C244   C245    1.398   .     A
C244   H249    1.082   .     S
C244   C753    1.399   1_545 S
C245   H250    1.082   .     S
C245   C246    1.398   .     A
C246   C247    1.398   .     A
C246   H251    1.083   .     S
C247   H252    1.082   .     S
N253   O254    1.302   .     A
N253   O255    1.301   .     A
Zn256  O260    1.963   .     S
Zn256  O268    1.929   .     S
Zn256  O262    1.932   .     S
Zn256  O269    1.925   .     S
Zn257  O271    1.938   .     S
Zn257  O260    1.945   .     S
Zn257  O265    1.930   .     S
Zn257  O263    1.934   .     S
Zn258  O264    1.930   .     S
Zn258  O267    1.937   .     S
Zn258  O260    1.932   .     S
Zn258  O272    1.948   .     S
Zn259  O261    1.941   .     S
Zn259  O260    1.939   .     S
Zn259  O266    1.941   .     S
Zn259  O270    1.926   .     S
O261   C273    1.265   .     A
O262   C274    1.274   .     A
O263   C275    1.280   .     A
O264   C276    1.270   .     A
O265   C277    1.270   .     A
O266   C278    1.283   .     A
O267   C277    1.276   .     A
O268   C278    1.289   .     A
O269   C275    1.277   .     A
O270   C276    1.278   .     A
O271   C273    1.270   .     A
O272   C274    1.286   .     A
C273   C306    1.431   .     S
C274   C305    1.466   .     S
C275   C308    1.436   .     S
C276   C307    1.458   .     S
C277   C280    1.452   .     S
C278   C279    1.475   .     S
C279   C282    1.415   .     A
C279   C283    1.399   .     A
C280   C295    1.392   .     A
C280   C296    1.388   .     A
C281   C282    1.396   .     A
C281   C285    1.400   .     A
C281   H301    1.085   .     S
C282   N338    1.435   .     S
C283   H302    1.074   .     S
C283   C284    1.409   .     A
C284   C285    1.416   .     A
C284   C286    1.429   .     A
C285   C1054   1.390   .     S
C286   C290    1.412   .     A
C286   C1052   1.426   .     S
C287   C293    1.429   .     A
C287   C288    1.415   .     A
C287   C1051   1.426   1_554 S
C288   C289    1.385   .     A
C288   H303    1.076   .     S
C289   H297    1.085   .     S
C289   C1050   1.390   1_554 S
C290   C291    1.383   .     A
C290   H304    1.074   .     S
C291   H300    1.082   .     S
C291   C1057   1.396   .     S
C292   C293    1.426   .     A
C292   C294    1.419   .     A
C292   C1056   1.396   1_554 S
C293   C296    1.410   .     A
C294   N310    1.437   .     S
C294   C295    1.395   .     A
C295   H299    1.084   .     S
C296   H298    1.077   .     S
C305   C391    1.361   .     S
C305   N398    1.445   .     S
C306   C475    1.361   1_455 S
C306   C486    1.483   1_455 S
C307   C563    1.340   .     S
C307   C582    1.489   .     S
H309   C563    1.086   .     S
N310   O311    1.301   .     A
N310   O1077   1.301   1_554 S
O312   N1075   1.301   .     S
N313   O315    1.302   .     A
N313   O314    1.301   .     A
N313   C475    1.445   1_455 S
C316   C321    1.405   .     A
C316   C317    1.403   .     A
C316   C391    1.483   .     S
C317   H322    1.083   .     S
C317   C318    1.398   .     A
C318   H323    1.082   .     S
C318   C319    1.398   .     A
C319   H324    1.082   .     S
C319   C320    1.399   .     A
C320   H325    1.082   .     S
C320   C321    1.399   .     A
C321   H326    1.083   .     S
C327   C332    1.406   .     A
C328   H333    1.084   .     S
C328   C582    1.404   .     S
C328   C584    1.399   .     S
C329   C330    1.398   .     A
C329   H334    1.082   .     S
C330   H335    1.082   .     S
C330   C331    1.398   .     A
C331   C332    1.398   .     A
C331   H336    1.083   .     S
C332   H337    1.082   .     S
N338   O339    1.302   .     A
N338   O340    1.301   .     A
Zn341  O345    1.963   .     S
Zn341  O353    1.929   .     S
Zn341  O347    1.932   .     S
Zn341  O354    1.925   .     S
Zn342  O356    1.938   .     S
Zn342  O345    1.945   .     S
Zn342  O350    1.930   .     S
Zn342  O348    1.934   .     S
Zn343  O349    1.930   .     S
Zn343  O352    1.937   .     S
Zn343  O345    1.932   .     S
Zn343  O357    1.948   .     S
Zn344  O346    1.941   .     S
Zn344  O345    1.939   .     S
Zn344  O351    1.941   .     S
Zn344  O355    1.926   .     S
O346   C358    1.265   .     A
O347   C359    1.274   .     A
O348   C360    1.280   .     A
O349   C361    1.270   .     A
O350   C362    1.270   .     A
O351   C363    1.283   .     A
O352   C362    1.276   .     A
O353   C363    1.289   .     A
O354   C360    1.277   .     A
O355   C361    1.278   .     A
O356   C358    1.270   .     A
O357   C359    1.286   .     A
C358   C391    1.431   .     S
C359   C390    1.466   .     S
C360   C393    1.436   .     S
C361   C392    1.458   .     S
C362   C365    1.452   .     S
C363   C364    1.475   .     S
C364   C367    1.415   .     A
C364   C368    1.399   .     A
C365   C380    1.392   .     A
C365   C381    1.388   .     A
C366   C367    1.396   .     A
C366   C370    1.400   .     A
C366   H386    1.085   .     S
C367   N423    1.435   .     S
C368   H387    1.074   .     S
C368   C369    1.409   .     A
C369   C370    1.416   .     A
C369   C371    1.429   .     A
C370   C1139   1.390   .     S
C371   C375    1.412   .     A
C371   C1137   1.426   .     S
C372   C378    1.429   .     A
C372   C373    1.415   .     A
C372   C1136   1.426   1_554 S
C373   C374    1.385   .     A
C373   H388    1.076   .     S
C374   H382    1.085   .     S
C374   C1135   1.390   1_554 S
C375   C376    1.383   .     A
C375   H389    1.074   .     S
C376   H385    1.082   .     S
C376   C1142   1.396   .     S
C377   C378    1.426   .     A
C377   C379    1.419   .     A
C377   C1141   1.396   1_554 S
C378   C381    1.410   .     A
C379   N395    1.437   .     S
C379   C380    1.395   .     A
C380   H384    1.084   .     S
C381   H383    1.077   .     S
C390   C476    1.361   .     S
C390   N483    1.445   .     S
C392   C648    1.340   .     S
C392   C667    1.489   .     S
H394   C648    1.086   .     S
N395   O396    1.301   .     A
N395   O1162   1.301   1_554 S
O397   N1160   1.301   .     S
N398   O400    1.302   .     A
N398   O399    1.301   .     A
C401   C406    1.405   .     A
C401   C402    1.403   .     A
C401   C476    1.483   .     S
C402   H407    1.083   .     S
C402   C403    1.398   .     A
C403   H408    1.082   .     S
C403   C404    1.398   .     A
C404   H409    1.082   .     S
C404   C405    1.399   .     A
C405   H410    1.082   .     S
C405   C406    1.399   .     A
C406   H411    1.083   .     S
C412   C417    1.406   .     A
C413   H418    1.084   .     S
C413   C667    1.404   .     S
C413   C669    1.399   .     S
C414   C415    1.398   .     A
C414   H419    1.082   .     S
C415   H420    1.082   .     S
C415   C416    1.398   .     A
C416   C417    1.398   .     A
C416   H421    1.083   .     S
C417   H422    1.082   .     S
N423   O424    1.302   .     A
N423   O425    1.301   .     A
Zn426  O430    1.963   .     S
Zn426  O438    1.929   .     S
Zn426  O432    1.932   .     S
Zn426  O439    1.925   .     S
Zn427  O441    1.938   .     S
Zn427  O430    1.945   .     S
Zn427  O435    1.930   .     S
Zn427  O433    1.934   .     S
Zn428  O434    1.930   .     S
Zn428  O437    1.937   .     S
Zn428  O430    1.932   .     S
Zn428  O442    1.948   .     S
Zn429  O431    1.941   .     S
Zn429  O430    1.939   .     S
Zn429  O436    1.941   .     S
Zn429  O440    1.926   .     S
O431   C443    1.265   .     A
O432   C444    1.274   .     A
O433   C445    1.280   .     A
O434   C446    1.270   .     A
O435   C447    1.270   .     A
O436   C448    1.283   .     A
O437   C447    1.276   .     A
O438   C448    1.289   .     A
O439   C445    1.277   .     A
O440   C446    1.278   .     A
O441   C443    1.270   .     A
O442   C444    1.286   .     A
C443   C476    1.431   .     S
C444   C475    1.466   .     S
C445   C478    1.436   .     S
C446   C477    1.458   .     S
C447   C450    1.452   .     S
C448   C449    1.475   .     S
C449   C452    1.415   .     A
C449   C453    1.399   .     A
C450   C465    1.392   .     A
C450   C466    1.388   .     A
C451   C452    1.396   .     A
C451   C455    1.400   .     A
C451   H471    1.085   .     S
C452   N508    1.435   .     S
C453   H472    1.074   .     S
C453   C454    1.409   .     A
C454   C455    1.416   .     A
C454   C456    1.429   .     A
C455   C1224   1.390   .     S
C456   C460    1.412   .     A
C456   C1222   1.426   .     S
C457   C463    1.429   .     A
C457   C458    1.415   .     A
C457   C1221   1.426   1_554 S
C458   C459    1.385   .     A
C458   H473    1.076   .     S
C459   H467    1.085   .     S
C459   C1220   1.390   1_554 S
C460   C461    1.383   .     A
C460   H474    1.074   .     S
C461   H470    1.082   .     S
C461   C1227   1.396   .     S
C462   C463    1.426   .     A
C462   C464    1.419   .     A
C462   C1226   1.396   1_554 S
C463   C466    1.410   .     A
C464   N480    1.437   .     S
C464   C465    1.395   .     A
C465   H469    1.084   .     S
C466   H468    1.077   .     S
C475   C306    1.361   1_655 S
C475   N313    1.445   1_655 S
C477   C733    1.340   .     S
C477   C752    1.489   .     S
H479   C733    1.086   .     S
N480   O481    1.301   .     A
N480   O1247   1.301   1_554 S
O482   N1245   1.301   .     S
N483   O485    1.302   .     A
N483   O484    1.301   .     A
C486   C491    1.405   .     A
C486   C487    1.403   .     A
C486   C306    1.483   1_655 S
C487   H492    1.083   .     S
C487   C488    1.398   .     A
C488   H493    1.082   .     S
C488   C489    1.398   .     A
C489   H494    1.082   .     S
C489   C490    1.399   .     A
C490   H495    1.082   .     S
C490   C491    1.399   .     A
C491   H496    1.083   .     S
C497   C502    1.406   .     A
C498   H503    1.084   .     S
C498   C752    1.404   .     S
C498   C754    1.399   .     S
C499   C500    1.398   .     A
C499   H504    1.082   .     S
C500   H505    1.082   .     S
C500   C501    1.398   .     A
C501   C502    1.398   .     A
C501   H506    1.083   .     S
C502   H507    1.082   .     S
N508   O509    1.302   .     A
N508   O510    1.301   .     A
Zn511  O515    1.963   .     S
Zn511  O523    1.929   .     S
Zn511  O517    1.932   .     S
Zn511  O524    1.925   .     S
Zn512  O526    1.938   .     S
Zn512  O515    1.945   .     S
Zn512  O520    1.930   .     S
Zn512  O518    1.934   .     S
Zn513  O519    1.930   .     S
Zn513  O522    1.937   .     S
Zn513  O515    1.932   .     S
Zn513  O527    1.948   .     S
Zn514  O516    1.941   .     S
Zn514  O515    1.939   .     S
Zn514  O521    1.941   .     S
Zn514  O525    1.926   .     S
O516   C528    1.265   .     A
O517   C529    1.274   .     A
O518   C530    1.280   .     A
O519   C531    1.270   .     A
O520   C532    1.270   .     A
O521   C533    1.283   .     A
O522   C532    1.276   .     A
O523   C533    1.289   .     A
O524   C530    1.277   .     A
O525   C531    1.278   .     A
O526   C528    1.270   .     A
O527   C529    1.286   .     A
C528   C561    1.431   .     S
C529   C560    1.466   .     S
C530   C563    1.436   .     S
C531   C562    1.458   .     S
C532   C535    1.452   .     S
C533   C534    1.475   .     S
C534   C537    1.415   .     A
C534   C538    1.399   .     A
C535   C550    1.392   .     A
C535   C551    1.388   .     A
C536   C537    1.396   .     A
C536   C540    1.400   .     A
C536   H556    1.085   .     S
C537   N593    1.435   .     S
C538   H557    1.074   .     S
C538   C539    1.409   .     A
C539   C540    1.416   .     A
C539   C541    1.429   .     A
C540   C1309   1.390   .     S
C541   C545    1.412   .     A
C541   C1307   1.426   .     S
C542   C548    1.429   .     A
C542   C543    1.415   .     A
C542   C1306   1.426   1_554 S
C543   C544    1.385   .     A
C543   H558    1.076   .     S
C544   H552    1.085   .     S
C544   C1305   1.390   1_554 S
C545   C546    1.383   .     A
C545   H559    1.074   .     S
C546   H555    1.082   .     S
C546   C1312   1.396   .     S
C547   C548    1.426   .     A
C547   C549    1.419   .     A
C547   C1311   1.396   1_554 S
C548   C551    1.410   .     A
C549   N565    1.437   .     S
C549   C550    1.395   .     A
C550   H554    1.084   .     S
C551   H553    1.077   .     S
C560   C646    1.361   .     S
C560   N653    1.445   .     S
C561   C730    1.361   1_455 S
C561   C741    1.483   1_455 S
C562   C53     1.340   1_565 S
C562   C72     1.489   1_565 S
H564   C53     1.086   1_565 S
N565   O566    1.301   .     A
N565   O1332   1.301   1_554 S
O567   N1330   1.301   .     S
N568   O570    1.302   .     A
N568   O569    1.301   .     A
N568   C730    1.445   1_455 S
C571   C576    1.405   .     A
C571   C572    1.403   .     A
C571   C646    1.483   .     S
C572   H577    1.083   .     S
C572   C573    1.398   .     A
C573   H578    1.082   .     S
C573   C574    1.398   .     A
C574   H579    1.082   .     S
C574   C575    1.399   .     A
C575   H580    1.082   .     S
C575   C576    1.399   .     A
C576   H581    1.083   .     S
C582   C587    1.406   .     A
C583   H588    1.084   .     S
C583   C72     1.404   1_565 S
C583   C74     1.399   1_565 S
C584   C585    1.398   .     A
C584   H589    1.082   .     S
C585   H590    1.082   .     S
C585   C586    1.398   .     A
C586   C587    1.398   .     A
C586   H591    1.083   .     S
C587   H592    1.082   .     S
N593   O594    1.302   .     A
N593   O595    1.301   .     A
Zn596  O600    1.963   .     S
Zn596  O608    1.929   .     S
Zn596  O602    1.932   .     S
Zn596  O609    1.925   .     S
Zn597  O611    1.938   .     S
Zn597  O600    1.945   .     S
Zn597  O605    1.930   .     S
Zn597  O603    1.934   .     S
Zn598  O604    1.930   .     S
Zn598  O607    1.937   .     S
Zn598  O600    1.932   .     S
Zn598  O612    1.948   .     S
Zn599  O601    1.941   .     S
Zn599  O600    1.939   .     S
Zn599  O606    1.941   .     S
Zn599  O610    1.926   .     S
O601   C613    1.265   .     A
O602   C614    1.274   .     A
O603   C615    1.280   .     A
O604   C616    1.270   .     A
O605   C617    1.270   .     A
O606   C618    1.283   .     A
O607   C617    1.276   .     A
O608   C618    1.289   .     A
O609   C615    1.277   .     A
O610   C616    1.278   .     A
O611   C613    1.270   .     A
O612   C614    1.286   .     A
C613   C646    1.431   .     S
C614   C645    1.466   .     S
C615   C648    1.436   .     S
C616   C647    1.458   .     S
C617   C620    1.452   .     S
C618   C619    1.475   .     S
C619   C622    1.415   .     A
C619   C623    1.399   .     A
C620   C635    1.392   .     A
C620   C636    1.388   .     A
C621   C622    1.396   .     A
C621   C625    1.400   .     A
C621   H641    1.085   .     S
C622   N678    1.435   .     S
C623   H642    1.074   .     S
C623   C624    1.409   .     A
C624   C625    1.416   .     A
C624   C626    1.429   .     A
C625   C1394   1.390   .     S
C626   C630    1.412   .     A
C626   C1392   1.426   .     S
C627   C633    1.429   .     A
C627   C628    1.415   .     A
C627   C1391   1.426   1_554 S
C628   C629    1.385   .     A
C628   H643    1.076   .     S
C629   H637    1.085   .     S
C629   C1390   1.390   1_554 S
C630   C631    1.383   .     A
C630   H644    1.074   .     S
C631   H640    1.082   .     S
C631   C1397   1.396   .     S
C632   C633    1.426   .     A
C632   C634    1.419   .     A
C632   C1396   1.396   1_554 S
C633   C636    1.410   .     A
C634   N650    1.437   .     S
C634   C635    1.395   .     A
C635   H639    1.084   .     S
C636   H638    1.077   .     S
C645   C731    1.361   .     S
C645   N738    1.445   .     S
C647   C138    1.340   1_565 S
C647   C157    1.489   1_565 S
H649   C138    1.086   1_565 S
N650   O651    1.301   .     A
N650   O1417   1.301   1_554 S
O652   N1415   1.301   .     S
N653   O655    1.302   .     A
N653   O654    1.301   .     A
C656   C661    1.405   .     A
C656   C657    1.403   .     A
C656   C731    1.483   .     S
C657   H662    1.083   .     S
C657   C658    1.398   .     A
C658   H663    1.082   .     S
C658   C659    1.398   .     A
C659   H664    1.082   .     S
C659   C660    1.399   .     A
C660   H665    1.082   .     S
C660   C661    1.399   .     A
C661   H666    1.083   .     S
C667   C672    1.406   .     A
C668   H673    1.084   .     S
C668   C157    1.404   1_565 S
C668   C159    1.399   1_565 S
C669   C670    1.398   .     A
C669   H674    1.082   .     S
C670   H675    1.082   .     S
C670   C671    1.398   .     A
C671   C672    1.398   .     A
C671   H676    1.083   .     S
C672   H677    1.082   .     S
N678   O679    1.302   .     A
N678   O680    1.301   .     A
Zn681  O685    1.963   .     S
Zn681  O693    1.929   .     S
Zn681  O687    1.932   .     S
Zn681  O694    1.925   .     S
Zn682  O696    1.938   .     S
Zn682  O685    1.945   .     S
Zn682  O690    1.930   .     S
Zn682  O688    1.934   .     S
Zn683  O689    1.930   .     S
Zn683  O692    1.937   .     S
Zn683  O685    1.932   .     S
Zn683  O697    1.948   .     S
Zn684  O686    1.941   .     S
Zn684  O685    1.939   .     S
Zn684  O691    1.941   .     S
Zn684  O695    1.926   .     S
O686   C698    1.265   .     A
O687   C699    1.274   .     A
O688   C700    1.280   .     A
O689   C701    1.270   .     A
O690   C702    1.270   .     A
O691   C703    1.283   .     A
O692   C702    1.276   .     A
O693   C703    1.289   .     A
O694   C700    1.277   .     A
O695   C701    1.278   .     A
O696   C698    1.270   .     A
O697   C699    1.286   .     A
C698   C731    1.431   .     S
C699   C730    1.466   .     S
C700   C733    1.436   .     S
C701   C732    1.458   .     S
C702   C705    1.452   .     S
C703   C704    1.475   .     S
C704   C707    1.415   .     A
C704   C708    1.399   .     A
C705   C720    1.392   .     A
C705   C721    1.388   .     A
C706   C707    1.396   .     A
C706   C710    1.400   .     A
C706   H726    1.085   .     S
C707   N763    1.435   .     S
C708   H727    1.074   .     S
C708   C709    1.409   .     A
C709   C710    1.416   .     A
C709   C711    1.429   .     A
C710   C1479   1.390   .     S
C711   C715    1.412   .     A
C711   C1477   1.426   .     S
C712   C718    1.429   .     A
C712   C713    1.415   .     A
C712   C1476   1.426   1_554 S
C713   C714    1.385   .     A
C713   H728    1.076   .     S
C714   H722    1.085   .     S
C714   C1475   1.390   1_554 S
C715   C716    1.383   .     A
C715   H729    1.074   .     S
C716   H725    1.082   .     S
C716   C1482   1.396   .     S
C717   C718    1.426   .     A
C717   C719    1.419   .     A
C717   C1481   1.396   1_554 S
C718   C721    1.410   .     A
C719   N735    1.437   .     S
C719   C720    1.395   .     A
C720   H724    1.084   .     S
C721   H723    1.077   .     S
C730   C561    1.361   1_655 S
C730   N568    1.445   1_655 S
C732   C223    1.340   1_565 S
C732   C242    1.489   1_565 S
H734   C223    1.086   1_565 S
N735   O736    1.301   .     A
N735   O1502   1.301   1_554 S
O737   N1500   1.301   .     S
N738   O740    1.302   .     A
N738   O739    1.301   .     A
C741   C746    1.405   .     A
C741   C742    1.403   .     A
C741   C561    1.483   1_655 S
C742   H747    1.083   .     S
C742   C743    1.398   .     A
C743   H748    1.082   .     S
C743   C744    1.398   .     A
C744   H749    1.082   .     S
C744   C745    1.399   .     A
C745   H750    1.082   .     S
C745   C746    1.399   .     A
C746   H751    1.083   .     S
C752   C757    1.406   .     A
C753   H758    1.084   .     S
C753   C242    1.404   1_565 S
C753   C244    1.399   1_565 S
C754   C755    1.398   .     A
C754   H759    1.082   .     S
C755   H760    1.082   .     S
C755   C756    1.398   .     A
C756   C757    1.398   .     A
C756   H761    1.083   .     S
C757   H762    1.082   .     S
N763   O764    1.302   .     A
N763   O765    1.301   .     A
Zn766  O770    1.963   .     S
Zn766  O778    1.929   .     S
Zn766  O772    1.932   .     S
Zn766  O779    1.925   .     S
Zn767  O781    1.938   .     S
Zn767  O770    1.945   .     S
Zn767  O775    1.930   .     S
Zn767  O773    1.934   .     S
Zn768  O774    1.930   .     S
Zn768  O777    1.937   .     S
Zn768  O770    1.932   .     S
Zn768  O782    1.948   .     S
Zn769  O771    1.941   .     S
Zn769  O770    1.939   .     S
Zn769  O776    1.941   .     S
Zn769  O780    1.926   .     S
O771   C783    1.265   .     A
O772   C784    1.274   .     A
O773   C785    1.280   .     A
O774   C786    1.270   .     A
O775   C787    1.270   .     A
O776   C788    1.283   .     A
O777   C787    1.276   .     A
O778   C788    1.289   .     A
O779   C785    1.277   .     A
O780   C786    1.278   .     A
O781   C783    1.270   .     A
O782   C784    1.286   .     A
C783   C816    1.431   .     S
C784   C815    1.466   .     S
C785   C818    1.436   .     S
C786   C817    1.458   .     S
C787   C790    1.452   .     S
C788   C789    1.475   .     S
C789   C792    1.415   .     A
C789   C793    1.399   .     A
C790   C805    1.392   .     A
C790   C806    1.388   .     A
C791   C792    1.396   .     A
C791   C795    1.400   .     A
C791   H811    1.085   .     S
C792   N848    1.435   .     S
C793   H812    1.074   .     S
C793   C794    1.409   .     A
C794   C795    1.416   .     A
C794   C796    1.429   .     A
C795   C34     1.390   1_556 S
C796   C800    1.412   .     A
C796   C32     1.426   1_556 S
C797   C803    1.429   .     A
C797   C798    1.415   .     A
C798   C799    1.385   .     A
C798   H813    1.076   .     S
C799   H807    1.085   .     S
C800   C801    1.383   .     A
C800   H814    1.074   .     S
C801   H810    1.082   .     S
C801   C37     1.396   1_556 S
C802   C803    1.426   .     A
C802   C804    1.419   .     A
C803   C806    1.410   .     A
C804   N820    1.437   .     S
C804   C805    1.395   .     A
C805   H809    1.084   .     S
C806   H808    1.077   .     S
C815   C901    1.361   .     S
C815   N908    1.445   .     S
C816   C985    1.361   1_455 S
C816   C996    1.483   1_455 S
C817   C1073   1.340   .     S
C817   C1092   1.489   .     S
C818   C1327   1.340   1_545 S
C818   H1329   1.086   1_545 S
H819   C1073   1.086   .     S
N820   O821    1.301   .     A
O822   N55     1.301   1_556 S
N823   O825    1.302   .     A
N823   O824    1.301   .     A
N823   C985    1.445   1_455 S
C826   C831    1.405   .     A
C826   C827    1.403   .     A
C826   C901    1.483   .     S
C827   H832    1.083   .     S
C827   C828    1.398   .     A
C828   H833    1.082   .     S
C828   C829    1.398   .     A
C829   H834    1.082   .     S
C829   C830    1.399   .     A
C830   H835    1.082   .     S
C830   C831    1.399   .     A
C831   H836    1.083   .     S
C837   C842    1.406   .     A
C837   C1327   1.489   1_545 S
C837   C1348   1.404   1_545 S
C838   H843    1.084   .     S
C838   C1092   1.404   .     S
C838   C1094   1.399   .     S
C839   C840    1.398   .     A
C839   H844    1.082   .     S
C839   C1348   1.399   1_545 S
C840   H845    1.082   .     S
C840   C841    1.398   .     A
C841   C842    1.398   .     A
C841   H846    1.083   .     S
C842   H847    1.082   .     S
N848   O849    1.302   .     A
N848   O850    1.301   .     A
Zn851  O855    1.963   .     S
Zn851  O863    1.929   .     S
Zn851  O857    1.932   .     S
Zn851  O864    1.925   .     S
Zn852  O866    1.938   .     S
Zn852  O855    1.945   .     S
Zn852  O860    1.930   .     S
Zn852  O858    1.934   .     S
Zn853  O859    1.930   .     S
Zn853  O862    1.937   .     S
Zn853  O855    1.932   .     S
Zn853  O867    1.948   .     S
Zn854  O856    1.941   .     S
Zn854  O855    1.939   .     S
Zn854  O861    1.941   .     S
Zn854  O865    1.926   .     S
O856   C868    1.265   .     A
O857   C869    1.274   .     A
O858   C870    1.280   .     A
O859   C871    1.270   .     A
O860   C872    1.270   .     A
O861   C873    1.283   .     A
O862   C872    1.276   .     A
O863   C873    1.289   .     A
O864   C870    1.277   .     A
O865   C871    1.278   .     A
O866   C868    1.270   .     A
O867   C869    1.286   .     A
C868   C901    1.431   .     S
C869   C900    1.466   .     S
C870   C903    1.436   .     S
C871   C902    1.458   .     S
C872   C875    1.452   .     S
C873   C874    1.475   .     S
C874   C877    1.415   .     A
C874   C878    1.399   .     A
C875   C890    1.392   .     A
C875   C891    1.388   .     A
C876   C877    1.396   .     A
C876   C880    1.400   .     A
C876   H896    1.085   .     S
C877   N933    1.435   .     S
C878   H897    1.074   .     S
C878   C879    1.409   .     A
C879   C880    1.416   .     A
C879   C881    1.429   .     A
C880   C119    1.390   1_556 S
C881   C885    1.412   .     A
C881   C117    1.426   1_556 S
C882   C888    1.429   .     A
C882   C883    1.415   .     A
C883   C884    1.385   .     A
C883   H898    1.076   .     S
C884   H892    1.085   .     S
C885   C886    1.383   .     A
C885   H899    1.074   .     S
C886   H895    1.082   .     S
C886   C122    1.396   1_556 S
C887   C888    1.426   .     A
C887   C889    1.419   .     A
C888   C891    1.410   .     A
C889   N905    1.437   .     S
C889   C890    1.395   .     A
C890   H894    1.084   .     S
C891   H893    1.077   .     S
C900   C986    1.361   .     S
C900   N993    1.445   .     S
C902   C1158   1.340   .     S
C902   C1177   1.489   .     S
C903   C1412   1.340   1_545 S
C903   H1414   1.086   1_545 S
H904   C1158   1.086   .     S
N905   O906    1.301   .     A
O907   N140    1.301   1_556 S
N908   O910    1.302   .     A
N908   O909    1.301   .     A
C911   C916    1.405   .     A
C911   C912    1.403   .     A
C911   C986    1.483   .     S
C912   H917    1.083   .     S
C912   C913    1.398   .     A
C913   H918    1.082   .     S
C913   C914    1.398   .     A
C914   H919    1.082   .     S
C914   C915    1.399   .     A
C915   H920    1.082   .     S
C915   C916    1.399   .     A
C916   H921    1.083   .     S
C922   C927    1.406   .     A
C922   C1412   1.489   1_545 S
C922   C1433   1.404   1_545 S
C923   H928    1.084   .     S
C923   C1177   1.404   .     S
C923   C1179   1.399   .     S
C924   C925    1.398   .     A
C924   H929    1.082   .     S
C924   C1433   1.399   1_545 S
C925   H930    1.082   .     S
C925   C926    1.398   .     A
C926   C927    1.398   .     A
C926   H931    1.083   .     S
C927   H932    1.082   .     S
N933   O934    1.302   .     A
N933   O935    1.301   .     A
Zn936  O940    1.963   .     S
Zn936  O948    1.929   .     S
Zn936  O942    1.932   .     S
Zn936  O949    1.925   .     S
Zn937  O951    1.938   .     S
Zn937  O940    1.945   .     S
Zn937  O945    1.930   .     S
Zn937  O943    1.934   .     S
Zn938  O944    1.930   .     S
Zn938  O947    1.937   .     S
Zn938  O940    1.932   .     S
Zn938  O952    1.948   .     S
Zn939  O941    1.941   .     S
Zn939  O940    1.939   .     S
Zn939  O946    1.941   .     S
Zn939  O950    1.926   .     S
O941   C953    1.265   .     A
O942   C954    1.274   .     A
O943   C955    1.280   .     A
O944   C956    1.270   .     A
O945   C957    1.270   .     A
O946   C958    1.283   .     A
O947   C957    1.276   .     A
O948   C958    1.289   .     A
O949   C955    1.277   .     A
O950   C956    1.278   .     A
O951   C953    1.270   .     A
O952   C954    1.286   .     A
C953   C986    1.431   .     S
C954   C985    1.466   .     S
C955   C988    1.436   .     S
C956   C987    1.458   .     S
C957   C960    1.452   .     S
C958   C959    1.475   .     S
C959   C962    1.415   .     A
C959   C963    1.399   .     A
C960   C975    1.392   .     A
C960   C976    1.388   .     A
C961   C962    1.396   .     A
C961   C965    1.400   .     A
C961   H981    1.085   .     S
C962   N1018   1.435   .     S
C963   H982    1.074   .     S
C963   C964    1.409   .     A
C964   C965    1.416   .     A
C964   C966    1.429   .     A
C965   C204    1.390   1_556 S
C966   C970    1.412   .     A
C966   C202    1.426   1_556 S
C967   C973    1.429   .     A
C967   C968    1.415   .     A
C968   C969    1.385   .     A
C968   H983    1.076   .     S
C969   H977    1.085   .     S
C970   C971    1.383   .     A
C970   H984    1.074   .     S
C971   H980    1.082   .     S
C971   C207    1.396   1_556 S
C972   C973    1.426   .     A
C972   C974    1.419   .     A
C973   C976    1.410   .     A
C974   N990    1.437   .     S
C974   C975    1.395   .     A
C975   H979    1.084   .     S
C976   H978    1.077   .     S
C985   C816    1.361   1_655 S
C985   N823    1.445   1_655 S
C987   C1243   1.340   .     S
C987   C1262   1.489   .     S
C988   C1497   1.340   1_545 S
C988   H1499   1.086   1_545 S
H989   C1243   1.086   .     S
N990   O991    1.301   .     A
O992   N225    1.301   1_556 S
N993   O995    1.302   .     A
N993   O994    1.301   .     A
C996   C1001   1.405   .     A
C996   C997    1.403   .     A
C996   C816    1.483   1_655 S
C997   H1002   1.083   .     S
C997   C998    1.398   .     A
C998   H1003   1.082   .     S
C998   C999    1.398   .     A
C999   H1004   1.082   .     S
C999   C1000   1.399   .     A
C1000  H1005   1.082   .     S
C1000  C1001   1.399   .     A
C1001  H1006   1.083   .     S
C1007  C1012   1.406   .     A
C1007  C1497   1.489   1_545 S
C1007  C1518   1.404   1_545 S
C1008  H1013   1.084   .     S
C1008  C1262   1.404   .     S
C1008  C1264   1.399   .     S
C1009  C1010   1.398   .     A
C1009  H1014   1.082   .     S
C1009  C1518   1.399   1_545 S
C1010  H1015   1.082   .     S
C1010  C1011   1.398   .     A
C1011  C1012   1.398   .     A
C1011  H1016   1.083   .     S
C1012  H1017   1.082   .     S
N1018  O1019   1.302   .     A
N1018  O1020   1.301   .     A
Zn1021 O1025   1.963   .     S
Zn1021 O1033   1.929   .     S
Zn1021 O1027   1.932   .     S
Zn1021 O1034   1.925   .     S
Zn1022 O1036   1.938   .     S
Zn1022 O1025   1.945   .     S
Zn1022 O1030   1.930   .     S
Zn1022 O1028   1.934   .     S
Zn1023 O1029   1.930   .     S
Zn1023 O1032   1.937   .     S
Zn1023 O1025   1.932   .     S
Zn1023 O1037   1.948   .     S
Zn1024 O1026   1.941   .     S
Zn1024 O1025   1.939   .     S
Zn1024 O1031   1.941   .     S
Zn1024 O1035   1.926   .     S
O1026  C1038   1.265   .     A
O1027  C1039   1.274   .     A
O1028  C1040   1.280   .     A
O1029  C1041   1.270   .     A
O1030  C1042   1.270   .     A
O1031  C1043   1.283   .     A
O1032  C1042   1.276   .     A
O1033  C1043   1.289   .     A
O1034  C1040   1.277   .     A
O1035  C1041   1.278   .     A
O1036  C1038   1.270   .     A
O1037  C1039   1.286   .     A
C1038  C1071   1.431   .     S
C1039  C1070   1.466   .     S
C1040  C1073   1.436   .     S
C1041  C1072   1.458   .     S
C1042  C1045   1.452   .     S
C1043  C1044   1.475   .     S
C1044  C1047   1.415   .     A
C1044  C1048   1.399   .     A
C1045  C1060   1.392   .     A
C1045  C1061   1.388   .     A
C1046  C1047   1.396   .     A
C1046  C1050   1.400   .     A
C1046  H1066   1.085   .     S
C1047  N1103   1.435   .     S
C1048  H1067   1.074   .     S
C1048  C1049   1.409   .     A
C1049  C1050   1.416   .     A
C1049  C1051   1.429   .     A
C1050  C289    1.390   1_556 S
C1051  C1055   1.412   .     A
C1051  C287    1.426   1_556 S
C1052  C1058   1.429   .     A
C1052  C1053   1.415   .     A
C1053  C1054   1.385   .     A
C1053  H1068   1.076   .     S
C1054  H1062   1.085   .     S
C1055  C1056   1.383   .     A
C1055  H1069   1.074   .     S
C1056  H1065   1.082   .     S
C1056  C292    1.396   1_556 S
C1057  C1058   1.426   .     A
C1057  C1059   1.419   .     A
C1058  C1061   1.410   .     A
C1059  N1075   1.437   .     S
C1059  C1060   1.395   .     A
C1060  H1064   1.084   .     S
C1061  H1063   1.077   .     S
C1070  C1156   1.361   .     S
C1070  N1163   1.445   .     S
C1071  C1240   1.361   1_455 S
C1071  C1251   1.483   1_455 S
C1072  C1328   1.340   .     S
C1072  C1347   1.489   .     S
H1074  C1328   1.086   .     S
N1075  O1076   1.301   .     A
O1077  N310    1.301   1_556 S
N1078  O1080   1.302   .     A
N1078  O1079   1.301   .     A
N1078  C1240   1.445   1_455 S
C1081  C1086   1.405   .     A
C1081  C1082   1.403   .     A
C1081  C1156   1.483   .     S
C1082  H1087   1.083   .     S
C1082  C1083   1.398   .     A
C1083  H1088   1.082   .     S
C1083  C1084   1.398   .     A
C1084  H1089   1.082   .     S
C1084  C1085   1.399   .     A
C1085  H1090   1.082   .     S
C1085  C1086   1.399   .     A
C1086  H1091   1.083   .     S
C1092  C1097   1.406   .     A
C1093  H1098   1.084   .     S
C1093  C1347   1.404   .     S
C1093  C1349   1.399   .     S
C1094  C1095   1.398   .     A
C1094  H1099   1.082   .     S
C1095  H1100   1.082   .     S
C1095  C1096   1.398   .     A
C1096  C1097   1.398   .     A
C1096  H1101   1.083   .     S
C1097  H1102   1.082   .     S
N1103  O1104   1.302   .     A
N1103  O1105   1.301   .     A
Zn1106 O1110   1.963   .     S
Zn1106 O1118   1.929   .     S
Zn1106 O1112   1.932   .     S
Zn1106 O1119   1.925   .     S
Zn1107 O1121   1.938   .     S
Zn1107 O1110   1.945   .     S
Zn1107 O1115   1.930   .     S
Zn1107 O1113   1.934   .     S
Zn1108 O1114   1.930   .     S
Zn1108 O1117   1.937   .     S
Zn1108 O1110   1.932   .     S
Zn1108 O1122   1.948   .     S
Zn1109 O1111   1.941   .     S
Zn1109 O1110   1.939   .     S
Zn1109 O1116   1.941   .     S
Zn1109 O1120   1.926   .     S
O1111  C1123   1.265   .     A
O1112  C1124   1.274   .     A
O1113  C1125   1.280   .     A
O1114  C1126   1.270   .     A
O1115  C1127   1.270   .     A
O1116  C1128   1.283   .     A
O1117  C1127   1.276   .     A
O1118  C1128   1.289   .     A
O1119  C1125   1.277   .     A
O1120  C1126   1.278   .     A
O1121  C1123   1.270   .     A
O1122  C1124   1.286   .     A
C1123  C1156   1.431   .     S
C1124  C1155   1.466   .     S
C1125  C1158   1.436   .     S
C1126  C1157   1.458   .     S
C1127  C1130   1.452   .     S
C1128  C1129   1.475   .     S
C1129  C1132   1.415   .     A
C1129  C1133   1.399   .     A
C1130  C1145   1.392   .     A
C1130  C1146   1.388   .     A
C1131  C1132   1.396   .     A
C1131  C1135   1.400   .     A
C1131  H1151   1.085   .     S
C1132  N1188   1.435   .     S
C1133  H1152   1.074   .     S
C1133  C1134   1.409   .     A
C1134  C1135   1.416   .     A
C1134  C1136   1.429   .     A
C1135  C374    1.390   1_556 S
C1136  C1140   1.412   .     A
C1136  C372    1.426   1_556 S
C1137  C1143   1.429   .     A
C1137  C1138   1.415   .     A
C1138  C1139   1.385   .     A
C1138  H1153   1.076   .     S
C1139  H1147   1.085   .     S
C1140  C1141   1.383   .     A
C1140  H1154   1.074   .     S
C1141  H1150   1.082   .     S
C1141  C377    1.396   1_556 S
C1142  C1143   1.426   .     A
C1142  C1144   1.419   .     A
C1143  C1146   1.410   .     A
C1144  N1160   1.437   .     S
C1144  C1145   1.395   .     A
C1145  H1149   1.084   .     S
C1146  H1148   1.077   .     S
C1155  C1241   1.361   .     S
C1155  N1248   1.445   .     S
C1157  C1413   1.340   .     S
C1157  C1432   1.489   .     S
H1159  C1413   1.086   .     S
N1160  O1161   1.301   .     A
O1162  N395    1.301   1_556 S
N1163  O1165   1.302   .     A
N1163  O1164   1.301   .     A
C1166  C1171   1.405   .     A
C1166  C1167   1.403   .     A
C1166  C1241   1.483   .     S
C1167  H1172   1.083   .     S
C1167  C1168   1.398   .     A
C1168  H1173   1.082   .     S
C1168  C1169   1.398   .     A
C1169  H1174   1.082   .     S
C1169  C1170   1.399   .     A
C1170  H1175   1.082   .     S
C1170  C1171   1.399   .     A
C1171  H1176   1.083   .     S
C1177  C1182   1.406   .     A
C1178  H1183   1.084   .     S
C1178  C1432   1.404   .     S
C1178  C1434   1.399   .     S
C1179  C1180   1.398   .     A
C1179  H1184   1.082   .     S
C1180  H1185   1.082   .     S
C1180  C1181   1.398   .     A
C1181  C1182   1.398   .     A
C1181  H1186   1.083   .     S
C1182  H1187   1.082   .     S
N1188  O1189   1.302   .     A
N1188  O1190   1.301   .     A
Zn1191 O1195   1.963   .     S
Zn1191 O1203   1.929   .     S
Zn1191 O1197   1.932   .     S
Zn1191 O1204   1.925   .     S
Zn1192 O1206   1.938   .     S
Zn1192 O1195   1.945   .     S
Zn1192 O1200   1.930   .     S
Zn1192 O1198   1.934   .     S
Zn1193 O1199   1.930   .     S
Zn1193 O1202   1.937   .     S
Zn1193 O1195   1.932   .     S
Zn1193 O1207   1.948   .     S
Zn1194 O1196   1.941   .     S
Zn1194 O1195   1.939   .     S
Zn1194 O1201   1.941   .     S
Zn1194 O1205   1.926   .     S
O1196  C1208   1.265   .     A
O1197  C1209   1.274   .     A
O1198  C1210   1.280   .     A
O1199  C1211   1.270   .     A
O1200  C1212   1.270   .     A
O1201  C1213   1.283   .     A
O1202  C1212   1.276   .     A
O1203  C1213   1.289   .     A
O1204  C1210   1.277   .     A
O1205  C1211   1.278   .     A
O1206  C1208   1.270   .     A
O1207  C1209   1.286   .     A
C1208  C1241   1.431   .     S
C1209  C1240   1.466   .     S
C1210  C1243   1.436   .     S
C1211  C1242   1.458   .     S
C1212  C1215   1.452   .     S
C1213  C1214   1.475   .     S
C1214  C1217   1.415   .     A
C1214  C1218   1.399   .     A
C1215  C1230   1.392   .     A
C1215  C1231   1.388   .     A
C1216  C1217   1.396   .     A
C1216  C1220   1.400   .     A
C1216  H1236   1.085   .     S
C1217  N1273   1.435   .     S
C1218  H1237   1.074   .     S
C1218  C1219   1.409   .     A
C1219  C1220   1.416   .     A
C1219  C1221   1.429   .     A
C1220  C459    1.390   1_556 S
C1221  C1225   1.412   .     A
C1221  C457    1.426   1_556 S
C1222  C1228   1.429   .     A
C1222  C1223   1.415   .     A
C1223  C1224   1.385   .     A
C1223  H1238   1.076   .     S
C1224  H1232   1.085   .     S
C1225  C1226   1.383   .     A
C1225  H1239   1.074   .     S
C1226  H1235   1.082   .     S
C1226  C462    1.396   1_556 S
C1227  C1228   1.426   .     A
C1227  C1229   1.419   .     A
C1228  C1231   1.410   .     A
C1229  N1245   1.437   .     S
C1229  C1230   1.395   .     A
C1230  H1234   1.084   .     S
C1231  H1233   1.077   .     S
C1240  C1071   1.361   1_655 S
C1240  N1078   1.445   1_655 S
C1242  C1498   1.340   .     S
C1242  C1517   1.489   .     S
H1244  C1498   1.086   .     S
N1245  O1246   1.301   .     A
O1247  N480    1.301   1_556 S
N1248  O1250   1.302   .     A
N1248  O1249   1.301   .     A
C1251  C1256   1.405   .     A
C1251  C1252   1.403   .     A
C1251  C1071   1.483   1_655 S
C1252  H1257   1.083   .     S
C1252  C1253   1.398   .     A
C1253  H1258   1.082   .     S
C1253  C1254   1.398   .     A
C1254  H1259   1.082   .     S
C1254  C1255   1.399   .     A
C1255  H1260   1.082   .     S
C1255  C1256   1.399   .     A
C1256  H1261   1.083   .     S
C1262  C1267   1.406   .     A
C1263  H1268   1.084   .     S
C1263  C1517   1.404   .     S
C1263  C1519   1.399   .     S
C1264  C1265   1.398   .     A
C1264  H1269   1.082   .     S
C1265  H1270   1.082   .     S
C1265  C1266   1.398   .     A
C1266  C1267   1.398   .     A
C1266  H1271   1.083   .     S
C1267  H1272   1.082   .     S
N1273  O1274   1.302   .     A
N1273  O1275   1.301   .     A
Zn1276 O1280   1.963   .     S
Zn1276 O1288   1.929   .     S
Zn1276 O1282   1.932   .     S
Zn1276 O1289   1.925   .     S
Zn1277 O1291   1.938   .     S
Zn1277 O1280   1.945   .     S
Zn1277 O1285   1.930   .     S
Zn1277 O1283   1.934   .     S
Zn1278 O1284   1.930   .     S
Zn1278 O1287   1.937   .     S
Zn1278 O1280   1.932   .     S
Zn1278 O1292   1.948   .     S
Zn1279 O1281   1.941   .     S
Zn1279 O1280   1.939   .     S
Zn1279 O1286   1.941   .     S
Zn1279 O1290   1.926   .     S
O1281  C1293   1.265   .     A
O1282  C1294   1.274   .     A
O1283  C1295   1.280   .     A
O1284  C1296   1.270   .     A
O1285  C1297   1.270   .     A
O1286  C1298   1.283   .     A
O1287  C1297   1.276   .     A
O1288  C1298   1.289   .     A
O1289  C1295   1.277   .     A
O1290  C1296   1.278   .     A
O1291  C1293   1.270   .     A
O1292  C1294   1.286   .     A
C1293  C1326   1.431   .     S
C1294  C1325   1.466   .     S
C1295  C1328   1.436   .     S
C1296  C1327   1.458   .     S
C1297  C1300   1.452   .     S
C1298  C1299   1.475   .     S
C1299  C1302   1.415   .     A
C1299  C1303   1.399   .     A
C1300  C1315   1.392   .     A
C1300  C1316   1.388   .     A
C1301  C1302   1.396   .     A
C1301  C1305   1.400   .     A
C1301  H1321   1.085   .     S
C1302  N1358   1.435   .     S
C1303  H1322   1.074   .     S
C1303  C1304   1.409   .     A
C1304  C1305   1.416   .     A
C1304  C1306   1.429   .     A
C1305  C544    1.390   1_556 S
C1306  C1310   1.412   .     A
C1306  C542    1.426   1_556 S
C1307  C1313   1.429   .     A
C1307  C1308   1.415   .     A
C1308  C1309   1.385   .     A
C1308  H1323   1.076   .     S
C1309  H1317   1.085   .     S
C1310  C1311   1.383   .     A
C1310  H1324   1.074   .     S
C1311  H1320   1.082   .     S
C1311  C547    1.396   1_556 S
C1312  C1313   1.426   .     A
C1312  C1314   1.419   .     A
C1313  C1316   1.410   .     A
C1314  N1330   1.437   .     S
C1314  C1315   1.395   .     A
C1315  H1319   1.084   .     S
C1316  H1318   1.077   .     S
C1325  C1411   1.361   .     S
C1325  N1418   1.445   .     S
C1326  C1495   1.361   1_455 S
C1326  C1506   1.483   1_455 S
C1327  C818    1.340   1_565 S
C1327  C837    1.489   1_565 S
H1329  C818    1.086   1_565 S
N1330  O1331   1.301   .     A
O1332  N565    1.301   1_556 S
N1333  O1335   1.302   .     A
N1333  O1334   1.301   .     A
N1333  C1495   1.445   1_455 S
C1336  C1341   1.405   .     A
C1336  C1337   1.403   .     A
C1336  C1411   1.483   .     S
C1337  H1342   1.083   .     S
C1337  C1338   1.398   .     A
C1338  H1343   1.082   .     S
C1338  C1339   1.398   .     A
C1339  H1344   1.082   .     S
C1339  C1340   1.399   .     A
C1340  H1345   1.082   .     S
C1340  C1341   1.399   .     A
C1341  H1346   1.083   .     S
C1347  C1352   1.406   .     A
C1348  H1353   1.084   .     S
C1348  C837    1.404   1_565 S
C1348  C839    1.399   1_565 S
C1349  C1350   1.398   .     A
C1349  H1354   1.082   .     S
C1350  H1355   1.082   .     S
C1350  C1351   1.398   .     A
C1351  C1352   1.398   .     A
C1351  H1356   1.083   .     S
C1352  H1357   1.082   .     S
N1358  O1359   1.302   .     A
N1358  O1360   1.301   .     A
Zn1361 O1365   1.963   .     S
Zn1361 O1373   1.929   .     S
Zn1361 O1367   1.932   .     S
Zn1361 O1374   1.925   .     S
Zn1362 O1376   1.938   .     S
Zn1362 O1365   1.945   .     S
Zn1362 O1370   1.930   .     S
Zn1362 O1368   1.934   .     S
Zn1363 O1369   1.930   .     S
Zn1363 O1372   1.937   .     S
Zn1363 O1365   1.932   .     S
Zn1363 O1377   1.948   .     S
Zn1364 O1366   1.941   .     S
Zn1364 O1365   1.939   .     S
Zn1364 O1371   1.941   .     S
Zn1364 O1375   1.926   .     S
O1366  C1378   1.265   .     A
O1367  C1379   1.274   .     A
O1368  C1380   1.280   .     A
O1369  C1381   1.270   .     A
O1370  C1382   1.270   .     A
O1371  C1383   1.283   .     A
O1372  C1382   1.276   .     A
O1373  C1383   1.289   .     A
O1374  C1380   1.277   .     A
O1375  C1381   1.278   .     A
O1376  C1378   1.270   .     A
O1377  C1379   1.286   .     A
C1378  C1411   1.431   .     S
C1379  C1410   1.466   .     S
C1380  C1413   1.436   .     S
C1381  C1412   1.458   .     S
C1382  C1385   1.452   .     S
C1383  C1384   1.475   .     S
C1384  C1387   1.415   .     A
C1384  C1388   1.399   .     A
C1385  C1400   1.392   .     A
C1385  C1401   1.388   .     A
C1386  C1387   1.396   .     A
C1386  C1390   1.400   .     A
C1386  H1406   1.085   .     S
C1387  N1443   1.435   .     S
C1388  H1407   1.074   .     S
C1388  C1389   1.409   .     A
C1389  C1390   1.416   .     A
C1389  C1391   1.429   .     A
C1390  C629    1.390   1_556 S
C1391  C1395   1.412   .     A
C1391  C627    1.426   1_556 S
C1392  C1398   1.429   .     A
C1392  C1393   1.415   .     A
C1393  C1394   1.385   .     A
C1393  H1408   1.076   .     S
C1394  H1402   1.085   .     S
C1395  C1396   1.383   .     A
C1395  H1409   1.074   .     S
C1396  H1405   1.082   .     S
C1396  C632    1.396   1_556 S
C1397  C1398   1.426   .     A
C1397  C1399   1.419   .     A
C1398  C1401   1.410   .     A
C1399  N1415   1.437   .     S
C1399  C1400   1.395   .     A
C1400  H1404   1.084   .     S
C1401  H1403   1.077   .     S
C1410  C1496   1.361   .     S
C1410  N1503   1.445   .     S
C1412  C903    1.340   1_565 S
C1412  C922    1.489   1_565 S
H1414  C903    1.086   1_565 S
N1415  O1416   1.301   .     A
O1417  N650    1.301   1_556 S
N1418  O1420   1.302   .     A
N1418  O1419   1.301   .     A
C1421  C1426   1.405   .     A
C1421  C1422   1.403   .     A
C1421  C1496   1.483   .     S
C1422  H1427   1.083   .     S
C1422  C1423   1.398   .     A
C1423  H1428   1.082   .     S
C1423  C1424   1.398   .     A
C1424  H1429   1.082   .     S
C1424  C1425   1.399   .     A
C1425  H1430   1.082   .     S
C1425  C1426   1.399   .     A
C1426  H1431   1.083   .     S
C1432  C1437   1.406   .     A
C1433  H1438   1.084   .     S
C1433  C922    1.404   1_565 S
C1433  C924    1.399   1_565 S
C1434  C1435   1.398   .     A
C1434  H1439   1.082   .     S
C1435  H1440   1.082   .     S
C1435  C1436   1.398   .     A
C1436  C1437   1.398   .     A
C1436  H1441   1.083   .     S
C1437  H1442   1.082   .     S
N1443  O1444   1.302   .     A
N1443  O1445   1.301   .     A
Zn1446 O1450   1.963   .     S
Zn1446 O1458   1.929   .     S
Zn1446 O1452   1.932   .     S
Zn1446 O1459   1.925   .     S
Zn1447 O1461   1.938   .     S
Zn1447 O1450   1.945   .     S
Zn1447 O1455   1.930   .     S
Zn1447 O1453   1.934   .     S
Zn1448 O1454   1.930   .     S
Zn1448 O1457   1.937   .     S
Zn1448 O1450   1.932   .     S
Zn1448 O1462   1.948   .     S
Zn1449 O1451   1.941   .     S
Zn1449 O1450   1.939   .     S
Zn1449 O1456   1.941   .     S
Zn1449 O1460   1.926   .     S
O1451  C1463   1.265   .     A
O1452  C1464   1.274   .     A
O1453  C1465   1.280   .     A
O1454  C1466   1.270   .     A
O1455  C1467   1.270   .     A
O1456  C1468   1.283   .     A
O1457  C1467   1.276   .     A
O1458  C1468   1.289   .     A
O1459  C1465   1.277   .     A
O1460  C1466   1.278   .     A
O1461  C1463   1.270   .     A
O1462  C1464   1.286   .     A
C1463  C1496   1.431   .     S
C1464  C1495   1.466   .     S
C1465  C1498   1.436   .     S
C1466  C1497   1.458   .     S
C1467  C1470   1.452   .     S
C1468  C1469   1.475   .     S
C1469  C1472   1.415   .     A
C1469  C1473   1.399   .     A
C1470  C1485   1.392   .     A
C1470  C1486   1.388   .     A
C1471  C1472   1.396   .     A
C1471  C1475   1.400   .     A
C1471  H1491   1.085   .     S
C1472  N1528   1.435   .     S
C1473  H1492   1.074   .     S
C1473  C1474   1.409   .     A
C1474  C1475   1.416   .     A
C1474  C1476   1.429   .     A
C1475  C714    1.390   1_556 S
C1476  C1480   1.412   .     A
C1476  C712    1.426   1_556 S
C1477  C1483   1.429   .     A
C1477  C1478   1.415   .     A
C1478  C1479   1.385   .     A
C1478  H1493   1.076   .     S
C1479  H1487   1.085   .     S
C1480  C1481   1.383   .     A
C1480  H1494   1.074   .     S
C1481  H1490   1.082   .     S
C1481  C717    1.396   1_556 S
C1482  C1483   1.426   .     A
C1482  C1484   1.419   .     A
C1483  C1486   1.410   .     A
C1484  N1500   1.437   .     S
C1484  C1485   1.395   .     A
C1485  H1489   1.084   .     S
C1486  H1488   1.077   .     S
C1495  C1326   1.361   1_655 S
C1495  N1333   1.445   1_655 S
C1497  C988    1.340   1_565 S
C1497  C1007   1.489   1_565 S
H1499  C988    1.086   1_565 S
N1500  O1501   1.301   .     A
O1502  N735    1.301   1_556 S
N1503  O1505   1.302   .     A
N1503  O1504   1.301   .     A
C1506  C1511   1.405   .     A
C1506  C1507   1.403   .     A
C1506  C1326   1.483   1_655 S
C1507  H1512   1.083   .     S
C1507  C1508   1.398   .     A
C1508  H1513   1.082   .     S
C1508  C1509   1.398   .     A
C1509  H1514   1.082   .     S
C1509  C1510   1.399   .     A
C1510  H1515   1.082   .     S
C1510  C1511   1.399   .     A
C1511  H1516   1.083   .     S
C1517  C1522   1.406   .     A
C1518  H1523   1.084   .     S
C1518  C1007   1.404   1_565 S
C1518  C1009   1.399   1_565 S
C1519  C1520   1.398   .     A
C1519  H1524   1.082   .     S
C1520  H1525   1.082   .     S
C1520  C1521   1.398   .     A
C1521  C1522   1.398   .     A
C1521  H1526   1.083   .     S
C1522  H1527   1.082   .     S
N1528  O1529   1.302   .     A
N1528  O1530   1.301   .     A
