data_str_m1_o5_o17_pcu_sym.12
_audit_creation_date              2020-01-03
_audit_creation_method            'Materials Studio'
_symmetry_space_group_name_H-M    'P1'
_symmetry_Int_Tables_number       1
_symmetry_cell_setting            triclinic
loop_
_symmetry_equiv_pos_as_xyz
  x,y,z
_cell_length_a                    31.7681
_cell_length_b                    31.7682
_cell_length_c                    34.5699
_cell_angle_alpha                 90.0004
_cell_angle_beta                  90.0005
_cell_angle_gamma                 89.9119
loop_
_atom_site_label
_atom_site_type_symbol
_atom_site_fract_x
_atom_site_fract_y
_atom_site_fract_z
_atom_site_U_iso_or_equiv
_atom_site_adp_type
_atom_site_occupancy
C1     C     0.25000   0.00000   0.35577   0.00000  Uiso   1.00
C2     C     0.33001   0.41999   0.75000   0.00000  Uiso   1.00
C3     C     0.42975   0.28034   0.01998   0.00000  Uiso   1.00
C4     C     0.21904   0.06996   0.98002   0.00000  Uiso   1.00
C5     C     0.28096   0.43004   0.01998   0.00000  Uiso   1.00
C6     C     0.42974   0.28032   0.98002   0.00000  Uiso   1.00
C7     C     0.07025   0.21966   0.01998   0.00000  Uiso   1.00
C8     C     0.47221   0.32540   0.39528   0.00000  Uiso   1.00
C9     C     0.42440   0.32783   0.39063   0.00000  Uiso   1.00
C10    C     0.02779   0.17460   0.60472   0.00000  Uiso   1.00
C11    C     0.07560   0.17217   0.60937   0.00000  Uiso   1.00
C12    C     0.17486   0.02848   0.39529   0.00000  Uiso   1.00
C13    C     0.41998   0.16998   0.25000   0.00000  Uiso   1.00
C14    C     0.17287   0.07630   0.39064   0.00000  Uiso   1.00
C15    C     0.32514   0.47153   0.60471   0.00000  Uiso   1.00
C16    C     0.32714   0.42370   0.60935   0.00000  Uiso   1.00
C17    C     0.02778   0.17460   0.39528   0.00000  Uiso   1.00
C18    C     0.07560   0.17217   0.39063   0.00000  Uiso   1.00
C19    C     0.47222   0.32541   0.60472   0.00000  Uiso   1.00
C20    C     0.42441   0.32783   0.60938   0.00000  Uiso   1.00
C21    C     0.32514   0.47153   0.39529   0.00000  Uiso   1.00
C22    C     0.32715   0.42370   0.39065   0.00000  Uiso   1.00
C23    C     0.17486   0.02847   0.60471   0.00000  Uiso   1.00
C24    C     0.08002   0.33002   0.75000   0.00000  Uiso   1.00
C25    C     0.17285   0.07630   0.60935   0.00000  Uiso   1.00
C26    C     0.22158   0.07516   0.89529   0.00000  Uiso   1.00
C27    C     0.17376   0.07720   0.89065   0.00000  Uiso   1.00
C28    C     0.27842   0.42484   0.10471   0.00000  Uiso   1.00
C29    C     0.32625   0.42280   0.10935   0.00000  Uiso   1.00
C30    C     0.42455   0.27765   0.89528   0.00000  Uiso   1.00
C31    C     0.42203   0.32545   0.89058   0.00000  Uiso   1.00
C32    C     0.07540   0.22220   0.10472   0.00000  Uiso   1.00
C33    C     0.07781   0.17439   0.10936   0.00000  Uiso   1.00
C34    C     0.27842   0.42484   0.89529   0.00000  Uiso   1.00
C35    C     0.33001   0.41999   0.25000   0.00000  Uiso   1.00
C36    C     0.32624   0.42280   0.89064   0.00000  Uiso   1.00
C37    C     0.22157   0.07516   0.10471   0.00000  Uiso   1.00
C38    C     0.17375   0.07719   0.10935   0.00000  Uiso   1.00
C39    C     0.07545   0.22234   0.89528   0.00000  Uiso   1.00
C40    C     0.07795   0.17453   0.89059   0.00000  Uiso   1.00
C41    C     0.42460   0.27780   0.10472   0.00000  Uiso   1.00
C42    C     0.42219   0.32561   0.10936   0.00000  Uiso   1.00
C43    C     0.16999   0.08001   0.75000   0.00000  Uiso   1.00
C44    C     0.08002   0.33002   0.25000   0.00000  Uiso   1.00
C45    C     0.41998   0.16998   0.75000   0.00000  Uiso   1.00
C46    C     0.16998   0.41998   0.75000   0.00000  Uiso   1.00
C47    C     0.33002   0.08002   0.25000   0.00000  Uiso   1.00
C48    C     0.41999   0.33001   0.75000   0.00000  Uiso   1.00
C49    C     0.25000   0.00000   0.64423   0.00000  Uiso   1.00
C50    C     0.08001   0.16999   0.25000   0.00000  Uiso   1.00
C51    C     0.33002   0.08002   0.75000   0.00000  Uiso   1.00
C52    C     0.16998   0.41998   0.25000   0.00000  Uiso   1.00
C53    C     0.08001   0.16999   0.75000   0.00000  Uiso   1.00
C54    C     0.41999   0.33001   0.25000   0.00000  Uiso   1.00
C55    C     0.13833   0.38833   0.25000   0.00000  Uiso   1.00
C56    C     0.36167   0.11167   0.75000   0.00000  Uiso   1.00
C57    C     0.11166   0.13834   0.25000   0.00000  Uiso   1.00
C58    C     0.38834   0.36166   0.75000   0.00000  Uiso   1.00
C59    C     0.36167   0.11167   0.25000   0.00000  Uiso   1.00
C60    C    -0.00000   0.25000   0.35577   0.00000  Uiso   1.00
C61    C     0.13833   0.38833   0.75000   0.00000  Uiso   1.00
C62    C     0.38834   0.36166   0.25000   0.00000  Uiso   1.00
C63    C     0.11166   0.13834   0.75000   0.00000  Uiso   1.00
C64    C     0.13834   0.11166   0.75000   0.00000  Uiso   1.00
C65    C     0.36166   0.38834   0.25000   0.00000  Uiso   1.00
C66    C     0.11167   0.36167   0.75000   0.00000  Uiso   1.00
C67    C     0.38833   0.13833   0.25000   0.00000  Uiso   1.00
C68    C     0.36166   0.38834   0.75000   0.00000  Uiso   1.00
C69    C     0.13834   0.11166   0.25000   0.00000  Uiso   1.00
C70    C     0.38833   0.13833   0.75000   0.00000  Uiso   1.00
C71    C     0.00000   0.25000   0.64423   0.00000  Uiso   1.00
C72    C     0.11167   0.36167   0.25000   0.00000  Uiso   1.00
C73    C     0.48556   0.28613   0.41794   0.00000  Uiso   1.00
C74    C     0.01444   0.21387   0.58206   0.00000  Uiso   1.00
C75    C     0.21401   0.01478   0.41794   0.00000  Uiso   1.00
C76    C     0.28599   0.48522   0.58206   0.00000  Uiso   1.00
C77    C     0.01444   0.21387   0.41794   0.00000  Uiso   1.00
C78    C     0.48556   0.28613   0.58206   0.00000  Uiso   1.00
C79    C     0.28599   0.48522   0.41794   0.00000  Uiso   1.00
C80    C     0.21401   0.01478   0.58206   0.00000  Uiso   1.00
C81    C     0.23525   0.03600   0.91794   0.00000  Uiso   1.00
C82    C     0.00000   0.25000   0.85577   0.00000  Uiso   1.00
C83    C     0.26475   0.46400   0.08206   0.00000  Uiso   1.00
C84    C     0.46385   0.26439   0.91794   0.00000  Uiso   1.00
C85    C     0.03613   0.23556   0.08206   0.00000  Uiso   1.00
C86    C     0.26475   0.46400   0.91794   0.00000  Uiso   1.00
C87    C     0.23524   0.03600   0.08206   0.00000  Uiso   1.00
C88    C     0.03615   0.23560   0.91794   0.00000  Uiso   1.00
C89    C     0.46387   0.26444   0.08206   0.00000  Uiso   1.00
C90    C    -0.00000   0.25000   0.39799   0.00000  Uiso   1.00
C91    C     0.00000   0.25000   0.60201   0.00000  Uiso   1.00
C92    C     0.25000  -0.00000   0.39799   0.00000  Uiso   1.00
C93    C     0.00000   0.25000   0.14423   0.00000  Uiso   1.00
C94    C     0.25000   0.00000   0.60201   0.00000  Uiso   1.00
C95    C     0.25000   0.00000   0.89799   0.00000  Uiso   1.00
C96    C     0.25000   0.00000   0.10201   0.00000  Uiso   1.00
C97    C     0.00000   0.25000   0.89799   0.00000  Uiso   1.00
C98    C     0.00000   0.25000   0.10201   0.00000  Uiso   1.00
C99    C     0.01509   0.21434   0.45889   0.00000  Uiso   1.00
C100   C     0.48491   0.28566   0.54111   0.00000  Uiso   1.00
C101   C     0.28551   0.48458   0.45889   0.00000  Uiso   1.00
C102   C     0.21449   0.01543   0.54111   0.00000  Uiso   1.00
C103   C     0.48491   0.28566   0.45889   0.00000  Uiso   1.00
C104   C     0.25000  -0.00000   0.85577   0.00000  Uiso   1.00
C105   C     0.01509   0.21434   0.54111   0.00000  Uiso   1.00
C106   C     0.21449   0.01543   0.45889   0.00000  Uiso   1.00
C107   C     0.28551   0.48458   0.54111   0.00000  Uiso   1.00
C108   C     0.26540   0.46448   0.95889   0.00000  Uiso   1.00
C109   C     0.23460   0.03553   0.04111   0.00000  Uiso   1.00
C110   C     0.03568   0.23494   0.95889   0.00000  Uiso   1.00
C111   C     0.46433   0.26508   0.04111   0.00000  Uiso   1.00
C112   C     0.23460   0.03553   0.95889   0.00000  Uiso   1.00
C113   C     0.26540   0.46448   0.04111   0.00000  Uiso   1.00
C114   C     0.46432   0.26506   0.95889   0.00000  Uiso   1.00
C115   C     0.25000   0.00000   0.14423   0.00000  Uiso   1.00
C116   C     0.03567   0.23492   0.04111   0.00000  Uiso   1.00
C117   C    -0.00000   0.25000   0.47937   0.00000  Uiso   1.00
C118   C     0.00000   0.25000   0.52063   0.00000  Uiso   1.00
C119   C     0.25000   0.00000   0.47938   0.00000  Uiso   1.00
C120   C     0.25000   0.00000   0.52063   0.00000  Uiso   1.00
C121   C     0.25000   0.00000   0.97938   0.00000  Uiso   1.00
C122   C     0.25000   0.00000   0.02063   0.00000  Uiso   1.00
C123   C     0.00000   0.25000   0.97937   0.00000  Uiso   1.00
C124   C     0.00000   0.25000   0.02062   0.00000  Uiso   1.00
C125   C     0.03035   0.17976   0.48002   0.00000  Uiso   1.00
C126   C     0.16999   0.08001   0.25000   0.00000  Uiso   1.00
C127   C     0.46964   0.32024   0.51998   0.00000  Uiso   1.00
C128   C     0.31994   0.46899   0.48002   0.00000  Uiso   1.00
C129   C     0.18007   0.03102   0.51998   0.00000  Uiso   1.00
C130   C     0.46964   0.32024   0.48002   0.00000  Uiso   1.00
C131   C     0.03036   0.17976   0.51998   0.00000  Uiso   1.00
C132   C     0.18007   0.03102   0.48002   0.00000  Uiso   1.00
C133   C     0.31994   0.46899   0.51998   0.00000  Uiso   1.00
C134   C     0.28096   0.43004   0.98002   0.00000  Uiso   1.00
C135   C     0.21904   0.06996   0.01998   0.00000  Uiso   1.00
C136   C     0.07026   0.21968   0.98002   0.00000  Uiso   1.00
H137   H     0.04292   0.15195   0.46631   0.00000  Uiso   1.00
H138   H     0.20624   0.09767   0.03369   0.00000  Uiso   1.00
H139   H     0.09809   0.20712   0.96631   0.00000  Uiso   1.00
H140   H     0.40193   0.29291   0.03369   0.00000  Uiso   1.00
H141   H     0.20624   0.09767   0.96632   0.00000  Uiso   1.00
H142   H     0.29376   0.40233   0.03369   0.00000  Uiso   1.00
H143   H     0.40191   0.29287   0.96631   0.00000  Uiso   1.00
H144   H     0.09807   0.20709   0.03369   0.00000  Uiso   1.00
H145   H     0.41266   0.30015   0.37431   0.00000  Uiso   1.00
H146   H     0.40839   0.32879   0.41913   0.00000  Uiso   1.00
H147   H     0.41596   0.35675   0.37433   0.00000  Uiso   1.00
H148   H     0.45707   0.34805   0.53369   0.00000  Uiso   1.00
H149   H     0.48438   0.35441   0.40919   0.00000  Uiso   1.00
H150   H     0.48662   0.32646   0.36607   0.00000  Uiso   1.00
H151   H     0.09161   0.17121   0.58087   0.00000  Uiso   1.00
H152   H     0.08735   0.19985   0.62569   0.00000  Uiso   1.00
H153   H     0.08404   0.14325   0.62566   0.00000  Uiso   1.00
H154   H     0.01339   0.17354   0.63393   0.00000  Uiso   1.00
H155   H     0.01562   0.14559   0.59082   0.00000  Uiso   1.00
H156   H     0.17202   0.09232   0.41914   0.00000  Uiso   1.00
H157   H     0.20066   0.08781   0.37435   0.00000  Uiso   1.00
H158   H     0.14404   0.08500   0.37433   0.00000  Uiso   1.00
H159   H     0.34763   0.45617   0.46632   0.00000  Uiso   1.00
H160   H     0.17367   0.01408   0.36609   0.00000  Uiso   1.00
H161   H     0.14576   0.01657   0.40921   0.00000  Uiso   1.00
H162   H     0.29935   0.41220   0.62564   0.00000  Uiso   1.00
H163   H     0.32799   0.40769   0.58085   0.00000  Uiso   1.00
H164   H     0.35597   0.41501   0.62567   0.00000  Uiso   1.00
H165   H     0.35424   0.48344   0.59080   0.00000  Uiso   1.00
H166   H     0.32633   0.48592   0.63392   0.00000  Uiso   1.00
H167   H     0.08734   0.19985   0.37431   0.00000  Uiso   1.00
H168   H     0.09161   0.17121   0.41913   0.00000  Uiso   1.00
H169   H     0.08403   0.14325   0.37433   0.00000  Uiso   1.00
H170   H     0.15237   0.04384   0.53369   0.00000  Uiso   1.00
H171   H     0.01561   0.14559   0.40919   0.00000  Uiso   1.00
H172   H     0.01338   0.17354   0.36607   0.00000  Uiso   1.00
H173   H     0.40840   0.32879   0.58088   0.00000  Uiso   1.00
H174   H     0.41267   0.30016   0.62570   0.00000  Uiso   1.00
H175   H     0.41598   0.35676   0.62567   0.00000  Uiso   1.00
H176   H     0.48663   0.32646   0.63393   0.00000  Uiso   1.00
H177   H     0.48439   0.35441   0.59081   0.00000  Uiso   1.00
H178   H     0.32800   0.40769   0.41915   0.00000  Uiso   1.00
H179   H     0.29936   0.41219   0.37436   0.00000  Uiso   1.00
H180   H     0.35598   0.41501   0.37434   0.00000  Uiso   1.00
H181   H     0.45707   0.34805   0.46631   0.00000  Uiso   1.00
H182   H     0.32633   0.48591   0.36608   0.00000  Uiso   1.00
H183   H     0.35424   0.48344   0.40920   0.00000  Uiso   1.00
H184   H     0.20064   0.08781   0.62565   0.00000  Uiso   1.00
H185   H     0.17200   0.09231   0.58086   0.00000  Uiso   1.00
H186   H     0.14402   0.08499   0.62567   0.00000  Uiso   1.00
H187   H     0.14576   0.01656   0.59079   0.00000  Uiso   1.00
H188   H     0.17367   0.01408   0.63392   0.00000  Uiso   1.00
H189   H     0.16223   0.04943   0.87434   0.00000  Uiso   1.00
H190   H     0.15775   0.07804   0.91915   0.00000  Uiso   1.00
H191   H     0.16509   0.10604   0.87434   0.00000  Uiso   1.00
H192   H     0.04292   0.15194   0.53369   0.00000  Uiso   1.00
H193   H     0.23352   0.10426   0.90920   0.00000  Uiso   1.00
H194   H     0.23597   0.07634   0.86608   0.00000  Uiso   1.00
H195   H     0.34226   0.42195   0.08085   0.00000  Uiso   1.00
H196   H     0.33778   0.45058   0.12565   0.00000  Uiso   1.00
H197   H     0.33492   0.39396   0.12566   0.00000  Uiso   1.00
H198   H     0.26403   0.42366   0.13392   0.00000  Uiso   1.00
H199   H     0.26649   0.39575   0.09080   0.00000  Uiso   1.00
H200   H     0.42109   0.34150   0.91906   0.00000  Uiso   1.00
H201   H     0.44966   0.33722   0.87421   0.00000  Uiso   1.00
H202   H     0.39307   0.33382   0.87431   0.00000  Uiso   1.00
H203   H     0.15237   0.04385   0.46631   0.00000  Uiso   1.00
H204   H     0.42351   0.26320   0.86609   0.00000  Uiso   1.00
H205   H     0.39557   0.26544   0.90922   0.00000  Uiso   1.00
H206   H     0.05013   0.16265   0.12567   0.00000  Uiso   1.00
H207   H     0.07877   0.15838   0.08086   0.00000  Uiso   1.00
H208   H     0.10673   0.16594   0.12566   0.00000  Uiso   1.00
H209   H     0.10441   0.23437   0.09082   0.00000  Uiso   1.00
H210   H     0.07645   0.23660   0.13393   0.00000  Uiso   1.00
H211   H     0.33777   0.45058   0.87435   0.00000  Uiso   1.00
H212   H     0.34226   0.42195   0.91914   0.00000  Uiso   1.00
H213   H     0.33491   0.39396   0.87434   0.00000  Uiso   1.00
H214   H     0.34763   0.45617   0.53369   0.00000  Uiso   1.00
H215   H     0.26649   0.39574   0.90920   0.00000  Uiso   1.00
H216   H     0.26402   0.42366   0.86608   0.00000  Uiso   1.00
H217   H     0.15774   0.07805   0.08085   0.00000  Uiso   1.00
H218   H     0.16222   0.04941   0.12564   0.00000  Uiso   1.00
H219   H     0.16507   0.10603   0.12567   0.00000  Uiso   1.00
H220   H     0.23596   0.07634   0.13392   0.00000  Uiso   1.00
H221   H     0.23350   0.10426   0.09080   0.00000  Uiso   1.00
H222   H     0.07890   0.15849   0.91907   0.00000  Uiso   1.00
H223   H     0.05031   0.16277   0.87423   0.00000  Uiso   1.00
H224   H     0.10690   0.16616   0.87431   0.00000  Uiso   1.00
H225   H     0.29376   0.40233   0.96632   0.00000  Uiso   1.00
H226   H     0.07649   0.23677   0.86608   0.00000  Uiso   1.00
H227   H     0.10443   0.23453   0.90921   0.00000  Uiso   1.00
H228   H     0.44988   0.33735   0.12567   0.00000  Uiso   1.00
H229   H     0.42122   0.34161   0.08086   0.00000  Uiso   1.00
H230   H     0.39327   0.33406   0.12566   0.00000  Uiso   1.00
H231   H     0.39559   0.26563   0.09081   0.00000  Uiso   1.00
H232   H     0.42355   0.26340   0.13393   0.00000  Uiso   1.00
O233   O     0.25000   0.00000   0.25000   0.00000  Uiso   1.00
O234   O     0.25000   0.46539   0.66251   0.00000  Uiso   1.00
O235   O     0.46538   0.25000   0.33749   0.00000  Uiso   1.00
O236   O     0.03461   0.25000   0.66251   0.00000  Uiso   1.00
O237   O    -0.00000   0.21539   0.83749   0.00000  Uiso   1.00
O238   O     0.00000   0.28462   0.16251   0.00000  Uiso   1.00
O239   O     0.28461   0.00000   0.83749   0.00000  Uiso   1.00
O240   O     0.21538   0.00000   0.16251   0.00000  Uiso   1.00
O241   O     0.00000   0.28462   0.83749   0.00000  Uiso   1.00
O242   O     0.00000   0.21539   0.16251   0.00000  Uiso   1.00
O243   O     0.21538   0.00000   0.83749   0.00000  Uiso   1.00
O244   O     0.25000   0.00000   0.75000   0.00000  Uiso   1.00
O245   O     0.28461   0.00000   0.16251   0.00000  Uiso   1.00
O246   O     0.20126   0.08332   0.27298   0.00000  Uiso   1.00
O247   O     0.29873   0.41668   0.72702   0.00000  Uiso   1.00
O248   O     0.41668   0.20127   0.27298   0.00000  Uiso   1.00
O249   O     0.08332   0.29874   0.72702   0.00000  Uiso   1.00
O250   O     0.29873   0.41668   0.27298   0.00000  Uiso   1.00
O251   O     0.20126   0.08332   0.72702   0.00000  Uiso   1.00
O252   O     0.08332   0.29874   0.27298   0.00000  Uiso   1.00
O253   O     0.41668   0.20127   0.72702   0.00000  Uiso   1.00
O254   O     0.20126   0.41668   0.72702   0.00000  Uiso   1.00
O255   O     0.00000   0.25000   0.25000   0.00000  Uiso   1.00
O256   O     0.29873   0.08332   0.27298   0.00000  Uiso   1.00
O257   O     0.41668   0.29874   0.72702   0.00000  Uiso   1.00
O258   O     0.08332   0.20127   0.27298   0.00000  Uiso   1.00
O259   O     0.29873   0.08332   0.72702   0.00000  Uiso   1.00
O260   O     0.20126   0.41668   0.27298   0.00000  Uiso   1.00
O261   O     0.08332   0.20127   0.72702   0.00000  Uiso   1.00
O262   O     0.41668   0.29874   0.27298   0.00000  Uiso   1.00
O263   O     0.45126   0.33332   0.77298   0.00000  Uiso   1.00
O264   O     0.04873   0.16668   0.22702   0.00000  Uiso   1.00
O265   O     0.16668   0.45127   0.77298   0.00000  Uiso   1.00
O266   O     0.00000   0.25000   0.75000   0.00000  Uiso   1.00
O267   O     0.33332   0.04874   0.22702   0.00000  Uiso   1.00
O268   O     0.04873   0.16668   0.77298   0.00000  Uiso   1.00
O269   O     0.45126   0.33332   0.22702   0.00000  Uiso   1.00
O270   O     0.33332   0.04874   0.77298   0.00000  Uiso   1.00
O271   O     0.16668   0.45127   0.22702   0.00000  Uiso   1.00
O272   O     0.45126   0.16668   0.22702   0.00000  Uiso   1.00
O273   O     0.04873   0.33332   0.77298   0.00000  Uiso   1.00
O274   O     0.16668   0.04874   0.22702   0.00000  Uiso   1.00
O275   O     0.33332   0.45127   0.77298   0.00000  Uiso   1.00
O276   O     0.04873   0.33332   0.22702   0.00000  Uiso   1.00
O277   O     0.25000   0.46539   0.33749   0.00000  Uiso   1.00
O278   O     0.45126   0.16668   0.77298   0.00000  Uiso   1.00
O279   O     0.33332   0.45127   0.22702   0.00000  Uiso   1.00
O280   O     0.16668   0.04874   0.77298   0.00000  Uiso   1.00
O281   O     0.25000   0.03462   0.66251   0.00000  Uiso   1.00
O282   O     0.03461   0.25000   0.33749   0.00000  Uiso   1.00
O283   O     0.46538   0.25000   0.66251   0.00000  Uiso   1.00
O284   O     0.25000   0.03462   0.33749   0.00000  Uiso   1.00
Zn285  Zn    0.20052   0.00000   0.21730   0.00000  Uiso   1.00
Zn286  Zn    0.04947   0.25000   0.28270   0.00000  Uiso   1.00
Zn287  Zn    0.25000   0.45053   0.71730   0.00000  Uiso   1.00
Zn288  Zn    0.25000   0.04948   0.28270   0.00000  Uiso   1.00
Zn289  Zn    0.04947   0.25000   0.71730   0.00000  Uiso   1.00
Zn290  Zn    0.45052   0.25000   0.28270   0.00000  Uiso   1.00
Zn291  Zn    0.25000   0.04948   0.71730   0.00000  Uiso   1.00
Zn292  Zn    0.25000   0.45053   0.28270   0.00000  Uiso   1.00
Zn293  Zn    0.29947   0.00000   0.78270   0.00000  Uiso   1.00
Zn294  Zn    0.00000   0.20053   0.21730   0.00000  Uiso   1.00
Zn295  Zn   -0.00000   0.29948   0.78270   0.00000  Uiso   1.00
Zn296  Zn    0.29947   0.00000   0.21730   0.00000  Uiso   1.00
Zn297  Zn    0.20052   0.00000   0.78270   0.00000  Uiso   1.00
Zn298  Zn   -0.00000   0.29948   0.21730   0.00000  Uiso   1.00
Zn299  Zn    0.00000   0.20053   0.78270   0.00000  Uiso   1.00
Zn300  Zn    0.45052   0.25000   0.71730   0.00000  Uiso   1.00
C301   C     0.75000   0.00000   0.35577   0.00000  Uiso   1.00
C302   C     0.83001   0.41999   0.75000   0.00000  Uiso   1.00
C303   C     0.92975   0.28034   0.01998   0.00000  Uiso   1.00
C304   C     0.71904   0.06996   0.98002   0.00000  Uiso   1.00
C305   C     0.78096   0.43004   0.01998   0.00000  Uiso   1.00
C306   C     0.92974   0.28032   0.98002   0.00000  Uiso   1.00
C307   C     0.57025   0.21966   0.01998   0.00000  Uiso   1.00
C308   C     0.97221   0.32540   0.39528   0.00000  Uiso   1.00
C309   C     0.92440   0.32783   0.39063   0.00000  Uiso   1.00
C310   C     0.52779   0.17460   0.60472   0.00000  Uiso   1.00
C311   C     0.57560   0.17217   0.60937   0.00000  Uiso   1.00
C312   C     0.67486   0.02848   0.39529   0.00000  Uiso   1.00
C313   C     0.91998   0.16998   0.25000   0.00000  Uiso   1.00
C314   C     0.67287   0.07630   0.39064   0.00000  Uiso   1.00
C315   C     0.82514   0.47153   0.60471   0.00000  Uiso   1.00
C316   C     0.82714   0.42370   0.60935   0.00000  Uiso   1.00
C317   C     0.52778   0.17460   0.39528   0.00000  Uiso   1.00
C318   C     0.57560   0.17217   0.39063   0.00000  Uiso   1.00
C319   C     0.97222   0.32541   0.60472   0.00000  Uiso   1.00
C320   C     0.92441   0.32783   0.60938   0.00000  Uiso   1.00
C321   C     0.82514   0.47153   0.39529   0.00000  Uiso   1.00
C322   C     0.82715   0.42370   0.39065   0.00000  Uiso   1.00
C323   C     0.67486   0.02847   0.60471   0.00000  Uiso   1.00
C324   C     0.58002   0.33002   0.75000   0.00000  Uiso   1.00
C325   C     0.67285   0.07630   0.60935   0.00000  Uiso   1.00
C326   C     0.72158   0.07516   0.89529   0.00000  Uiso   1.00
C327   C     0.67376   0.07720   0.89065   0.00000  Uiso   1.00
C328   C     0.77842   0.42484   0.10471   0.00000  Uiso   1.00
C329   C     0.82625   0.42280   0.10935   0.00000  Uiso   1.00
C330   C     0.92455   0.27765   0.89528   0.00000  Uiso   1.00
C331   C     0.92203   0.32545   0.89058   0.00000  Uiso   1.00
C332   C     0.57540   0.22220   0.10472   0.00000  Uiso   1.00
C333   C     0.57781   0.17439   0.10936   0.00000  Uiso   1.00
C334   C     0.77842   0.42484   0.89529   0.00000  Uiso   1.00
C335   C     0.83001   0.41999   0.25000   0.00000  Uiso   1.00
C336   C     0.82624   0.42280   0.89064   0.00000  Uiso   1.00
C337   C     0.72157   0.07516   0.10471   0.00000  Uiso   1.00
C338   C     0.67375   0.07719   0.10935   0.00000  Uiso   1.00
C339   C     0.57545   0.22234   0.89528   0.00000  Uiso   1.00
C340   C     0.57795   0.17453   0.89059   0.00000  Uiso   1.00
C341   C     0.92460   0.27780   0.10472   0.00000  Uiso   1.00
C342   C     0.92219   0.32561   0.10936   0.00000  Uiso   1.00
C343   C     0.66999   0.08001   0.75000   0.00000  Uiso   1.00
C344   C     0.58002   0.33002   0.25000   0.00000  Uiso   1.00
C345   C     0.91998   0.16998   0.75000   0.00000  Uiso   1.00
C346   C     0.66998   0.41998   0.75000   0.00000  Uiso   1.00
C347   C     0.83002   0.08002   0.25000   0.00000  Uiso   1.00
C348   C     0.91999   0.33001   0.75000   0.00000  Uiso   1.00
C349   C     0.75000   0.00000   0.64423   0.00000  Uiso   1.00
C350   C     0.58001   0.16999   0.25000   0.00000  Uiso   1.00
C351   C     0.83002   0.08002   0.75000   0.00000  Uiso   1.00
C352   C     0.66998   0.41998   0.25000   0.00000  Uiso   1.00
C353   C     0.58001   0.16999   0.75000   0.00000  Uiso   1.00
C354   C     0.91999   0.33001   0.25000   0.00000  Uiso   1.00
C355   C     0.63833   0.38833   0.25000   0.00000  Uiso   1.00
C356   C     0.86167   0.11167   0.75000   0.00000  Uiso   1.00
C357   C     0.61166   0.13834   0.25000   0.00000  Uiso   1.00
C358   C     0.88834   0.36166   0.75000   0.00000  Uiso   1.00
C359   C     0.86167   0.11167   0.25000   0.00000  Uiso   1.00
C360   C     0.50000   0.25000   0.35577   0.00000  Uiso   1.00
C361   C     0.63833   0.38833   0.75000   0.00000  Uiso   1.00
C362   C     0.88834   0.36166   0.25000   0.00000  Uiso   1.00
C363   C     0.61166   0.13834   0.75000   0.00000  Uiso   1.00
C364   C     0.63834   0.11166   0.75000   0.00000  Uiso   1.00
C365   C     0.86166   0.38834   0.25000   0.00000  Uiso   1.00
C366   C     0.61167   0.36167   0.75000   0.00000  Uiso   1.00
C367   C     0.88833   0.13833   0.25000   0.00000  Uiso   1.00
C368   C     0.86166   0.38834   0.75000   0.00000  Uiso   1.00
C369   C     0.63834   0.11166   0.25000   0.00000  Uiso   1.00
C370   C     0.88833   0.13833   0.75000   0.00000  Uiso   1.00
C371   C     0.50000   0.25000   0.64423   0.00000  Uiso   1.00
C372   C     0.61167   0.36167   0.25000   0.00000  Uiso   1.00
C373   C     0.98556   0.28613   0.41794   0.00000  Uiso   1.00
C374   C     0.51444   0.21387   0.58206   0.00000  Uiso   1.00
C375   C     0.71401   0.01478   0.41794   0.00000  Uiso   1.00
C376   C     0.78599   0.48522   0.58206   0.00000  Uiso   1.00
C377   C     0.51444   0.21387   0.41794   0.00000  Uiso   1.00
C378   C     0.98556   0.28613   0.58206   0.00000  Uiso   1.00
C379   C     0.78599   0.48522   0.41794   0.00000  Uiso   1.00
C380   C     0.71401   0.01478   0.58206   0.00000  Uiso   1.00
C381   C     0.73525   0.03600   0.91794   0.00000  Uiso   1.00
C382   C     0.50000   0.25000   0.85577   0.00000  Uiso   1.00
C383   C     0.76475   0.46400   0.08206   0.00000  Uiso   1.00
C384   C     0.96385   0.26439   0.91794   0.00000  Uiso   1.00
C385   C     0.53613   0.23556   0.08206   0.00000  Uiso   1.00
C386   C     0.76475   0.46400   0.91794   0.00000  Uiso   1.00
C387   C     0.73524   0.03600   0.08206   0.00000  Uiso   1.00
C388   C     0.53615   0.23560   0.91794   0.00000  Uiso   1.00
C389   C     0.96387   0.26444   0.08206   0.00000  Uiso   1.00
C390   C     0.50000   0.25000   0.39799   0.00000  Uiso   1.00
C391   C     0.50000   0.25000   0.60201   0.00000  Uiso   1.00
C392   C     0.75000  -0.00000   0.39799   0.00000  Uiso   1.00
C393   C     0.50000   0.25000   0.14423   0.00000  Uiso   1.00
C394   C     0.75000   0.00000   0.60201   0.00000  Uiso   1.00
C395   C     0.75000   0.00000   0.89799   0.00000  Uiso   1.00
C396   C     0.75000   0.00000   0.10201   0.00000  Uiso   1.00
C397   C     0.50000   0.25000   0.89799   0.00000  Uiso   1.00
C398   C     0.50000   0.25000   0.10201   0.00000  Uiso   1.00
C399   C     0.51509   0.21434   0.45889   0.00000  Uiso   1.00
C400   C     0.98491   0.28566   0.54111   0.00000  Uiso   1.00
C401   C     0.78551   0.48458   0.45889   0.00000  Uiso   1.00
C402   C     0.71449   0.01543   0.54111   0.00000  Uiso   1.00
C403   C     0.98491   0.28566   0.45889   0.00000  Uiso   1.00
C404   C     0.75000  -0.00000   0.85577   0.00000  Uiso   1.00
C405   C     0.51509   0.21434   0.54111   0.00000  Uiso   1.00
C406   C     0.71449   0.01543   0.45889   0.00000  Uiso   1.00
C407   C     0.78551   0.48458   0.54111   0.00000  Uiso   1.00
C408   C     0.76540   0.46448   0.95889   0.00000  Uiso   1.00
C409   C     0.73460   0.03553   0.04111   0.00000  Uiso   1.00
C410   C     0.53568   0.23494   0.95889   0.00000  Uiso   1.00
C411   C     0.96433   0.26508   0.04111   0.00000  Uiso   1.00
C412   C     0.73460   0.03553   0.95889   0.00000  Uiso   1.00
C413   C     0.76540   0.46448   0.04111   0.00000  Uiso   1.00
C414   C     0.96432   0.26506   0.95889   0.00000  Uiso   1.00
C415   C     0.75000   0.00000   0.14423   0.00000  Uiso   1.00
C416   C     0.53567   0.23492   0.04111   0.00000  Uiso   1.00
C417   C     0.50000   0.25000   0.47937   0.00000  Uiso   1.00
C418   C     0.50000   0.25000   0.52063   0.00000  Uiso   1.00
C419   C     0.75000   0.00000   0.47938   0.00000  Uiso   1.00
C420   C     0.75000   0.00000   0.52063   0.00000  Uiso   1.00
C421   C     0.75000   0.00000   0.97938   0.00000  Uiso   1.00
C422   C     0.75000   0.00000   0.02063   0.00000  Uiso   1.00
C423   C     0.50000   0.25000   0.97937   0.00000  Uiso   1.00
C424   C     0.50000   0.25000   0.02062   0.00000  Uiso   1.00
C425   C     0.53035   0.17976   0.48002   0.00000  Uiso   1.00
C426   C     0.66999   0.08001   0.25000   0.00000  Uiso   1.00
C427   C     0.96964   0.32024   0.51998   0.00000  Uiso   1.00
C428   C     0.81994   0.46899   0.48002   0.00000  Uiso   1.00
C429   C     0.68007   0.03102   0.51998   0.00000  Uiso   1.00
C430   C     0.96964   0.32024   0.48002   0.00000  Uiso   1.00
C431   C     0.53036   0.17976   0.51998   0.00000  Uiso   1.00
C432   C     0.68007   0.03102   0.48002   0.00000  Uiso   1.00
C433   C     0.81994   0.46899   0.51998   0.00000  Uiso   1.00
C434   C     0.78096   0.43004   0.98002   0.00000  Uiso   1.00
C435   C     0.71904   0.06996   0.01998   0.00000  Uiso   1.00
C436   C     0.57026   0.21968   0.98002   0.00000  Uiso   1.00
H437   H     0.54292   0.15195   0.46631   0.00000  Uiso   1.00
H438   H     0.70624   0.09767   0.03369   0.00000  Uiso   1.00
H439   H     0.59809   0.20712   0.96631   0.00000  Uiso   1.00
H440   H     0.90193   0.29291   0.03369   0.00000  Uiso   1.00
H441   H     0.70624   0.09767   0.96632   0.00000  Uiso   1.00
H442   H     0.79376   0.40233   0.03369   0.00000  Uiso   1.00
H443   H     0.90191   0.29287   0.96631   0.00000  Uiso   1.00
H444   H     0.59807   0.20709   0.03369   0.00000  Uiso   1.00
H445   H     0.91266   0.30015   0.37431   0.00000  Uiso   1.00
H446   H     0.90839   0.32879   0.41913   0.00000  Uiso   1.00
H447   H     0.91596   0.35675   0.37433   0.00000  Uiso   1.00
H448   H     0.95707   0.34805   0.53369   0.00000  Uiso   1.00
H449   H     0.98438   0.35441   0.40919   0.00000  Uiso   1.00
H450   H     0.98662   0.32646   0.36607   0.00000  Uiso   1.00
H451   H     0.59161   0.17121   0.58087   0.00000  Uiso   1.00
H452   H     0.58735   0.19985   0.62569   0.00000  Uiso   1.00
H453   H     0.58404   0.14325   0.62566   0.00000  Uiso   1.00
H454   H     0.51339   0.17354   0.63393   0.00000  Uiso   1.00
H455   H     0.51562   0.14559   0.59082   0.00000  Uiso   1.00
H456   H     0.67202   0.09232   0.41914   0.00000  Uiso   1.00
H457   H     0.70066   0.08781   0.37435   0.00000  Uiso   1.00
H458   H     0.64404   0.08500   0.37433   0.00000  Uiso   1.00
H459   H     0.84763   0.45617   0.46632   0.00000  Uiso   1.00
H460   H     0.67367   0.01408   0.36609   0.00000  Uiso   1.00
H461   H     0.64576   0.01657   0.40921   0.00000  Uiso   1.00
H462   H     0.79935   0.41220   0.62564   0.00000  Uiso   1.00
H463   H     0.82799   0.40769   0.58085   0.00000  Uiso   1.00
H464   H     0.85597   0.41501   0.62567   0.00000  Uiso   1.00
H465   H     0.85424   0.48344   0.59080   0.00000  Uiso   1.00
H466   H     0.82633   0.48592   0.63392   0.00000  Uiso   1.00
H467   H     0.58734   0.19985   0.37431   0.00000  Uiso   1.00
H468   H     0.59161   0.17121   0.41913   0.00000  Uiso   1.00
H469   H     0.58403   0.14325   0.37433   0.00000  Uiso   1.00
H470   H     0.65237   0.04384   0.53369   0.00000  Uiso   1.00
H471   H     0.51561   0.14559   0.40919   0.00000  Uiso   1.00
H472   H     0.51338   0.17354   0.36607   0.00000  Uiso   1.00
H473   H     0.90840   0.32879   0.58088   0.00000  Uiso   1.00
H474   H     0.91267   0.30016   0.62570   0.00000  Uiso   1.00
H475   H     0.91598   0.35676   0.62567   0.00000  Uiso   1.00
H476   H     0.98663   0.32646   0.63393   0.00000  Uiso   1.00
H477   H     0.98439   0.35441   0.59081   0.00000  Uiso   1.00
H478   H     0.82800   0.40769   0.41915   0.00000  Uiso   1.00
H479   H     0.79936   0.41219   0.37436   0.00000  Uiso   1.00
H480   H     0.85598   0.41501   0.37434   0.00000  Uiso   1.00
H481   H     0.95707   0.34805   0.46631   0.00000  Uiso   1.00
H482   H     0.82633   0.48591   0.36608   0.00000  Uiso   1.00
H483   H     0.85424   0.48344   0.40920   0.00000  Uiso   1.00
H484   H     0.70064   0.08781   0.62565   0.00000  Uiso   1.00
H485   H     0.67200   0.09231   0.58086   0.00000  Uiso   1.00
H486   H     0.64402   0.08499   0.62567   0.00000  Uiso   1.00
H487   H     0.64576   0.01656   0.59079   0.00000  Uiso   1.00
H488   H     0.67367   0.01408   0.63392   0.00000  Uiso   1.00
H489   H     0.66223   0.04943   0.87434   0.00000  Uiso   1.00
H490   H     0.65775   0.07804   0.91915   0.00000  Uiso   1.00
H491   H     0.66509   0.10604   0.87434   0.00000  Uiso   1.00
H492   H     0.54292   0.15194   0.53369   0.00000  Uiso   1.00
H493   H     0.73352   0.10426   0.90920   0.00000  Uiso   1.00
H494   H     0.73597   0.07634   0.86608   0.00000  Uiso   1.00
H495   H     0.84226   0.42195   0.08085   0.00000  Uiso   1.00
H496   H     0.83778   0.45058   0.12565   0.00000  Uiso   1.00
H497   H     0.83492   0.39396   0.12566   0.00000  Uiso   1.00
H498   H     0.76403   0.42366   0.13392   0.00000  Uiso   1.00
H499   H     0.76649   0.39575   0.09080   0.00000  Uiso   1.00
H500   H     0.92109   0.34150   0.91906   0.00000  Uiso   1.00
H501   H     0.94966   0.33722   0.87421   0.00000  Uiso   1.00
H502   H     0.89307   0.33382   0.87431   0.00000  Uiso   1.00
H503   H     0.65237   0.04385   0.46631   0.00000  Uiso   1.00
H504   H     0.92351   0.26320   0.86609   0.00000  Uiso   1.00
H505   H     0.89557   0.26544   0.90922   0.00000  Uiso   1.00
H506   H     0.55013   0.16265   0.12567   0.00000  Uiso   1.00
H507   H     0.57877   0.15838   0.08086   0.00000  Uiso   1.00
H508   H     0.60673   0.16594   0.12566   0.00000  Uiso   1.00
H509   H     0.60441   0.23437   0.09082   0.00000  Uiso   1.00
H510   H     0.57645   0.23660   0.13393   0.00000  Uiso   1.00
H511   H     0.83777   0.45058   0.87435   0.00000  Uiso   1.00
H512   H     0.84226   0.42195   0.91914   0.00000  Uiso   1.00
H513   H     0.83491   0.39396   0.87434   0.00000  Uiso   1.00
H514   H     0.84763   0.45617   0.53369   0.00000  Uiso   1.00
H515   H     0.76649   0.39574   0.90920   0.00000  Uiso   1.00
H516   H     0.76402   0.42366   0.86608   0.00000  Uiso   1.00
H517   H     0.65774   0.07805   0.08085   0.00000  Uiso   1.00
H518   H     0.66222   0.04941   0.12564   0.00000  Uiso   1.00
H519   H     0.66507   0.10603   0.12567   0.00000  Uiso   1.00
H520   H     0.73596   0.07634   0.13392   0.00000  Uiso   1.00
H521   H     0.73350   0.10426   0.09080   0.00000  Uiso   1.00
H522   H     0.57890   0.15849   0.91907   0.00000  Uiso   1.00
H523   H     0.55031   0.16277   0.87423   0.00000  Uiso   1.00
H524   H     0.60690   0.16616   0.87431   0.00000  Uiso   1.00
H525   H     0.79376   0.40233   0.96632   0.00000  Uiso   1.00
H526   H     0.57649   0.23677   0.86608   0.00000  Uiso   1.00
H527   H     0.60443   0.23453   0.90921   0.00000  Uiso   1.00
H528   H     0.94988   0.33735   0.12567   0.00000  Uiso   1.00
H529   H     0.92122   0.34161   0.08086   0.00000  Uiso   1.00
H530   H     0.89327   0.33406   0.12566   0.00000  Uiso   1.00
H531   H     0.89559   0.26563   0.09081   0.00000  Uiso   1.00
H532   H     0.92355   0.26340   0.13393   0.00000  Uiso   1.00
O533   O     0.75000   0.00000   0.25000   0.00000  Uiso   1.00
O534   O     0.75000   0.46539   0.66251   0.00000  Uiso   1.00
O535   O     0.96538   0.25000   0.33749   0.00000  Uiso   1.00
O536   O     0.53461   0.25000   0.66251   0.00000  Uiso   1.00
O537   O     0.50000   0.21539   0.83749   0.00000  Uiso   1.00
O538   O     0.50000   0.28462   0.16251   0.00000  Uiso   1.00
O539   O     0.78461   0.00000   0.83749   0.00000  Uiso   1.00
O540   O     0.71538   0.00000   0.16251   0.00000  Uiso   1.00
O541   O     0.50000   0.28462   0.83749   0.00000  Uiso   1.00
O542   O     0.50000   0.21539   0.16251   0.00000  Uiso   1.00
O543   O     0.71538   0.00000   0.83749   0.00000  Uiso   1.00
O544   O     0.75000   0.00000   0.75000   0.00000  Uiso   1.00
O545   O     0.78461   0.00000   0.16251   0.00000  Uiso   1.00
O546   O     0.70126   0.08332   0.27298   0.00000  Uiso   1.00
O547   O     0.79873   0.41668   0.72702   0.00000  Uiso   1.00
O548   O     0.91668   0.20127   0.27298   0.00000  Uiso   1.00
O549   O     0.58332   0.29874   0.72702   0.00000  Uiso   1.00
O550   O     0.79873   0.41668   0.27298   0.00000  Uiso   1.00
O551   O     0.70126   0.08332   0.72702   0.00000  Uiso   1.00
O552   O     0.58332   0.29874   0.27298   0.00000  Uiso   1.00
O553   O     0.91668   0.20127   0.72702   0.00000  Uiso   1.00
O554   O     0.70126   0.41668   0.72702   0.00000  Uiso   1.00
O555   O     0.50000   0.25000   0.25000   0.00000  Uiso   1.00
O556   O     0.79873   0.08332   0.27298   0.00000  Uiso   1.00
O557   O     0.91668   0.29874   0.72702   0.00000  Uiso   1.00
O558   O     0.58332   0.20127   0.27298   0.00000  Uiso   1.00
O559   O     0.79873   0.08332   0.72702   0.00000  Uiso   1.00
O560   O     0.70126   0.41668   0.27298   0.00000  Uiso   1.00
O561   O     0.58332   0.20127   0.72702   0.00000  Uiso   1.00
O562   O     0.91668   0.29874   0.27298   0.00000  Uiso   1.00
O563   O     0.95126   0.33332   0.77298   0.00000  Uiso   1.00
O564   O     0.54873   0.16668   0.22702   0.00000  Uiso   1.00
O565   O     0.66668   0.45127   0.77298   0.00000  Uiso   1.00
O566   O     0.50000   0.25000   0.75000   0.00000  Uiso   1.00
O567   O     0.83332   0.04874   0.22702   0.00000  Uiso   1.00
O568   O     0.54873   0.16668   0.77298   0.00000  Uiso   1.00
O569   O     0.95126   0.33332   0.22702   0.00000  Uiso   1.00
O570   O     0.83332   0.04874   0.77298   0.00000  Uiso   1.00
O571   O     0.66668   0.45127   0.22702   0.00000  Uiso   1.00
O572   O     0.95126   0.16668   0.22702   0.00000  Uiso   1.00
O573   O     0.54873   0.33332   0.77298   0.00000  Uiso   1.00
O574   O     0.66668   0.04874   0.22702   0.00000  Uiso   1.00
O575   O     0.83332   0.45127   0.77298   0.00000  Uiso   1.00
O576   O     0.54873   0.33332   0.22702   0.00000  Uiso   1.00
O577   O     0.75000   0.46539   0.33749   0.00000  Uiso   1.00
O578   O     0.95126   0.16668   0.77298   0.00000  Uiso   1.00
O579   O     0.83332   0.45127   0.22702   0.00000  Uiso   1.00
O580   O     0.66668   0.04874   0.77298   0.00000  Uiso   1.00
O581   O     0.75000   0.03462   0.66251   0.00000  Uiso   1.00
O582   O     0.53461   0.25000   0.33749   0.00000  Uiso   1.00
O583   O     0.96538   0.25000   0.66251   0.00000  Uiso   1.00
O584   O     0.75000   0.03462   0.33749   0.00000  Uiso   1.00
Zn585  Zn    0.70052   0.00000   0.21730   0.00000  Uiso   1.00
Zn586  Zn    0.54947   0.25000   0.28270   0.00000  Uiso   1.00
Zn587  Zn    0.75000   0.45053   0.71730   0.00000  Uiso   1.00
Zn588  Zn    0.75000   0.04948   0.28270   0.00000  Uiso   1.00
Zn589  Zn    0.54947   0.25000   0.71730   0.00000  Uiso   1.00
Zn590  Zn    0.95052   0.25000   0.28270   0.00000  Uiso   1.00
Zn591  Zn    0.75000   0.04948   0.71730   0.00000  Uiso   1.00
Zn592  Zn    0.75000   0.45053   0.28270   0.00000  Uiso   1.00
Zn593  Zn    0.79947   0.00000   0.78270   0.00000  Uiso   1.00
Zn594  Zn    0.50000   0.20053   0.21730   0.00000  Uiso   1.00
Zn595  Zn    0.50000   0.29948   0.78270   0.00000  Uiso   1.00
Zn596  Zn    0.79947   0.00000   0.21730   0.00000  Uiso   1.00
Zn597  Zn    0.70052   0.00000   0.78270   0.00000  Uiso   1.00
Zn598  Zn    0.50000   0.29948   0.21730   0.00000  Uiso   1.00
Zn599  Zn    0.50000   0.20053   0.78270   0.00000  Uiso   1.00
Zn600  Zn    0.95052   0.25000   0.71730   0.00000  Uiso   1.00
C601   C     0.25000   0.50000   0.35577   0.00000  Uiso   1.00
C602   C     0.33001   0.91999   0.75000   0.00000  Uiso   1.00
C603   C     0.42975   0.78034   0.01998   0.00000  Uiso   1.00
C604   C     0.21904   0.56996   0.98002   0.00000  Uiso   1.00
C605   C     0.28096   0.93004   0.01998   0.00000  Uiso   1.00
C606   C     0.42974   0.78032   0.98002   0.00000  Uiso   1.00
C607   C     0.07025   0.71966   0.01998   0.00000  Uiso   1.00
C608   C     0.47221   0.82540   0.39528   0.00000  Uiso   1.00
C609   C     0.42440   0.82783   0.39063   0.00000  Uiso   1.00
C610   C     0.02779   0.67460   0.60472   0.00000  Uiso   1.00
C611   C     0.07560   0.67217   0.60937   0.00000  Uiso   1.00
C612   C     0.17486   0.52848   0.39529   0.00000  Uiso   1.00
C613   C     0.41998   0.66998   0.25000   0.00000  Uiso   1.00
C614   C     0.17287   0.57630   0.39064   0.00000  Uiso   1.00
C615   C     0.32514   0.97153   0.60471   0.00000  Uiso   1.00
C616   C     0.32714   0.92370   0.60935   0.00000  Uiso   1.00
C617   C     0.02778   0.67460   0.39528   0.00000  Uiso   1.00
C618   C     0.07560   0.67217   0.39063   0.00000  Uiso   1.00
C619   C     0.47222   0.82541   0.60472   0.00000  Uiso   1.00
C620   C     0.42441   0.82783   0.60938   0.00000  Uiso   1.00
C621   C     0.32514   0.97153   0.39529   0.00000  Uiso   1.00
C622   C     0.32715   0.92370   0.39065   0.00000  Uiso   1.00
C623   C     0.17486   0.52847   0.60471   0.00000  Uiso   1.00
C624   C     0.08002   0.83002   0.75000   0.00000  Uiso   1.00
C625   C     0.17285   0.57630   0.60935   0.00000  Uiso   1.00
C626   C     0.22158   0.57516   0.89529   0.00000  Uiso   1.00
C627   C     0.17376   0.57720   0.89065   0.00000  Uiso   1.00
C628   C     0.27842   0.92484   0.10471   0.00000  Uiso   1.00
C629   C     0.32625   0.92280   0.10935   0.00000  Uiso   1.00
C630   C     0.42455   0.77765   0.89528   0.00000  Uiso   1.00
C631   C     0.42203   0.82545   0.89058   0.00000  Uiso   1.00
C632   C     0.07540   0.72220   0.10472   0.00000  Uiso   1.00
C633   C     0.07781   0.67439   0.10936   0.00000  Uiso   1.00
C634   C     0.27842   0.92484   0.89529   0.00000  Uiso   1.00
C635   C     0.33001   0.91999   0.25000   0.00000  Uiso   1.00
C636   C     0.32624   0.92280   0.89064   0.00000  Uiso   1.00
C637   C     0.22157   0.57516   0.10471   0.00000  Uiso   1.00
C638   C     0.17375   0.57719   0.10935   0.00000  Uiso   1.00
C639   C     0.07545   0.72234   0.89528   0.00000  Uiso   1.00
C640   C     0.07795   0.67453   0.89059   0.00000  Uiso   1.00
C641   C     0.42460   0.77780   0.10472   0.00000  Uiso   1.00
C642   C     0.42219   0.82561   0.10936   0.00000  Uiso   1.00
C643   C     0.16999   0.58001   0.75000   0.00000  Uiso   1.00
C644   C     0.08002   0.83002   0.25000   0.00000  Uiso   1.00
C645   C     0.41998   0.66998   0.75000   0.00000  Uiso   1.00
C646   C     0.16998   0.91998   0.75000   0.00000  Uiso   1.00
C647   C     0.33002   0.58002   0.25000   0.00000  Uiso   1.00
C648   C     0.41999   0.83001   0.75000   0.00000  Uiso   1.00
C649   C     0.25000   0.50000   0.64423   0.00000  Uiso   1.00
C650   C     0.08001   0.66999   0.25000   0.00000  Uiso   1.00
C651   C     0.33002   0.58002   0.75000   0.00000  Uiso   1.00
C652   C     0.16998   0.91998   0.25000   0.00000  Uiso   1.00
C653   C     0.08001   0.66999   0.75000   0.00000  Uiso   1.00
C654   C     0.41999   0.83001   0.25000   0.00000  Uiso   1.00
C655   C     0.13833   0.88833   0.25000   0.00000  Uiso   1.00
C656   C     0.36167   0.61167   0.75000   0.00000  Uiso   1.00
C657   C     0.11166   0.63834   0.25000   0.00000  Uiso   1.00
C658   C     0.38834   0.86166   0.75000   0.00000  Uiso   1.00
C659   C     0.36167   0.61167   0.25000   0.00000  Uiso   1.00
C660   C    -0.00000   0.75000   0.35577   0.00000  Uiso   1.00
C661   C     0.13833   0.88833   0.75000   0.00000  Uiso   1.00
C662   C     0.38834   0.86166   0.25000   0.00000  Uiso   1.00
C663   C     0.11166   0.63834   0.75000   0.00000  Uiso   1.00
C664   C     0.13834   0.61166   0.75000   0.00000  Uiso   1.00
C665   C     0.36166   0.88834   0.25000   0.00000  Uiso   1.00
C666   C     0.11167   0.86167   0.75000   0.00000  Uiso   1.00
C667   C     0.38833   0.63833   0.25000   0.00000  Uiso   1.00
C668   C     0.36166   0.88834   0.75000   0.00000  Uiso   1.00
C669   C     0.13834   0.61166   0.25000   0.00000  Uiso   1.00
C670   C     0.38833   0.63833   0.75000   0.00000  Uiso   1.00
C671   C     0.00000   0.75000   0.64423   0.00000  Uiso   1.00
C672   C     0.11167   0.86167   0.25000   0.00000  Uiso   1.00
C673   C     0.48556   0.78613   0.41794   0.00000  Uiso   1.00
C674   C     0.01444   0.71387   0.58206   0.00000  Uiso   1.00
C675   C     0.21401   0.51478   0.41794   0.00000  Uiso   1.00
C676   C     0.28599   0.98522   0.58206   0.00000  Uiso   1.00
C677   C     0.01444   0.71387   0.41794   0.00000  Uiso   1.00
C678   C     0.48556   0.78613   0.58206   0.00000  Uiso   1.00
C679   C     0.28599   0.98522   0.41794   0.00000  Uiso   1.00
C680   C     0.21401   0.51478   0.58206   0.00000  Uiso   1.00
C681   C     0.23525   0.53600   0.91794   0.00000  Uiso   1.00
C682   C     0.00000   0.75000   0.85577   0.00000  Uiso   1.00
C683   C     0.26475   0.96400   0.08206   0.00000  Uiso   1.00
C684   C     0.46385   0.76439   0.91794   0.00000  Uiso   1.00
C685   C     0.03613   0.73556   0.08206   0.00000  Uiso   1.00
C686   C     0.26475   0.96400   0.91794   0.00000  Uiso   1.00
C687   C     0.23524   0.53600   0.08206   0.00000  Uiso   1.00
C688   C     0.03615   0.73560   0.91794   0.00000  Uiso   1.00
C689   C     0.46387   0.76444   0.08206   0.00000  Uiso   1.00
C690   C    -0.00000   0.75000   0.39799   0.00000  Uiso   1.00
C691   C     0.00000   0.75000   0.60201   0.00000  Uiso   1.00
C692   C     0.25000   0.50000   0.39799   0.00000  Uiso   1.00
C693   C     0.00000   0.75000   0.14423   0.00000  Uiso   1.00
C694   C     0.25000   0.50000   0.60201   0.00000  Uiso   1.00
C695   C     0.25000   0.50000   0.89799   0.00000  Uiso   1.00
C696   C     0.25000   0.50000   0.10201   0.00000  Uiso   1.00
C697   C     0.00000   0.75000   0.89799   0.00000  Uiso   1.00
C698   C     0.00000   0.75000   0.10201   0.00000  Uiso   1.00
C699   C     0.01509   0.71434   0.45889   0.00000  Uiso   1.00
C700   C     0.48491   0.78566   0.54111   0.00000  Uiso   1.00
C701   C     0.28551   0.98458   0.45889   0.00000  Uiso   1.00
C702   C     0.21449   0.51543   0.54111   0.00000  Uiso   1.00
C703   C     0.48491   0.78566   0.45889   0.00000  Uiso   1.00
C704   C     0.25000   0.50000   0.85577   0.00000  Uiso   1.00
C705   C     0.01509   0.71434   0.54111   0.00000  Uiso   1.00
C706   C     0.21449   0.51543   0.45889   0.00000  Uiso   1.00
C707   C     0.28551   0.98458   0.54111   0.00000  Uiso   1.00
C708   C     0.26540   0.96448   0.95889   0.00000  Uiso   1.00
C709   C     0.23460   0.53553   0.04111   0.00000  Uiso   1.00
C710   C     0.03568   0.73494   0.95889   0.00000  Uiso   1.00
C711   C     0.46433   0.76508   0.04111   0.00000  Uiso   1.00
C712   C     0.23460   0.53553   0.95889   0.00000  Uiso   1.00
C713   C     0.26540   0.96448   0.04111   0.00000  Uiso   1.00
C714   C     0.46432   0.76506   0.95889   0.00000  Uiso   1.00
C715   C     0.25000   0.50000   0.14423   0.00000  Uiso   1.00
C716   C     0.03567   0.73492   0.04111   0.00000  Uiso   1.00
C717   C    -0.00000   0.75000   0.47937   0.00000  Uiso   1.00
C718   C     0.00000   0.75000   0.52063   0.00000  Uiso   1.00
C719   C     0.25000   0.50000   0.47938   0.00000  Uiso   1.00
C720   C     0.25000   0.50000   0.52063   0.00000  Uiso   1.00
C721   C     0.25000   0.50000   0.97938   0.00000  Uiso   1.00
C722   C     0.25000   0.50000   0.02063   0.00000  Uiso   1.00
C723   C     0.00000   0.75000   0.97937   0.00000  Uiso   1.00
C724   C     0.00000   0.75000   0.02062   0.00000  Uiso   1.00
C725   C     0.03035   0.67976   0.48002   0.00000  Uiso   1.00
C726   C     0.16999   0.58001   0.25000   0.00000  Uiso   1.00
C727   C     0.46964   0.82024   0.51998   0.00000  Uiso   1.00
C728   C     0.31994   0.96899   0.48002   0.00000  Uiso   1.00
C729   C     0.18007   0.53102   0.51998   0.00000  Uiso   1.00
C730   C     0.46964   0.82024   0.48002   0.00000  Uiso   1.00
C731   C     0.03036   0.67976   0.51998   0.00000  Uiso   1.00
C732   C     0.18007   0.53102   0.48002   0.00000  Uiso   1.00
C733   C     0.31994   0.96899   0.51998   0.00000  Uiso   1.00
C734   C     0.28096   0.93004   0.98002   0.00000  Uiso   1.00
C735   C     0.21904   0.56996   0.01998   0.00000  Uiso   1.00
C736   C     0.07026   0.71968   0.98002   0.00000  Uiso   1.00
H737   H     0.04292   0.65195   0.46631   0.00000  Uiso   1.00
H738   H     0.20624   0.59767   0.03369   0.00000  Uiso   1.00
H739   H     0.09809   0.70712   0.96631   0.00000  Uiso   1.00
H740   H     0.40193   0.79291   0.03369   0.00000  Uiso   1.00
H741   H     0.20624   0.59767   0.96632   0.00000  Uiso   1.00
H742   H     0.29376   0.90233   0.03369   0.00000  Uiso   1.00
H743   H     0.40191   0.79287   0.96631   0.00000  Uiso   1.00
H744   H     0.09807   0.70709   0.03369   0.00000  Uiso   1.00
H745   H     0.41266   0.80015   0.37431   0.00000  Uiso   1.00
H746   H     0.40839   0.82879   0.41913   0.00000  Uiso   1.00
H747   H     0.41596   0.85675   0.37433   0.00000  Uiso   1.00
H748   H     0.45707   0.84805   0.53369   0.00000  Uiso   1.00
H749   H     0.48438   0.85441   0.40919   0.00000  Uiso   1.00
H750   H     0.48662   0.82646   0.36607   0.00000  Uiso   1.00
H751   H     0.09161   0.67121   0.58087   0.00000  Uiso   1.00
H752   H     0.08735   0.69985   0.62569   0.00000  Uiso   1.00
H753   H     0.08404   0.64325   0.62566   0.00000  Uiso   1.00
H754   H     0.01339   0.67354   0.63393   0.00000  Uiso   1.00
H755   H     0.01562   0.64559   0.59082   0.00000  Uiso   1.00
H756   H     0.17202   0.59232   0.41914   0.00000  Uiso   1.00
H757   H     0.20066   0.58781   0.37435   0.00000  Uiso   1.00
H758   H     0.14404   0.58500   0.37433   0.00000  Uiso   1.00
H759   H     0.34763   0.95617   0.46632   0.00000  Uiso   1.00
H760   H     0.17367   0.51408   0.36609   0.00000  Uiso   1.00
H761   H     0.14576   0.51657   0.40921   0.00000  Uiso   1.00
H762   H     0.29935   0.91220   0.62564   0.00000  Uiso   1.00
H763   H     0.32799   0.90769   0.58085   0.00000  Uiso   1.00
H764   H     0.35597   0.91501   0.62567   0.00000  Uiso   1.00
H765   H     0.35424   0.98344   0.59080   0.00000  Uiso   1.00
H766   H     0.32633   0.98592   0.63392   0.00000  Uiso   1.00
H767   H     0.08734   0.69985   0.37431   0.00000  Uiso   1.00
H768   H     0.09161   0.67121   0.41913   0.00000  Uiso   1.00
H769   H     0.08403   0.64325   0.37433   0.00000  Uiso   1.00
H770   H     0.15237   0.54384   0.53369   0.00000  Uiso   1.00
H771   H     0.01561   0.64559   0.40919   0.00000  Uiso   1.00
H772   H     0.01338   0.67354   0.36607   0.00000  Uiso   1.00
H773   H     0.40840   0.82879   0.58088   0.00000  Uiso   1.00
H774   H     0.41267   0.80016   0.62570   0.00000  Uiso   1.00
H775   H     0.41598   0.85676   0.62567   0.00000  Uiso   1.00
H776   H     0.48663   0.82646   0.63393   0.00000  Uiso   1.00
H777   H     0.48439   0.85441   0.59081   0.00000  Uiso   1.00
H778   H     0.32800   0.90769   0.41915   0.00000  Uiso   1.00
H779   H     0.29936   0.91219   0.37436   0.00000  Uiso   1.00
H780   H     0.35598   0.91501   0.37434   0.00000  Uiso   1.00
H781   H     0.45707   0.84805   0.46631   0.00000  Uiso   1.00
H782   H     0.32633   0.98591   0.36608   0.00000  Uiso   1.00
H783   H     0.35424   0.98344   0.40920   0.00000  Uiso   1.00
H784   H     0.20064   0.58781   0.62565   0.00000  Uiso   1.00
H785   H     0.17200   0.59231   0.58086   0.00000  Uiso   1.00
H786   H     0.14402   0.58499   0.62567   0.00000  Uiso   1.00
H787   H     0.14576   0.51656   0.59079   0.00000  Uiso   1.00
H788   H     0.17367   0.51408   0.63392   0.00000  Uiso   1.00
H789   H     0.16223   0.54943   0.87434   0.00000  Uiso   1.00
H790   H     0.15775   0.57804   0.91915   0.00000  Uiso   1.00
H791   H     0.16509   0.60604   0.87434   0.00000  Uiso   1.00
H792   H     0.04292   0.65194   0.53369   0.00000  Uiso   1.00
H793   H     0.23352   0.60426   0.90920   0.00000  Uiso   1.00
H794   H     0.23597   0.57634   0.86608   0.00000  Uiso   1.00
H795   H     0.34226   0.92195   0.08085   0.00000  Uiso   1.00
H796   H     0.33778   0.95058   0.12565   0.00000  Uiso   1.00
H797   H     0.33492   0.89396   0.12566   0.00000  Uiso   1.00
H798   H     0.26403   0.92366   0.13392   0.00000  Uiso   1.00
H799   H     0.26649   0.89575   0.09080   0.00000  Uiso   1.00
H800   H     0.42109   0.84150   0.91906   0.00000  Uiso   1.00
H801   H     0.44966   0.83722   0.87421   0.00000  Uiso   1.00
H802   H     0.39307   0.83382   0.87431   0.00000  Uiso   1.00
H803   H     0.15237   0.54385   0.46631   0.00000  Uiso   1.00
H804   H     0.42351   0.76320   0.86609   0.00000  Uiso   1.00
H805   H     0.39557   0.76544   0.90922   0.00000  Uiso   1.00
H806   H     0.05013   0.66265   0.12567   0.00000  Uiso   1.00
H807   H     0.07877   0.65838   0.08086   0.00000  Uiso   1.00
H808   H     0.10673   0.66594   0.12566   0.00000  Uiso   1.00
H809   H     0.10441   0.73437   0.09082   0.00000  Uiso   1.00
H810   H     0.07645   0.73660   0.13393   0.00000  Uiso   1.00
H811   H     0.33777   0.95058   0.87435   0.00000  Uiso   1.00
H812   H     0.34226   0.92195   0.91914   0.00000  Uiso   1.00
H813   H     0.33491   0.89396   0.87434   0.00000  Uiso   1.00
H814   H     0.34763   0.95617   0.53369   0.00000  Uiso   1.00
H815   H     0.26649   0.89574   0.90920   0.00000  Uiso   1.00
H816   H     0.26402   0.92366   0.86608   0.00000  Uiso   1.00
H817   H     0.15774   0.57805   0.08085   0.00000  Uiso   1.00
H818   H     0.16222   0.54941   0.12564   0.00000  Uiso   1.00
H819   H     0.16507   0.60603   0.12567   0.00000  Uiso   1.00
H820   H     0.23596   0.57634   0.13392   0.00000  Uiso   1.00
H821   H     0.23350   0.60426   0.09080   0.00000  Uiso   1.00
H822   H     0.07890   0.65849   0.91907   0.00000  Uiso   1.00
H823   H     0.05031   0.66277   0.87423   0.00000  Uiso   1.00
H824   H     0.10690   0.66616   0.87431   0.00000  Uiso   1.00
H825   H     0.29376   0.90233   0.96632   0.00000  Uiso   1.00
H826   H     0.07649   0.73677   0.86608   0.00000  Uiso   1.00
H827   H     0.10443   0.73453   0.90921   0.00000  Uiso   1.00
H828   H     0.44988   0.83735   0.12567   0.00000  Uiso   1.00
H829   H     0.42122   0.84161   0.08086   0.00000  Uiso   1.00
H830   H     0.39327   0.83406   0.12566   0.00000  Uiso   1.00
H831   H     0.39559   0.76563   0.09081   0.00000  Uiso   1.00
H832   H     0.42355   0.76340   0.13393   0.00000  Uiso   1.00
O833   O     0.25000   0.50000   0.25000   0.00000  Uiso   1.00
O834   O     0.25000   0.96539   0.66251   0.00000  Uiso   1.00
O835   O     0.46538   0.75000   0.33749   0.00000  Uiso   1.00
O836   O     0.03461   0.75000   0.66251   0.00000  Uiso   1.00
O837   O    -0.00000   0.71539   0.83749   0.00000  Uiso   1.00
O838   O     0.00000   0.78462   0.16251   0.00000  Uiso   1.00
O839   O     0.28461   0.50000   0.83749   0.00000  Uiso   1.00
O840   O     0.21538   0.50000   0.16251   0.00000  Uiso   1.00
O841   O     0.00000   0.78462   0.83749   0.00000  Uiso   1.00
O842   O     0.00000   0.71539   0.16251   0.00000  Uiso   1.00
O843   O     0.21538   0.50000   0.83749   0.00000  Uiso   1.00
O844   O     0.25000   0.50000   0.75000   0.00000  Uiso   1.00
O845   O     0.28461   0.50000   0.16251   0.00000  Uiso   1.00
O846   O     0.20126   0.58332   0.27298   0.00000  Uiso   1.00
O847   O     0.29873   0.91668   0.72702   0.00000  Uiso   1.00
O848   O     0.41668   0.70127   0.27298   0.00000  Uiso   1.00
O849   O     0.08332   0.79874   0.72702   0.00000  Uiso   1.00
O850   O     0.29873   0.91668   0.27298   0.00000  Uiso   1.00
O851   O     0.20126   0.58332   0.72702   0.00000  Uiso   1.00
O852   O     0.08332   0.79874   0.27298   0.00000  Uiso   1.00
O853   O     0.41668   0.70127   0.72702   0.00000  Uiso   1.00
O854   O     0.20126   0.91668   0.72702   0.00000  Uiso   1.00
O855   O     0.00000   0.75000   0.25000   0.00000  Uiso   1.00
O856   O     0.29873   0.58332   0.27298   0.00000  Uiso   1.00
O857   O     0.41668   0.79874   0.72702   0.00000  Uiso   1.00
O858   O     0.08332   0.70127   0.27298   0.00000  Uiso   1.00
O859   O     0.29873   0.58332   0.72702   0.00000  Uiso   1.00
O860   O     0.20126   0.91668   0.27298   0.00000  Uiso   1.00
O861   O     0.08332   0.70127   0.72702   0.00000  Uiso   1.00
O862   O     0.41668   0.79874   0.27298   0.00000  Uiso   1.00
O863   O     0.45126   0.83332   0.77298   0.00000  Uiso   1.00
O864   O     0.04873   0.66668   0.22702   0.00000  Uiso   1.00
O865   O     0.16668   0.95127   0.77298   0.00000  Uiso   1.00
O866   O     0.00000   0.75000   0.75000   0.00000  Uiso   1.00
O867   O     0.33332   0.54874   0.22702   0.00000  Uiso   1.00
O868   O     0.04873   0.66668   0.77298   0.00000  Uiso   1.00
O869   O     0.45126   0.83332   0.22702   0.00000  Uiso   1.00
O870   O     0.33332   0.54874   0.77298   0.00000  Uiso   1.00
O871   O     0.16668   0.95127   0.22702   0.00000  Uiso   1.00
O872   O     0.45126   0.66668   0.22702   0.00000  Uiso   1.00
O873   O     0.04873   0.83332   0.77298   0.00000  Uiso   1.00
O874   O     0.16668   0.54874   0.22702   0.00000  Uiso   1.00
O875   O     0.33332   0.95127   0.77298   0.00000  Uiso   1.00
O876   O     0.04873   0.83332   0.22702   0.00000  Uiso   1.00
O877   O     0.25000   0.96539   0.33749   0.00000  Uiso   1.00
O878   O     0.45126   0.66668   0.77298   0.00000  Uiso   1.00
O879   O     0.33332   0.95127   0.22702   0.00000  Uiso   1.00
O880   O     0.16668   0.54874   0.77298   0.00000  Uiso   1.00
O881   O     0.25000   0.53462   0.66251   0.00000  Uiso   1.00
O882   O     0.03461   0.75000   0.33749   0.00000  Uiso   1.00
O883   O     0.46538   0.75000   0.66251   0.00000  Uiso   1.00
O884   O     0.25000   0.53462   0.33749   0.00000  Uiso   1.00
Zn885  Zn    0.20052   0.50000   0.21730   0.00000  Uiso   1.00
Zn886  Zn    0.04947   0.75000   0.28270   0.00000  Uiso   1.00
Zn887  Zn    0.25000   0.95053   0.71730   0.00000  Uiso   1.00
Zn888  Zn    0.25000   0.54948   0.28270   0.00000  Uiso   1.00
Zn889  Zn    0.04947   0.75000   0.71730   0.00000  Uiso   1.00
Zn890  Zn    0.45052   0.75000   0.28270   0.00000  Uiso   1.00
Zn891  Zn    0.25000   0.54948   0.71730   0.00000  Uiso   1.00
Zn892  Zn    0.25000   0.95053   0.28270   0.00000  Uiso   1.00
Zn893  Zn    0.29947   0.50000   0.78270   0.00000  Uiso   1.00
Zn894  Zn    0.00000   0.70053   0.21730   0.00000  Uiso   1.00
Zn895  Zn   -0.00000   0.79948   0.78270   0.00000  Uiso   1.00
Zn896  Zn    0.29947   0.50000   0.21730   0.00000  Uiso   1.00
Zn897  Zn    0.20052   0.50000   0.78270   0.00000  Uiso   1.00
Zn898  Zn   -0.00000   0.79948   0.21730   0.00000  Uiso   1.00
Zn899  Zn    0.00000   0.70053   0.78270   0.00000  Uiso   1.00
Zn900  Zn    0.45052   0.75000   0.71730   0.00000  Uiso   1.00
C901   C     0.75000   0.50000   0.35577   0.00000  Uiso   1.00
C902   C     0.83001   0.91999   0.75000   0.00000  Uiso   1.00
C903   C     0.92975   0.78034   0.01998   0.00000  Uiso   1.00
C904   C     0.71904   0.56996   0.98002   0.00000  Uiso   1.00
C905   C     0.78096   0.93004   0.01998   0.00000  Uiso   1.00
C906   C     0.92974   0.78032   0.98002   0.00000  Uiso   1.00
C907   C     0.57025   0.71966   0.01998   0.00000  Uiso   1.00
C908   C     0.97221   0.82540   0.39528   0.00000  Uiso   1.00
C909   C     0.92440   0.82783   0.39063   0.00000  Uiso   1.00
C910   C     0.52779   0.67460   0.60472   0.00000  Uiso   1.00
C911   C     0.57560   0.67217   0.60937   0.00000  Uiso   1.00
C912   C     0.67486   0.52848   0.39529   0.00000  Uiso   1.00
C913   C     0.91998   0.66998   0.25000   0.00000  Uiso   1.00
C914   C     0.67287   0.57630   0.39064   0.00000  Uiso   1.00
C915   C     0.82514   0.97153   0.60471   0.00000  Uiso   1.00
C916   C     0.82714   0.92370   0.60935   0.00000  Uiso   1.00
C917   C     0.52778   0.67460   0.39528   0.00000  Uiso   1.00
C918   C     0.57560   0.67217   0.39063   0.00000  Uiso   1.00
C919   C     0.97222   0.82541   0.60472   0.00000  Uiso   1.00
C920   C     0.92441   0.82783   0.60938   0.00000  Uiso   1.00
C921   C     0.82514   0.97153   0.39529   0.00000  Uiso   1.00
C922   C     0.82715   0.92370   0.39065   0.00000  Uiso   1.00
C923   C     0.67486   0.52847   0.60471   0.00000  Uiso   1.00
C924   C     0.58002   0.83002   0.75000   0.00000  Uiso   1.00
C925   C     0.67285   0.57630   0.60935   0.00000  Uiso   1.00
C926   C     0.72158   0.57516   0.89529   0.00000  Uiso   1.00
C927   C     0.67376   0.57720   0.89065   0.00000  Uiso   1.00
C928   C     0.77842   0.92484   0.10471   0.00000  Uiso   1.00
C929   C     0.82625   0.92280   0.10935   0.00000  Uiso   1.00
C930   C     0.92455   0.77765   0.89528   0.00000  Uiso   1.00
C931   C     0.92203   0.82545   0.89058   0.00000  Uiso   1.00
C932   C     0.57540   0.72220   0.10472   0.00000  Uiso   1.00
C933   C     0.57781   0.67439   0.10936   0.00000  Uiso   1.00
C934   C     0.77842   0.92484   0.89529   0.00000  Uiso   1.00
C935   C     0.83001   0.91999   0.25000   0.00000  Uiso   1.00
C936   C     0.82624   0.92280   0.89064   0.00000  Uiso   1.00
C937   C     0.72157   0.57516   0.10471   0.00000  Uiso   1.00
C938   C     0.67375   0.57719   0.10935   0.00000  Uiso   1.00
C939   C     0.57545   0.72234   0.89528   0.00000  Uiso   1.00
C940   C     0.57795   0.67453   0.89059   0.00000  Uiso   1.00
C941   C     0.92460   0.77780   0.10472   0.00000  Uiso   1.00
C942   C     0.92219   0.82561   0.10936   0.00000  Uiso   1.00
C943   C     0.66999   0.58001   0.75000   0.00000  Uiso   1.00
C944   C     0.58002   0.83002   0.25000   0.00000  Uiso   1.00
C945   C     0.91998   0.66998   0.75000   0.00000  Uiso   1.00
C946   C     0.66998   0.91998   0.75000   0.00000  Uiso   1.00
C947   C     0.83002   0.58002   0.25000   0.00000  Uiso   1.00
C948   C     0.91999   0.83001   0.75000   0.00000  Uiso   1.00
C949   C     0.75000   0.50000   0.64423   0.00000  Uiso   1.00
C950   C     0.58001   0.66999   0.25000   0.00000  Uiso   1.00
C951   C     0.83002   0.58002   0.75000   0.00000  Uiso   1.00
C952   C     0.66998   0.91998   0.25000   0.00000  Uiso   1.00
C953   C     0.58001   0.66999   0.75000   0.00000  Uiso   1.00
C954   C     0.91999   0.83001   0.25000   0.00000  Uiso   1.00
C955   C     0.63833   0.88833   0.25000   0.00000  Uiso   1.00
C956   C     0.86167   0.61167   0.75000   0.00000  Uiso   1.00
C957   C     0.61166   0.63834   0.25000   0.00000  Uiso   1.00
C958   C     0.88834   0.86166   0.75000   0.00000  Uiso   1.00
C959   C     0.86167   0.61167   0.25000   0.00000  Uiso   1.00
C960   C     0.50000   0.75000   0.35577   0.00000  Uiso   1.00
C961   C     0.63833   0.88833   0.75000   0.00000  Uiso   1.00
C962   C     0.88834   0.86166   0.25000   0.00000  Uiso   1.00
C963   C     0.61166   0.63834   0.75000   0.00000  Uiso   1.00
C964   C     0.63834   0.61166   0.75000   0.00000  Uiso   1.00
C965   C     0.86166   0.88834   0.25000   0.00000  Uiso   1.00
C966   C     0.61167   0.86167   0.75000   0.00000  Uiso   1.00
C967   C     0.88833   0.63833   0.25000   0.00000  Uiso   1.00
C968   C     0.86166   0.88834   0.75000   0.00000  Uiso   1.00
C969   C     0.63834   0.61166   0.25000   0.00000  Uiso   1.00
C970   C     0.88833   0.63833   0.75000   0.00000  Uiso   1.00
C971   C     0.50000   0.75000   0.64423   0.00000  Uiso   1.00
C972   C     0.61167   0.86167   0.25000   0.00000  Uiso   1.00
C973   C     0.98556   0.78613   0.41794   0.00000  Uiso   1.00
C974   C     0.51444   0.71387   0.58206   0.00000  Uiso   1.00
C975   C     0.71401   0.51478   0.41794   0.00000  Uiso   1.00
C976   C     0.78599   0.98522   0.58206   0.00000  Uiso   1.00
C977   C     0.51444   0.71387   0.41794   0.00000  Uiso   1.00
C978   C     0.98556   0.78613   0.58206   0.00000  Uiso   1.00
C979   C     0.78599   0.98522   0.41794   0.00000  Uiso   1.00
C980   C     0.71401   0.51478   0.58206   0.00000  Uiso   1.00
C981   C     0.73525   0.53600   0.91794   0.00000  Uiso   1.00
C982   C     0.50000   0.75000   0.85577   0.00000  Uiso   1.00
C983   C     0.76475   0.96400   0.08206   0.00000  Uiso   1.00
C984   C     0.96385   0.76439   0.91794   0.00000  Uiso   1.00
C985   C     0.53613   0.73556   0.08206   0.00000  Uiso   1.00
C986   C     0.76475   0.96400   0.91794   0.00000  Uiso   1.00
C987   C     0.73524   0.53600   0.08206   0.00000  Uiso   1.00
C988   C     0.53615   0.73560   0.91794   0.00000  Uiso   1.00
C989   C     0.96387   0.76444   0.08206   0.00000  Uiso   1.00
C990   C     0.50000   0.75000   0.39799   0.00000  Uiso   1.00
C991   C     0.50000   0.75000   0.60201   0.00000  Uiso   1.00
C992   C     0.75000   0.50000   0.39799   0.00000  Uiso   1.00
C993   C     0.50000   0.75000   0.14423   0.00000  Uiso   1.00
C994   C     0.75000   0.50000   0.60201   0.00000  Uiso   1.00
C995   C     0.75000   0.50000   0.89799   0.00000  Uiso   1.00
C996   C     0.75000   0.50000   0.10201   0.00000  Uiso   1.00
C997   C     0.50000   0.75000   0.89799   0.00000  Uiso   1.00
C998   C     0.50000   0.75000   0.10201   0.00000  Uiso   1.00
C999   C     0.51509   0.71434   0.45889   0.00000  Uiso   1.00
C1000  C     0.98491   0.78566   0.54111   0.00000  Uiso   1.00
C1001  C     0.78551   0.98458   0.45889   0.00000  Uiso   1.00
C1002  C     0.71449   0.51543   0.54111   0.00000  Uiso   1.00
C1003  C     0.98491   0.78566   0.45889   0.00000  Uiso   1.00
C1004  C     0.75000   0.50000   0.85577   0.00000  Uiso   1.00
C1005  C     0.51509   0.71434   0.54111   0.00000  Uiso   1.00
C1006  C     0.71449   0.51543   0.45889   0.00000  Uiso   1.00
C1007  C     0.78551   0.98458   0.54111   0.00000  Uiso   1.00
C1008  C     0.76540   0.96448   0.95889   0.00000  Uiso   1.00
C1009  C     0.73460   0.53553   0.04111   0.00000  Uiso   1.00
C1010  C     0.53568   0.73494   0.95889   0.00000  Uiso   1.00
C1011  C     0.96433   0.76508   0.04111   0.00000  Uiso   1.00
C1012  C     0.73460   0.53553   0.95889   0.00000  Uiso   1.00
C1013  C     0.76540   0.96448   0.04111   0.00000  Uiso   1.00
C1014  C     0.96432   0.76506   0.95889   0.00000  Uiso   1.00
C1015  C     0.75000   0.50000   0.14423   0.00000  Uiso   1.00
C1016  C     0.53567   0.73492   0.04111   0.00000  Uiso   1.00
C1017  C     0.50000   0.75000   0.47937   0.00000  Uiso   1.00
C1018  C     0.50000   0.75000   0.52063   0.00000  Uiso   1.00
C1019  C     0.75000   0.50000   0.47938   0.00000  Uiso   1.00
C1020  C     0.75000   0.50000   0.52063   0.00000  Uiso   1.00
C1021  C     0.75000   0.50000   0.97938   0.00000  Uiso   1.00
C1022  C     0.75000   0.50000   0.02063   0.00000  Uiso   1.00
C1023  C     0.50000   0.75000   0.97937   0.00000  Uiso   1.00
C1024  C     0.50000   0.75000   0.02062   0.00000  Uiso   1.00
C1025  C     0.53035   0.67976   0.48002   0.00000  Uiso   1.00
C1026  C     0.66999   0.58001   0.25000   0.00000  Uiso   1.00
C1027  C     0.96964   0.82024   0.51998   0.00000  Uiso   1.00
C1028  C     0.81994   0.96899   0.48002   0.00000  Uiso   1.00
C1029  C     0.68007   0.53102   0.51998   0.00000  Uiso   1.00
C1030  C     0.96964   0.82024   0.48002   0.00000  Uiso   1.00
C1031  C     0.53036   0.67976   0.51998   0.00000  Uiso   1.00
C1032  C     0.68007   0.53102   0.48002   0.00000  Uiso   1.00
C1033  C     0.81994   0.96899   0.51998   0.00000  Uiso   1.00
C1034  C     0.78096   0.93004   0.98002   0.00000  Uiso   1.00
C1035  C     0.71904   0.56996   0.01998   0.00000  Uiso   1.00
C1036  C     0.57026   0.71968   0.98002   0.00000  Uiso   1.00
H1037  H     0.54292   0.65195   0.46631   0.00000  Uiso   1.00
H1038  H     0.70624   0.59767   0.03369   0.00000  Uiso   1.00
H1039  H     0.59809   0.70712   0.96631   0.00000  Uiso   1.00
H1040  H     0.90193   0.79291   0.03369   0.00000  Uiso   1.00
H1041  H     0.70624   0.59767   0.96632   0.00000  Uiso   1.00
H1042  H     0.79376   0.90233   0.03369   0.00000  Uiso   1.00
H1043  H     0.90191   0.79287   0.96631   0.00000  Uiso   1.00
H1044  H     0.59807   0.70709   0.03369   0.00000  Uiso   1.00
H1045  H     0.91266   0.80015   0.37431   0.00000  Uiso   1.00
H1046  H     0.90839   0.82879   0.41913   0.00000  Uiso   1.00
H1047  H     0.91596   0.85675   0.37433   0.00000  Uiso   1.00
H1048  H     0.95707   0.84805   0.53369   0.00000  Uiso   1.00
H1049  H     0.98438   0.85441   0.40919   0.00000  Uiso   1.00
H1050  H     0.98662   0.82646   0.36607   0.00000  Uiso   1.00
H1051  H     0.59161   0.67121   0.58087   0.00000  Uiso   1.00
H1052  H     0.58735   0.69985   0.62569   0.00000  Uiso   1.00
H1053  H     0.58404   0.64325   0.62566   0.00000  Uiso   1.00
H1054  H     0.51339   0.67354   0.63393   0.00000  Uiso   1.00
H1055  H     0.51562   0.64559   0.59082   0.00000  Uiso   1.00
H1056  H     0.67202   0.59232   0.41914   0.00000  Uiso   1.00
H1057  H     0.70066   0.58781   0.37435   0.00000  Uiso   1.00
H1058  H     0.64404   0.58500   0.37433   0.00000  Uiso   1.00
H1059  H     0.84763   0.95617   0.46632   0.00000  Uiso   1.00
H1060  H     0.67367   0.51408   0.36609   0.00000  Uiso   1.00
H1061  H     0.64576   0.51657   0.40921   0.00000  Uiso   1.00
H1062  H     0.79935   0.91220   0.62564   0.00000  Uiso   1.00
H1063  H     0.82799   0.90769   0.58085   0.00000  Uiso   1.00
H1064  H     0.85597   0.91501   0.62567   0.00000  Uiso   1.00
H1065  H     0.85424   0.98344   0.59080   0.00000  Uiso   1.00
H1066  H     0.82633   0.98592   0.63392   0.00000  Uiso   1.00
H1067  H     0.58734   0.69985   0.37431   0.00000  Uiso   1.00
H1068  H     0.59161   0.67121   0.41913   0.00000  Uiso   1.00
H1069  H     0.58403   0.64325   0.37433   0.00000  Uiso   1.00
H1070  H     0.65237   0.54384   0.53369   0.00000  Uiso   1.00
H1071  H     0.51561   0.64559   0.40919   0.00000  Uiso   1.00
H1072  H     0.51338   0.67354   0.36607   0.00000  Uiso   1.00
H1073  H     0.90840   0.82879   0.58088   0.00000  Uiso   1.00
H1074  H     0.91267   0.80016   0.62570   0.00000  Uiso   1.00
H1075  H     0.91598   0.85676   0.62567   0.00000  Uiso   1.00
H1076  H     0.98663   0.82646   0.63393   0.00000  Uiso   1.00
H1077  H     0.98439   0.85441   0.59081   0.00000  Uiso   1.00
H1078  H     0.82800   0.90769   0.41915   0.00000  Uiso   1.00
H1079  H     0.79936   0.91219   0.37436   0.00000  Uiso   1.00
H1080  H     0.85598   0.91501   0.37434   0.00000  Uiso   1.00
H1081  H     0.95707   0.84805   0.46631   0.00000  Uiso   1.00
H1082  H     0.82633   0.98591   0.36608   0.00000  Uiso   1.00
H1083  H     0.85424   0.98344   0.40920   0.00000  Uiso   1.00
H1084  H     0.70064   0.58781   0.62565   0.00000  Uiso   1.00
H1085  H     0.67200   0.59231   0.58086   0.00000  Uiso   1.00
H1086  H     0.64402   0.58499   0.62567   0.00000  Uiso   1.00
H1087  H     0.64576   0.51656   0.59079   0.00000  Uiso   1.00
H1088  H     0.67367   0.51408   0.63392   0.00000  Uiso   1.00
H1089  H     0.66223   0.54943   0.87434   0.00000  Uiso   1.00
H1090  H     0.65775   0.57804   0.91915   0.00000  Uiso   1.00
H1091  H     0.66509   0.60604   0.87434   0.00000  Uiso   1.00
H1092  H     0.54292   0.65194   0.53369   0.00000  Uiso   1.00
H1093  H     0.73352   0.60426   0.90920   0.00000  Uiso   1.00
H1094  H     0.73597   0.57634   0.86608   0.00000  Uiso   1.00
H1095  H     0.84226   0.92195   0.08085   0.00000  Uiso   1.00
H1096  H     0.83778   0.95058   0.12565   0.00000  Uiso   1.00
H1097  H     0.83492   0.89396   0.12566   0.00000  Uiso   1.00
H1098  H     0.76403   0.92366   0.13392   0.00000  Uiso   1.00
H1099  H     0.76649   0.89575   0.09080   0.00000  Uiso   1.00
H1100  H     0.92109   0.84150   0.91906   0.00000  Uiso   1.00
H1101  H     0.94966   0.83722   0.87421   0.00000  Uiso   1.00
H1102  H     0.89307   0.83382   0.87431   0.00000  Uiso   1.00
H1103  H     0.65237   0.54385   0.46631   0.00000  Uiso   1.00
H1104  H     0.92351   0.76320   0.86609   0.00000  Uiso   1.00
H1105  H     0.89557   0.76544   0.90922   0.00000  Uiso   1.00
H1106  H     0.55013   0.66265   0.12567   0.00000  Uiso   1.00
H1107  H     0.57877   0.65838   0.08086   0.00000  Uiso   1.00
H1108  H     0.60673   0.66594   0.12566   0.00000  Uiso   1.00
H1109  H     0.60441   0.73437   0.09082   0.00000  Uiso   1.00
H1110  H     0.57645   0.73660   0.13393   0.00000  Uiso   1.00
H1111  H     0.83777   0.95058   0.87435   0.00000  Uiso   1.00
H1112  H     0.84226   0.92195   0.91914   0.00000  Uiso   1.00
H1113  H     0.83491   0.89396   0.87434   0.00000  Uiso   1.00
H1114  H     0.84763   0.95617   0.53369   0.00000  Uiso   1.00
H1115  H     0.76649   0.89574   0.90920   0.00000  Uiso   1.00
H1116  H     0.76402   0.92366   0.86608   0.00000  Uiso   1.00
H1117  H     0.65774   0.57805   0.08085   0.00000  Uiso   1.00
H1118  H     0.66222   0.54941   0.12564   0.00000  Uiso   1.00
H1119  H     0.66507   0.60603   0.12567   0.00000  Uiso   1.00
H1120  H     0.73596   0.57634   0.13392   0.00000  Uiso   1.00
H1121  H     0.73350   0.60426   0.09080   0.00000  Uiso   1.00
H1122  H     0.57890   0.65849   0.91907   0.00000  Uiso   1.00
H1123  H     0.55031   0.66277   0.87423   0.00000  Uiso   1.00
H1124  H     0.60690   0.66616   0.87431   0.00000  Uiso   1.00
H1125  H     0.79376   0.90233   0.96632   0.00000  Uiso   1.00
H1126  H     0.57649   0.73677   0.86608   0.00000  Uiso   1.00
H1127  H     0.60443   0.73453   0.90921   0.00000  Uiso   1.00
H1128  H     0.94988   0.83735   0.12567   0.00000  Uiso   1.00
H1129  H     0.92122   0.84161   0.08086   0.00000  Uiso   1.00
H1130  H     0.89327   0.83406   0.12566   0.00000  Uiso   1.00
H1131  H     0.89559   0.76563   0.09081   0.00000  Uiso   1.00
H1132  H     0.92355   0.76340   0.13393   0.00000  Uiso   1.00
O1133  O     0.75000   0.50000   0.25000   0.00000  Uiso   1.00
O1134  O     0.75000   0.96539   0.66251   0.00000  Uiso   1.00
O1135  O     0.96538   0.75000   0.33749   0.00000  Uiso   1.00
O1136  O     0.53461   0.75000   0.66251   0.00000  Uiso   1.00
O1137  O     0.50000   0.71539   0.83749   0.00000  Uiso   1.00
O1138  O     0.50000   0.78462   0.16251   0.00000  Uiso   1.00
O1139  O     0.78461   0.50000   0.83749   0.00000  Uiso   1.00
O1140  O     0.71538   0.50000   0.16251   0.00000  Uiso   1.00
O1141  O     0.50000   0.78462   0.83749   0.00000  Uiso   1.00
O1142  O     0.50000   0.71539   0.16251   0.00000  Uiso   1.00
O1143  O     0.71538   0.50000   0.83749   0.00000  Uiso   1.00
O1144  O     0.75000   0.50000   0.75000   0.00000  Uiso   1.00
O1145  O     0.78461   0.50000   0.16251   0.00000  Uiso   1.00
O1146  O     0.70126   0.58332   0.27298   0.00000  Uiso   1.00
O1147  O     0.79873   0.91668   0.72702   0.00000  Uiso   1.00
O1148  O     0.91668   0.70127   0.27298   0.00000  Uiso   1.00
O1149  O     0.58332   0.79874   0.72702   0.00000  Uiso   1.00
O1150  O     0.79873   0.91668   0.27298   0.00000  Uiso   1.00
O1151  O     0.70126   0.58332   0.72702   0.00000  Uiso   1.00
O1152  O     0.58332   0.79874   0.27298   0.00000  Uiso   1.00
O1153  O     0.91668   0.70127   0.72702   0.00000  Uiso   1.00
O1154  O     0.70126   0.91668   0.72702   0.00000  Uiso   1.00
O1155  O     0.50000   0.75000   0.25000   0.00000  Uiso   1.00
O1156  O     0.79873   0.58332   0.27298   0.00000  Uiso   1.00
O1157  O     0.91668   0.79874   0.72702   0.00000  Uiso   1.00
O1158  O     0.58332   0.70127   0.27298   0.00000  Uiso   1.00
O1159  O     0.79873   0.58332   0.72702   0.00000  Uiso   1.00
O1160  O     0.70126   0.91668   0.27298   0.00000  Uiso   1.00
O1161  O     0.58332   0.70127   0.72702   0.00000  Uiso   1.00
O1162  O     0.91668   0.79874   0.27298   0.00000  Uiso   1.00
O1163  O     0.95126   0.83332   0.77298   0.00000  Uiso   1.00
O1164  O     0.54873   0.66668   0.22702   0.00000  Uiso   1.00
O1165  O     0.66668   0.95127   0.77298   0.00000  Uiso   1.00
O1166  O     0.50000   0.75000   0.75000   0.00000  Uiso   1.00
O1167  O     0.83332   0.54874   0.22702   0.00000  Uiso   1.00
O1168  O     0.54873   0.66668   0.77298   0.00000  Uiso   1.00
O1169  O     0.95126   0.83332   0.22702   0.00000  Uiso   1.00
O1170  O     0.83332   0.54874   0.77298   0.00000  Uiso   1.00
O1171  O     0.66668   0.95127   0.22702   0.00000  Uiso   1.00
O1172  O     0.95126   0.66668   0.22702   0.00000  Uiso   1.00
O1173  O     0.54873   0.83332   0.77298   0.00000  Uiso   1.00
O1174  O     0.66668   0.54874   0.22702   0.00000  Uiso   1.00
O1175  O     0.83332   0.95127   0.77298   0.00000  Uiso   1.00
O1176  O     0.54873   0.83332   0.22702   0.00000  Uiso   1.00
O1177  O     0.75000   0.96539   0.33749   0.00000  Uiso   1.00
O1178  O     0.95126   0.66668   0.77298   0.00000  Uiso   1.00
O1179  O     0.83332   0.95127   0.22702   0.00000  Uiso   1.00
O1180  O     0.66668   0.54874   0.77298   0.00000  Uiso   1.00
O1181  O     0.75000   0.53462   0.66251   0.00000  Uiso   1.00
O1182  O     0.53461   0.75000   0.33749   0.00000  Uiso   1.00
O1183  O     0.96538   0.75000   0.66251   0.00000  Uiso   1.00
O1184  O     0.75000   0.53462   0.33749   0.00000  Uiso   1.00
Zn1185 Zn    0.70052   0.50000   0.21730   0.00000  Uiso   1.00
Zn1186 Zn    0.54947   0.75000   0.28270   0.00000  Uiso   1.00
Zn1187 Zn    0.75000   0.95053   0.71730   0.00000  Uiso   1.00
Zn1188 Zn    0.75000   0.54948   0.28270   0.00000  Uiso   1.00
Zn1189 Zn    0.54947   0.75000   0.71730   0.00000  Uiso   1.00
Zn1190 Zn    0.95052   0.75000   0.28270   0.00000  Uiso   1.00
Zn1191 Zn    0.75000   0.54948   0.71730   0.00000  Uiso   1.00
Zn1192 Zn    0.75000   0.95053   0.28270   0.00000  Uiso   1.00
Zn1193 Zn    0.79947   0.50000   0.78270   0.00000  Uiso   1.00
Zn1194 Zn    0.50000   0.70053   0.21730   0.00000  Uiso   1.00
Zn1195 Zn    0.50000   0.79948   0.78270   0.00000  Uiso   1.00
Zn1196 Zn    0.79947   0.50000   0.21730   0.00000  Uiso   1.00
Zn1197 Zn    0.70052   0.50000   0.78270   0.00000  Uiso   1.00
Zn1198 Zn    0.50000   0.79948   0.21730   0.00000  Uiso   1.00
Zn1199 Zn    0.50000   0.70053   0.78270   0.00000  Uiso   1.00
Zn1200 Zn    0.95052   0.75000   0.71730   0.00000  Uiso   1.00
loop_
_geom_bond_atom_site_label_1
_geom_bond_atom_site_label_2
_geom_bond_distance
_geom_bond_site_symmetry_2
_ccdc_geom_bond_type
C1     O877    1.268   1_545 A
C1     C92     1.460   .     S
C1     O284    1.268   .     S
C2     O247    1.277   .     A
C2     C68     1.421   .     S
C2     O275    1.277   .     A
C3     C111    1.405   .     A
C3     H140    1.079   .     S
C3     C6      1.381   1_554 S
C4     H141    1.079   .     S
C4     C112    1.405   .     A
C4     C135    1.381   1_556 S
C5     C113    1.405   .     A
C5     H142    1.079   .     S
C5     C134    1.381   1_554 S
C6     C114    1.405   .     A
C6     H143    1.079   .     S
C6     C3      1.381   1_556 S
C7     C116    1.405   .     A
C7     H144    1.079   .     S
C7     C136    1.381   1_554 S
C8     H150    1.109   .     S
C8     H149    1.109   .     S
C8     C73     1.532   .     S
C8     C9      1.529   .     S
C9     H146    1.109   .     S
C9     H145    1.110   .     S
C9     H147    1.110   .     S
C10    H154    1.109   .     S
C10    H155    1.109   .     S
C10    C11     1.529   .     S
C10    C74     1.532   .     S
C11    H151    1.109   .     S
C11    H153    1.110   .     S
C11    H152    1.110   .     S
C12    H161    1.109   .     S
C12    C75     1.532   .     S
C12    C14     1.529   .     S
C12    H160    1.109   .     S
C13    O272    1.276   .     A
C13    O248    1.276   .     A
C13    C67     1.423   .     S
C14    H158    1.110   .     S
C14    H156    1.109   .     S
C14    H157    1.110   .     S
C15    H166    1.109   .     S
C15    H165    1.109   .     S
C15    C76     1.532   .     S
C15    C16     1.529   .     S
C16    H162    1.110   .     S
C16    H164    1.110   .     S
C16    H163    1.109   .     S
C17    C18     1.529   .     S
C17    H172    1.109   .     S
C17    C77     1.532   .     S
C17    H171    1.109   .     S
C18    H167    1.110   .     S
C18    H169    1.110   .     S
C18    H168    1.109   .     S
C19    C20     1.529   .     S
C19    H176    1.109   .     S
C19    H177    1.109   .     S
C19    C78     1.532   .     S
C20    H175    1.110   .     S
C20    H174    1.110   .     S
C20    H173    1.109   .     S
C21    C22     1.529   .     S
C21    C79     1.532   .     S
C21    H182    1.109   .     S
C21    H183    1.109   .     S
C22    H179    1.110   .     S
C22    H180    1.110   .     S
C22    H178    1.109   .     S
C23    H188    1.109   .     S
C23    H187    1.109   .     S
C23    C80     1.532   .     S
C23    C25     1.529   .     S
C24    O249    1.276   .     A
C24    C66     1.423   .     S
C24    O273    1.276   .     A
C25    H185    1.109   .     S
C25    H184    1.110   .     S
C25    H186    1.110   .     S
C26    H194    1.109   .     S
C26    C27     1.529   .     S
C26    H193    1.109   .     S
C26    C81     1.532   .     S
C27    H190    1.109   .     S
C27    H191    1.110   .     S
C27    H189    1.110   .     S
C28    C83     1.532   .     S
C28    H199    1.109   .     S
C28    C29     1.529   .     S
C28    H198    1.109   .     S
C29    H195    1.109   .     S
C29    H197    1.110   .     S
C29    H196    1.110   .     S
C30    H205    1.109   .     S
C30    C31     1.529   .     S
C30    H204    1.109   .     S
C30    C84     1.532   .     S
C31    H200    1.109   .     S
C31    H202    1.110   .     S
C31    H201    1.110   .     S
C32    H209    1.109   .     S
C32    H210    1.109   .     S
C32    C33     1.529   .     S
C32    C85     1.532   .     S
C33    H208    1.110   .     S
C33    H207    1.109   .     S
C33    H206    1.110   .     S
C34    H215    1.109   .     S
C34    H216    1.109   .     S
C34    C36     1.529   .     S
C34    C86     1.532   .     S
C35    O250    1.277   .     A
C35    C65     1.421   .     S
C35    O279    1.277   .     A
C36    H211    1.110   .     S
C36    H213    1.110   .     S
C36    H212    1.109   .     S
C37    C38     1.529   .     S
C37    H221    1.109   .     S
C37    H220    1.109   .     S
C37    C87     1.532   .     S
C38    H218    1.110   .     S
C38    H219    1.110   .     S
C38    H217    1.109   .     S
C39    H226    1.109   .     S
C39    C40     1.529   .     S
C39    H227    1.109   .     S
C39    C88     1.532   .     S
C40    H223    1.110   .     S
C40    H222    1.109   .     S
C40    H224    1.110   .     S
C41    H231    1.109   .     S
C41    C89     1.532   .     S
C41    C42     1.529   .     S
C41    H232    1.109   .     S
C42    H228    1.110   .     S
C42    H229    1.109   .     S
C42    H230    1.110   .     S
C43    O251    1.277   .     A
C43    C64     1.421   .     S
C43    O280    1.277   .     A
C44    O276    1.276   .     A
C44    C72     1.423   .     S
C44    O252    1.276   .     A
C45    C70     1.423   .     S
C45    O278    1.276   .     A
C45    O253    1.276   .     A
C46    O265    1.276   .     A
C46    C61     1.423   .     S
C46    O254    1.276   .     A
C47    O267    1.276   .     A
C47    O256    1.276   .     A
C47    C59     1.423   .     S
C48    O263    1.277   .     A
C48    O257    1.276   .     A
C48    C58     1.421   .     S
C49    O281    1.268   .     A
C49    C94     1.460   .     S
C49    O834    1.268   1_545 S
C50    C57     1.421   .     S
C50    O258    1.277   .     A
C50    O264    1.277   .     A
C51    O270    1.276   .     A
C51    O259    1.276   .     A
C51    C56     1.423   .     S
C52    O260    1.276   .     A
C52    C55     1.423   .     S
C52    O271    1.276   .     A
C53    C63     1.421   .     S
C53    O261    1.277   .     A
C53    O268    1.277   .     A
C54    O269    1.277   .     A
C54    C62     1.421   .     S
C54    O262    1.277   .     A
C55    C72     1.199   .     T
C56    C70     1.199   .     T
C57    C69     1.198   .     T
C58    C68     1.198   .     T
C59    C67     1.199   .     T
C60    C90     1.460   .     S
C60    O535    1.268   1_455 A
C60    O282    1.268   .     S
C61    C66     1.199   .     T
C62    C65     1.198   .     T
C63    C64     1.198   .     T
C69    C126    1.421   .     S
C71    C91     1.460   .     S
C71    O236    1.268   .     A
C71    O583    1.268   1_455 S
C73    C103    1.416   .     A
C73    C390    1.415   .     A
C74    C105    1.416   .     A
C74    C91     1.415   .     A
C75    C106    1.416   .     A
C75    C92     1.415   .     S
C76    C107    1.416   .     A
C76    C694    1.415   .     S
C77    C99     1.416   .     A
C77    C90     1.415   .     S
C78    C100    1.416   .     A
C78    C391    1.415   .     S
C79    C692    1.415   .     A
C79    C101    1.416   .     A
C80    C102    1.416   .     A
C80    C94     1.415   .     A
C81    C112    1.416   .     A
C81    C95     1.415   .     S
C82    O241    1.268   .     A
C82    C97     1.460   .     S
C82    O237    1.268   .     S
C83    C113    1.416   .     A
C83    C696    1.415   .     S
C84    C114    1.416   .     A
C84    C397    1.415   .     S
C85    C116    1.416   .     A
C85    C98     1.415   .     A
C86    C108    1.416   .     A
C86    C695    1.415   .     A
C87    C109    1.416   .     A
C87    C96     1.415   .     A
C88    C97     1.415   .     A
C88    C110    1.416   .     A
C89    C111    1.416   .     A
C89    C398    1.415   .     S
C90    C373    1.415   1_455 A
C91    C378    1.415   1_455 S
C92    C679    1.415   1_545 A
C93    O242    1.268   .     A
C93    O238    1.268   .     A
C93    C98     1.460   .     S
C94    C676    1.415   1_545 S
C95    C686    1.415   1_545 A
C95    C104    1.460   .     S
C96    C115    1.460   .     S
C96    C683    1.415   1_545 S
C97    C384    1.415   1_455 S
C98    C389    1.415   1_455 S
C99    C125    1.405   .     A
C99    C117    1.419   .     S
C100   C127    1.405   .     A
C100   C418    1.419   .     S
C101   C128    1.405   .     A
C101   C719    1.419   .     S
C102   C120    1.419   .     A
C102   C129    1.405   .     A
C103   C417    1.419   .     A
C103   C130    1.405   .     A
C104   O239    1.268   .     S
C104   O243    1.268   .     S
C105   C131    1.405   .     A
C105   C118    1.419   .     A
C106   C132    1.405   .     A
C106   C119    1.419   .     A
C107   C133    1.405   .     A
C107   C720    1.419   .     S
C108   C134    1.405   .     A
C108   C721    1.419   .     S
C109   C135    1.405   .     A
C109   C122    1.419   .     A
C110   C123    1.419   .     A
C110   C136    1.405   .     A
C111   C424    1.419   .     S
C112   C121    1.419   .     A
C113   C722    1.419   .     S
C114   C423    1.419   .     S
C115   O245    1.268   .     A
C115   O240    1.268   .     A
C116   C124    1.419   .     A
C117   C403    1.419   1_455 A
C117   C118    1.426   .     S
C118   C400    1.419   1_455 S
C119   C120    1.426   .     A
C119   C701    1.419   1_545 S
C120   C707    1.419   1_545 S
C121   C708    1.419   1_545 S
C121   C122    1.426   1_556 S
C122   C713    1.419   1_545 S
C122   C121    1.426   1_554 S
C123   C414    1.419   1_455 S
C123   C124    1.426   1_556 S
C124   C411    1.419   1_455 S
C124   C123    1.426   1_554 S
C125   C131    1.381   .     A
C125   H137    1.079   .     S
C126   O246    1.277   .     A
C126   O274    1.277   .     A
C127   H148    1.079   .     S
C127   C130    1.381   .     A
C128   H159    1.079   .     S
C128   C133    1.381   .     A
C129   H170    1.079   .     S
C129   C132    1.381   .     A
C130   H181    1.079   .     S
C131   H192    1.079   .     S
C132   H203    1.079   .     S
C133   H214    1.079   .     S
C134   H225    1.079   .     S
C134   C5      1.381   1_556 S
C135   H138    1.079   .     S
C135   C4      1.381   1_554 S
C136   H139    1.079   .     S
C136   C7      1.381   1_556 S
O233   Zn288   1.936   .     S
O233   Zn296   1.936   .     S
O233   Zn285   1.936   .     S
O233   Zn892   1.936   1_545 S
O234   Zn287   1.952   .     S
O234   C649    1.268   .     S
O235   Zn290   1.952   .     S
O235   C360    1.268   .     A
O236   Zn289   1.952   .     S
O237   Zn299   1.952   .     S
O238   Zn298   1.952   .     S
O239   Zn293   1.952   .     S
O240   Zn285   1.952   .     S
O241   Zn295   1.952   .     S
O242   Zn294   1.952   .     S
O243   Zn297   1.952   .     S
O244   Zn291   1.936   .     S
O244   Zn293   1.936   .     S
O244   Zn297   1.936   .     S
O244   Zn887   1.936   1_545 S
O245   Zn296   1.952   .     S
O246   Zn288   1.913   .     S
O247   Zn287   1.913   .     S
O248   Zn290   1.916   .     S
O249   Zn289   1.916   .     S
O250   Zn292   1.913   .     S
O251   Zn291   1.913   .     S
O252   Zn286   1.916   .     S
O253   Zn300   1.916   .     S
O254   Zn287   1.916   .     S
O255   Zn286   1.936   .     S
O255   Zn294   1.936   .     S
O255   Zn590   1.936   1_455 S
O255   Zn298   1.936   .     S
O256   Zn288   1.916   .     S
O257   Zn300   1.913   .     S
O258   Zn286   1.913   .     S
O259   Zn291   1.916   .     S
O260   Zn292   1.916   .     S
O261   Zn289   1.913   .     S
O262   Zn290   1.913   .     S
O263   Zn595   1.913   .     S
O264   Zn294   1.913   .     S
O265   Zn897   1.916   .     S
O266   Zn299   1.936   .     S
O266   Zn289   1.936   .     S
O266   Zn295   1.936   .     S
O266   Zn600   1.936   1_455 S
O267   Zn296   1.916   .     S
O268   Zn299   1.913   .     S
O269   Zn598   1.913   .     S
O270   Zn293   1.916   .     S
O271   Zn885   1.916   .     S
O272   Zn594   1.916   .     S
O273   Zn295   1.916   .     S
O274   Zn285   1.913   .     S
O275   Zn893   1.913   .     S
O276   Zn298   1.916   .     S
O277   Zn292   1.952   .     S
O277   C601    1.268   .     A
O278   Zn599   1.916   .     S
O279   Zn896   1.913   .     S
O280   Zn297   1.913   .     S
O281   Zn291   1.952   .     S
O282   Zn286   1.952   .     S
O283   Zn300   1.952   .     S
O283   C371    1.268   .     S
O284   Zn288   1.952   .     S
Zn285  O871    1.916   1_545 S
Zn287  O844    1.936   .     S
Zn290  O555    1.936   .     S
Zn292  O833    1.936   .     S
Zn293  O875    1.913   1_545 S
Zn294  O572    1.916   1_455 S
Zn295  O563    1.913   1_455 S
Zn296  O879    1.913   1_545 S
Zn297  O865    1.916   1_545 S
Zn298  O569    1.913   1_455 S
Zn299  O578    1.916   1_455 S
Zn300  O566    1.936   .     S
C301   O1177   1.268   1_545 A
C301   C392    1.460   .     S
C301   O584    1.268   .     S
C302   O547    1.277   .     A
C302   C368    1.421   .     S
C302   O575    1.277   .     A
C303   C411    1.405   .     A
C303   H440    1.079   .     S
C303   C306    1.381   1_554 S
C304   H441    1.079   .     S
C304   C412    1.405   .     A
C304   C435    1.381   1_556 S
C305   C413    1.405   .     A
C305   H442    1.079   .     S
C305   C434    1.381   1_554 S
C306   C414    1.405   .     A
C306   H443    1.079   .     S
C306   C303    1.381   1_556 S
C307   C416    1.405   .     A
C307   H444    1.079   .     S
C307   C436    1.381   1_554 S
C308   H450    1.109   .     S
C308   H449    1.109   .     S
C308   C373    1.532   .     S
C308   C309    1.529   .     S
C309   H446    1.109   .     S
C309   H445    1.110   .     S
C309   H447    1.110   .     S
C310   H454    1.109   .     S
C310   H455    1.109   .     S
C310   C311    1.529   .     S
C310   C374    1.532   .     S
C311   H451    1.109   .     S
C311   H453    1.110   .     S
C311   H452    1.110   .     S
C312   H461    1.109   .     S
C312   C375    1.532   .     S
C312   C314    1.529   .     S
C312   H460    1.109   .     S
C313   O572    1.276   .     A
C313   O548    1.276   .     A
C313   C367    1.423   .     S
C314   H458    1.110   .     S
C314   H456    1.109   .     S
C314   H457    1.110   .     S
C315   H466    1.109   .     S
C315   H465    1.109   .     S
C315   C376    1.532   .     S
C315   C316    1.529   .     S
C316   H462    1.110   .     S
C316   H464    1.110   .     S
C316   H463    1.109   .     S
C317   C318    1.529   .     S
C317   H472    1.109   .     S
C317   C377    1.532   .     S
C317   H471    1.109   .     S
C318   H467    1.110   .     S
C318   H469    1.110   .     S
C318   H468    1.109   .     S
C319   C320    1.529   .     S
C319   H476    1.109   .     S
C319   H477    1.109   .     S
C319   C378    1.532   .     S
C320   H475    1.110   .     S
C320   H474    1.110   .     S
C320   H473    1.109   .     S
C321   C322    1.529   .     S
C321   C379    1.532   .     S
C321   H482    1.109   .     S
C321   H483    1.109   .     S
C322   H479    1.110   .     S
C322   H480    1.110   .     S
C322   H478    1.109   .     S
C323   H488    1.109   .     S
C323   H487    1.109   .     S
C323   C380    1.532   .     S
C323   C325    1.529   .     S
C324   O549    1.276   .     A
C324   C366    1.423   .     S
C324   O573    1.276   .     A
C325   H485    1.109   .     S
C325   H484    1.110   .     S
C325   H486    1.110   .     S
C326   H494    1.109   .     S
C326   C327    1.529   .     S
C326   H493    1.109   .     S
C326   C381    1.532   .     S
C327   H490    1.109   .     S
C327   H491    1.110   .     S
C327   H489    1.110   .     S
C328   C383    1.532   .     S
C328   H499    1.109   .     S
C328   C329    1.529   .     S
C328   H498    1.109   .     S
C329   H495    1.109   .     S
C329   H497    1.110   .     S
C329   H496    1.110   .     S
C330   H505    1.109   .     S
C330   C331    1.529   .     S
C330   H504    1.109   .     S
C330   C384    1.532   .     S
C331   H500    1.109   .     S
C331   H502    1.110   .     S
C331   H501    1.110   .     S
C332   H509    1.109   .     S
C332   H510    1.109   .     S
C332   C333    1.529   .     S
C332   C385    1.532   .     S
C333   H508    1.110   .     S
C333   H507    1.109   .     S
C333   H506    1.110   .     S
C334   H515    1.109   .     S
C334   H516    1.109   .     S
C334   C336    1.529   .     S
C334   C386    1.532   .     S
C335   O550    1.277   .     A
C335   C365    1.421   .     S
C335   O579    1.277   .     A
C336   H511    1.110   .     S
C336   H513    1.110   .     S
C336   H512    1.109   .     S
C337   C338    1.529   .     S
C337   H521    1.109   .     S
C337   H520    1.109   .     S
C337   C387    1.532   .     S
C338   H518    1.110   .     S
C338   H519    1.110   .     S
C338   H517    1.109   .     S
C339   H526    1.109   .     S
C339   C340    1.529   .     S
C339   H527    1.109   .     S
C339   C388    1.532   .     S
C340   H523    1.110   .     S
C340   H522    1.109   .     S
C340   H524    1.110   .     S
C341   H531    1.109   .     S
C341   C389    1.532   .     S
C341   C342    1.529   .     S
C341   H532    1.109   .     S
C342   H528    1.110   .     S
C342   H529    1.109   .     S
C342   H530    1.110   .     S
C343   O551    1.277   .     A
C343   C364    1.421   .     S
C343   O580    1.277   .     A
C344   O576    1.276   .     A
C344   C372    1.423   .     S
C344   O552    1.276   .     A
C345   C370    1.423   .     S
C345   O578    1.276   .     A
C345   O553    1.276   .     A
C346   O565    1.276   .     A
C346   C361    1.423   .     S
C346   O554    1.276   .     A
C347   O567    1.276   .     A
C347   O556    1.276   .     A
C347   C359    1.423   .     S
C348   O563    1.277   .     A
C348   O557    1.276   .     A
C348   C358    1.421   .     S
C349   O581    1.268   .     A
C349   C394    1.460   .     S
C349   O1134   1.268   1_545 S
C350   C357    1.421   .     S
C350   O558    1.277   .     A
C350   O564    1.277   .     A
C351   O570    1.276   .     A
C351   O559    1.276   .     A
C351   C356    1.423   .     S
C352   O560    1.276   .     A
C352   C355    1.423   .     S
C352   O571    1.276   .     A
C353   C363    1.421   .     S
C353   O561    1.277   .     A
C353   O568    1.277   .     A
C354   O569    1.277   .     A
C354   C362    1.421   .     S
C354   O562    1.277   .     A
C355   C372    1.199   .     T
C356   C370    1.199   .     T
C357   C369    1.198   .     T
C358   C368    1.198   .     T
C359   C367    1.199   .     T
C360   C390    1.460   .     S
C360   O582    1.268   .     S
C361   C366    1.199   .     T
C362   C365    1.198   .     T
C363   C364    1.198   .     T
C369   C426    1.421   .     S
C371   C391    1.460   .     S
C371   O536    1.268   .     A
C373   C403    1.416   .     A
C373   C90     1.415   1_655 A
C374   C405    1.416   .     A
C374   C391    1.415   .     A
C375   C406    1.416   .     A
C375   C392    1.415   .     S
C376   C407    1.416   .     A
C376   C994    1.415   .     S
C377   C399    1.416   .     A
C377   C390    1.415   .     S
C378   C400    1.416   .     A
C378   C91     1.415   1_655 S
C379   C992    1.415   .     A
C379   C401    1.416   .     A
C380   C402    1.416   .     A
C380   C394    1.415   .     A
C381   C412    1.416   .     A
C381   C395    1.415   .     S
C382   O541    1.268   .     A
C382   C397    1.460   .     S
C382   O537    1.268   .     S
C383   C413    1.416   .     A
C383   C996    1.415   .     S
C384   C414    1.416   .     A
C384   C97     1.415   1_655 S
C385   C416    1.416   .     A
C385   C398    1.415   .     A
C386   C408    1.416   .     A
C386   C995    1.415   .     A
C387   C409    1.416   .     A
C387   C396    1.415   .     A
C388   C397    1.415   .     A
C388   C410    1.416   .     A
C389   C411    1.416   .     A
C389   C98     1.415   1_655 S
C392   C979    1.415   1_545 A
C393   O542    1.268   .     A
C393   O538    1.268   .     A
C393   C398    1.460   .     S
C394   C976    1.415   1_545 S
C395   C986    1.415   1_545 A
C395   C404    1.460   .     S
C396   C415    1.460   .     S
C396   C983    1.415   1_545 S
C399   C425    1.405   .     A
C399   C417    1.419   .     S
C400   C427    1.405   .     A
C400   C118    1.419   1_655 S
C401   C428    1.405   .     A
C401   C1019   1.419   .     S
C402   C420    1.419   .     A
C402   C429    1.405   .     A
C403   C117    1.419   1_655 A
C403   C430    1.405   .     A
C404   O539    1.268   .     S
C404   O543    1.268   .     S
C405   C431    1.405   .     A
C405   C418    1.419   .     A
C406   C432    1.405   .     A
C406   C419    1.419   .     A
C407   C433    1.405   .     A
C407   C1020   1.419   .     S
C408   C434    1.405   .     A
C408   C1021   1.419   .     S
C409   C435    1.405   .     A
C409   C422    1.419   .     A
C410   C423    1.419   .     A
C410   C436    1.405   .     A
C411   C124    1.419   1_655 S
C412   C421    1.419   .     A
C413   C1022   1.419   .     S
C414   C123    1.419   1_655 S
C415   O545    1.268   .     A
C415   O540    1.268   .     A
C416   C424    1.419   .     A
C417   C418    1.426   .     S
C419   C420    1.426   .     A
C419   C1001   1.419   1_545 S
C420   C1007   1.419   1_545 S
C421   C1008   1.419   1_545 S
C421   C422    1.426   1_556 S
C422   C1013   1.419   1_545 S
C422   C421    1.426   1_554 S
C423   C424    1.426   1_556 S
C424   C423    1.426   1_554 S
C425   C431    1.381   .     A
C425   H437    1.079   .     S
C426   O546    1.277   .     A
C426   O574    1.277   .     A
C427   H448    1.079   .     S
C427   C430    1.381   .     A
C428   H459    1.079   .     S
C428   C433    1.381   .     A
C429   H470    1.079   .     S
C429   C432    1.381   .     A
C430   H481    1.079   .     S
C431   H492    1.079   .     S
C432   H503    1.079   .     S
C433   H514    1.079   .     S
C434   H525    1.079   .     S
C434   C305    1.381   1_556 S
C435   H438    1.079   .     S
C435   C304    1.381   1_554 S
C436   H439    1.079   .     S
C436   C307    1.381   1_556 S
O533   Zn588   1.936   .     S
O533   Zn596   1.936   .     S
O533   Zn585   1.936   .     S
O533   Zn1192  1.936   1_545 S
O534   Zn587   1.952   .     S
O534   C949    1.268   .     S
O535   Zn590   1.952   .     S
O535   C60     1.268   1_655 A
O536   Zn589   1.952   .     S
O537   Zn599   1.952   .     S
O538   Zn598   1.952   .     S
O539   Zn593   1.952   .     S
O540   Zn585   1.952   .     S
O541   Zn595   1.952   .     S
O542   Zn594   1.952   .     S
O543   Zn597   1.952   .     S
O544   Zn591   1.936   .     S
O544   Zn593   1.936   .     S
O544   Zn597   1.936   .     S
O544   Zn1187  1.936   1_545 S
O545   Zn596   1.952   .     S
O546   Zn588   1.913   .     S
O547   Zn587   1.913   .     S
O548   Zn590   1.916   .     S
O549   Zn589   1.916   .     S
O550   Zn592   1.913   .     S
O551   Zn591   1.913   .     S
O552   Zn586   1.916   .     S
O553   Zn600   1.916   .     S
O554   Zn587   1.916   .     S
O555   Zn586   1.936   .     S
O555   Zn594   1.936   .     S
O555   Zn598   1.936   .     S
O556   Zn588   1.916   .     S
O557   Zn600   1.913   .     S
O558   Zn586   1.913   .     S
O559   Zn591   1.916   .     S
O560   Zn592   1.916   .     S
O561   Zn589   1.913   .     S
O562   Zn590   1.913   .     S
O563   Zn295   1.913   1_655 S
O564   Zn594   1.913   .     S
O565   Zn1197  1.916   .     S
O566   Zn599   1.936   .     S
O566   Zn589   1.936   .     S
O566   Zn595   1.936   .     S
O567   Zn596   1.916   .     S
O568   Zn599   1.913   .     S
O569   Zn298   1.913   1_655 S
O570   Zn593   1.916   .     S
O571   Zn1185  1.916   .     S
O572   Zn294   1.916   1_655 S
O573   Zn595   1.916   .     S
O574   Zn585   1.913   .     S
O575   Zn1193  1.913   .     S
O576   Zn598   1.916   .     S
O577   Zn592   1.952   .     S
O577   C901    1.268   .     A
O578   Zn299   1.916   1_655 S
O579   Zn1196  1.913   .     S
O580   Zn597   1.913   .     S
O581   Zn591   1.952   .     S
O582   Zn586   1.952   .     S
O583   Zn600   1.952   .     S
O583   C71     1.268   1_655 S
O584   Zn588   1.952   .     S
Zn585  O1171   1.916   1_545 S
Zn587  O1144   1.936   .     S
Zn590  O255    1.936   1_655 S
Zn592  O1133   1.936   .     S
Zn593  O1175   1.913   1_545 S
Zn596  O1179   1.913   1_545 S
Zn597  O1165   1.916   1_545 S
Zn600  O266    1.936   1_655 S
C601   C692    1.460   .     S
C601   O884    1.268   .     S
C602   O847    1.277   .     A
C602   C668    1.421   .     S
C602   O875    1.277   .     A
C603   C711    1.405   .     A
C603   H740    1.079   .     S
C603   C606    1.381   1_554 S
C604   H741    1.079   .     S
C604   C712    1.405   .     A
C604   C735    1.381   1_556 S
C605   C713    1.405   .     A
C605   H742    1.079   .     S
C605   C734    1.381   1_554 S
C606   C714    1.405   .     A
C606   H743    1.079   .     S
C606   C603    1.381   1_556 S
C607   C716    1.405   .     A
C607   H744    1.079   .     S
C607   C736    1.381   1_554 S
C608   H750    1.109   .     S
C608   H749    1.109   .     S
C608   C673    1.532   .     S
C608   C609    1.529   .     S
C609   H746    1.109   .     S
C609   H745    1.110   .     S
C609   H747    1.110   .     S
C610   H754    1.109   .     S
C610   H755    1.109   .     S
C610   C611    1.529   .     S
C610   C674    1.532   .     S
C611   H751    1.109   .     S
C611   H753    1.110   .     S
C611   H752    1.110   .     S
C612   H761    1.109   .     S
C612   C675    1.532   .     S
C612   C614    1.529   .     S
C612   H760    1.109   .     S
C613   O872    1.276   .     A
C613   O848    1.276   .     A
C613   C667    1.423   .     S
C614   H758    1.110   .     S
C614   H756    1.109   .     S
C614   H757    1.110   .     S
C615   H766    1.109   .     S
C615   H765    1.109   .     S
C615   C676    1.532   .     S
C615   C616    1.529   .     S
C616   H762    1.110   .     S
C616   H764    1.110   .     S
C616   H763    1.109   .     S
C617   C618    1.529   .     S
C617   H772    1.109   .     S
C617   C677    1.532   .     S
C617   H771    1.109   .     S
C618   H767    1.110   .     S
C618   H769    1.110   .     S
C618   H768    1.109   .     S
C619   C620    1.529   .     S
C619   H776    1.109   .     S
C619   H777    1.109   .     S
C619   C678    1.532   .     S
C620   H775    1.110   .     S
C620   H774    1.110   .     S
C620   H773    1.109   .     S
C621   C622    1.529   .     S
C621   C679    1.532   .     S
C621   H782    1.109   .     S
C621   H783    1.109   .     S
C622   H779    1.110   .     S
C622   H780    1.110   .     S
C622   H778    1.109   .     S
C623   H788    1.109   .     S
C623   H787    1.109   .     S
C623   C680    1.532   .     S
C623   C625    1.529   .     S
C624   O849    1.276   .     A
C624   C666    1.423   .     S
C624   O873    1.276   .     A
C625   H785    1.109   .     S
C625   H784    1.110   .     S
C625   H786    1.110   .     S
C626   H794    1.109   .     S
C626   C627    1.529   .     S
C626   H793    1.109   .     S
C626   C681    1.532   .     S
C627   H790    1.109   .     S
C627   H791    1.110   .     S
C627   H789    1.110   .     S
C628   C683    1.532   .     S
C628   H799    1.109   .     S
C628   C629    1.529   .     S
C628   H798    1.109   .     S
C629   H795    1.109   .     S
C629   H797    1.110   .     S
C629   H796    1.110   .     S
C630   H805    1.109   .     S
C630   C631    1.529   .     S
C630   H804    1.109   .     S
C630   C684    1.532   .     S
C631   H800    1.109   .     S
C631   H802    1.110   .     S
C631   H801    1.110   .     S
C632   H809    1.109   .     S
C632   H810    1.109   .     S
C632   C633    1.529   .     S
C632   C685    1.532   .     S
C633   H808    1.110   .     S
C633   H807    1.109   .     S
C633   H806    1.110   .     S
C634   H815    1.109   .     S
C634   H816    1.109   .     S
C634   C636    1.529   .     S
C634   C686    1.532   .     S
C635   O850    1.277   .     A
C635   C665    1.421   .     S
C635   O879    1.277   .     A
C636   H811    1.110   .     S
C636   H813    1.110   .     S
C636   H812    1.109   .     S
C637   C638    1.529   .     S
C637   H821    1.109   .     S
C637   H820    1.109   .     S
C637   C687    1.532   .     S
C638   H818    1.110   .     S
C638   H819    1.110   .     S
C638   H817    1.109   .     S
C639   H826    1.109   .     S
C639   C640    1.529   .     S
C639   H827    1.109   .     S
C639   C688    1.532   .     S
C640   H823    1.110   .     S
C640   H822    1.109   .     S
C640   H824    1.110   .     S
C641   H831    1.109   .     S
C641   C689    1.532   .     S
C641   C642    1.529   .     S
C641   H832    1.109   .     S
C642   H828    1.110   .     S
C642   H829    1.109   .     S
C642   H830    1.110   .     S
C643   O851    1.277   .     A
C643   C664    1.421   .     S
C643   O880    1.277   .     A
C644   O876    1.276   .     A
C644   C672    1.423   .     S
C644   O852    1.276   .     A
C645   C670    1.423   .     S
C645   O878    1.276   .     A
C645   O853    1.276   .     A
C646   O865    1.276   .     A
C646   C661    1.423   .     S
C646   O854    1.276   .     A
C647   O867    1.276   .     A
C647   O856    1.276   .     A
C647   C659    1.423   .     S
C648   O863    1.277   .     A
C648   O857    1.276   .     A
C648   C658    1.421   .     S
C649   O881    1.268   .     A
C649   C694    1.460   .     S
C650   C657    1.421   .     S
C650   O858    1.277   .     A
C650   O864    1.277   .     A
C651   O870    1.276   .     A
C651   O859    1.276   .     A
C651   C656    1.423   .     S
C652   O860    1.276   .     A
C652   C655    1.423   .     S
C652   O871    1.276   .     A
C653   C663    1.421   .     S
C653   O861    1.277   .     A
C653   O868    1.277   .     A
C654   O869    1.277   .     A
C654   C662    1.421   .     S
C654   O862    1.277   .     A
C655   C672    1.199   .     T
C656   C670    1.199   .     T
C657   C669    1.198   .     T
C658   C668    1.198   .     T
C659   C667    1.199   .     T
C660   C690    1.460   .     S
C660   O1135   1.268   1_455 A
C660   O882    1.268   .     S
C661   C666    1.199   .     T
C662   C665    1.198   .     T
C663   C664    1.198   .     T
C669   C726    1.421   .     S
C671   C691    1.460   .     S
C671   O836    1.268   .     A
C671   O1183   1.268   1_455 S
C673   C703    1.416   .     A
C673   C990    1.415   .     A
C674   C705    1.416   .     A
C674   C691    1.415   .     A
C675   C706    1.416   .     A
C675   C692    1.415   .     S
C676   C707    1.416   .     A
C676   C94     1.415   1_565 S
C677   C699    1.416   .     A
C677   C690    1.415   .     S
C678   C700    1.416   .     A
C678   C991    1.415   .     S
C679   C92     1.415   1_565 A
C679   C701    1.416   .     A
C680   C702    1.416   .     A
C680   C694    1.415   .     A
C681   C712    1.416   .     A
C681   C695    1.415   .     S
C682   O841    1.268   .     A
C682   C697    1.460   .     S
C682   O837    1.268   .     S
C683   C713    1.416   .     A
C683   C96     1.415   1_565 S
C684   C714    1.416   .     A
C684   C997    1.415   .     S
C685   C716    1.416   .     A
C685   C698    1.415   .     A
C686   C708    1.416   .     A
C686   C95     1.415   1_565 A
C687   C709    1.416   .     A
C687   C696    1.415   .     A
C688   C697    1.415   .     A
C688   C710    1.416   .     A
C689   C711    1.416   .     A
C689   C998    1.415   .     S
C690   C973    1.415   1_455 A
C691   C978    1.415   1_455 S
C693   O842    1.268   .     A
C693   O838    1.268   .     A
C693   C698    1.460   .     S
C695   C704    1.460   .     S
C696   C715    1.460   .     S
C697   C984    1.415   1_455 S
C698   C989    1.415   1_455 S
C699   C725    1.405   .     A
C699   C717    1.419   .     S
C700   C727    1.405   .     A
C700   C1018   1.419   .     S
C701   C728    1.405   .     A
C701   C119    1.419   1_565 S
C702   C720    1.419   .     A
C702   C729    1.405   .     A
C703   C1017   1.419   .     A
C703   C730    1.405   .     A
C704   O839    1.268   .     S
C704   O843    1.268   .     S
C705   C731    1.405   .     A
C705   C718    1.419   .     A
C706   C732    1.405   .     A
C706   C719    1.419   .     A
C707   C733    1.405   .     A
C707   C120    1.419   1_565 S
C708   C734    1.405   .     A
C708   C121    1.419   1_565 S
C709   C735    1.405   .     A
C709   C722    1.419   .     A
C710   C723    1.419   .     A
C710   C736    1.405   .     A
C711   C1024   1.419   .     S
C712   C721    1.419   .     A
C713   C122    1.419   1_565 S
C714   C1023   1.419   .     S
C715   O845    1.268   .     A
C715   O840    1.268   .     A
C716   C724    1.419   .     A
C717   C1003   1.419   1_455 A
C717   C718    1.426   .     S
C718   C1000   1.419   1_455 S
C719   C720    1.426   .     A
C721   C722    1.426   1_556 S
C722   C721    1.426   1_554 S
C723   C1014   1.419   1_455 S
C723   C724    1.426   1_556 S
C724   C1011   1.419   1_455 S
C724   C723    1.426   1_554 S
C725   C731    1.381   .     A
C725   H737    1.079   .     S
C726   O846    1.277   .     A
C726   O874    1.277   .     A
C727   H748    1.079   .     S
C727   C730    1.381   .     A
C728   H759    1.079   .     S
C728   C733    1.381   .     A
C729   H770    1.079   .     S
C729   C732    1.381   .     A
C730   H781    1.079   .     S
C731   H792    1.079   .     S
C732   H803    1.079   .     S
C733   H814    1.079   .     S
C734   H825    1.079   .     S
C734   C605    1.381   1_556 S
C735   H738    1.079   .     S
C735   C604    1.381   1_554 S
C736   H739    1.079   .     S
C736   C607    1.381   1_556 S
O833   Zn888   1.936   .     S
O833   Zn896   1.936   .     S
O833   Zn885   1.936   .     S
O834   Zn887   1.952   .     S
O834   C49     1.268   1_565 S
O835   Zn890   1.952   .     S
O835   C960    1.268   .     A
O836   Zn889   1.952   .     S
O837   Zn899   1.952   .     S
O838   Zn898   1.952   .     S
O839   Zn893   1.952   .     S
O840   Zn885   1.952   .     S
O841   Zn895   1.952   .     S
O842   Zn894   1.952   .     S
O843   Zn897   1.952   .     S
O844   Zn891   1.936   .     S
O844   Zn893   1.936   .     S
O844   Zn897   1.936   .     S
O845   Zn896   1.952   .     S
O846   Zn888   1.913   .     S
O847   Zn887   1.913   .     S
O848   Zn890   1.916   .     S
O849   Zn889   1.916   .     S
O850   Zn892   1.913   .     S
O851   Zn891   1.913   .     S
O852   Zn886   1.916   .     S
O853   Zn900   1.916   .     S
O854   Zn887   1.916   .     S
O855   Zn886   1.936   .     S
O855   Zn894   1.936   .     S
O855   Zn1190  1.936   1_455 S
O855   Zn898   1.936   .     S
O856   Zn888   1.916   .     S
O857   Zn900   1.913   .     S
O858   Zn886   1.913   .     S
O859   Zn891   1.916   .     S
O860   Zn892   1.916   .     S
O861   Zn889   1.913   .     S
O862   Zn890   1.913   .     S
O863   Zn1195  1.913   .     S
O864   Zn894   1.913   .     S
O865   Zn297   1.916   1_565 S
O866   Zn899   1.936   .     S
O866   Zn889   1.936   .     S
O866   Zn895   1.936   .     S
O866   Zn1200  1.936   1_455 S
O867   Zn896   1.916   .     S
O868   Zn899   1.913   .     S
O869   Zn1198  1.913   .     S
O870   Zn893   1.916   .     S
O871   Zn285   1.916   1_565 S
O872   Zn1194  1.916   .     S
O873   Zn895   1.916   .     S
O874   Zn885   1.913   .     S
O875   Zn293   1.913   1_565 S
O876   Zn898   1.916   .     S
O877   Zn892   1.952   .     S
O877   C1      1.268   1_565 A
O878   Zn1199  1.916   .     S
O879   Zn296   1.913   1_565 S
O880   Zn897   1.913   .     S
O881   Zn891   1.952   .     S
O882   Zn886   1.952   .     S
O883   Zn900   1.952   .     S
O883   C971    1.268   .     S
O884   Zn888   1.952   .     S
Zn887  O244    1.936   1_565 S
Zn890  O1155   1.936   .     S
Zn892  O233    1.936   1_565 S
Zn894  O1172   1.916   1_455 S
Zn895  O1163   1.913   1_455 S
Zn898  O1169   1.913   1_455 S
Zn899  O1178   1.916   1_455 S
Zn900  O1166   1.936   .     S
C901   C992    1.460   .     S
C901   O1184   1.268   .     S
C902   O1147   1.277   .     A
C902   C968    1.421   .     S
C902   O1175   1.277   .     A
C903   C1011   1.405   .     A
C903   H1040   1.079   .     S
C903   C906    1.381   1_554 S
C904   H1041   1.079   .     S
C904   C1012   1.405   .     A
C904   C1035   1.381   1_556 S
C905   C1013   1.405   .     A
C905   H1042   1.079   .     S
C905   C1034   1.381   1_554 S
C906   C1014   1.405   .     A
C906   H1043   1.079   .     S
C906   C903    1.381   1_556 S
C907   C1016   1.405   .     A
C907   H1044   1.079   .     S
C907   C1036   1.381   1_554 S
C908   H1050   1.109   .     S
C908   H1049   1.109   .     S
C908   C973    1.532   .     S
C908   C909    1.529   .     S
C909   H1046   1.109   .     S
C909   H1045   1.110   .     S
C909   H1047   1.110   .     S
C910   H1054   1.109   .     S
C910   H1055   1.109   .     S
C910   C911    1.529   .     S
C910   C974    1.532   .     S
C911   H1051   1.109   .     S
C911   H1053   1.110   .     S
C911   H1052   1.110   .     S
C912   H1061   1.109   .     S
C912   C975    1.532   .     S
C912   C914    1.529   .     S
C912   H1060   1.109   .     S
C913   O1172   1.276   .     A
C913   O1148   1.276   .     A
C913   C967    1.423   .     S
C914   H1058   1.110   .     S
C914   H1056   1.109   .     S
C914   H1057   1.110   .     S
C915   H1066   1.109   .     S
C915   H1065   1.109   .     S
C915   C976    1.532   .     S
C915   C916    1.529   .     S
C916   H1062   1.110   .     S
C916   H1064   1.110   .     S
C916   H1063   1.109   .     S
C917   C918    1.529   .     S
C917   H1072   1.109   .     S
C917   C977    1.532   .     S
C917   H1071   1.109   .     S
C918   H1067   1.110   .     S
C918   H1069   1.110   .     S
C918   H1068   1.109   .     S
C919   C920    1.529   .     S
C919   H1076   1.109   .     S
C919   H1077   1.109   .     S
C919   C978    1.532   .     S
C920   H1075   1.110   .     S
C920   H1074   1.110   .     S
C920   H1073   1.109   .     S
C921   C922    1.529   .     S
C921   C979    1.532   .     S
C921   H1082   1.109   .     S
C921   H1083   1.109   .     S
C922   H1079   1.110   .     S
C922   H1080   1.110   .     S
C922   H1078   1.109   .     S
C923   H1088   1.109   .     S
C923   H1087   1.109   .     S
C923   C980    1.532   .     S
C923   C925    1.529   .     S
C924   O1149   1.276   .     A
C924   C966    1.423   .     S
C924   O1173   1.276   .     A
C925   H1085   1.109   .     S
C925   H1084   1.110   .     S
C925   H1086   1.110   .     S
C926   H1094   1.109   .     S
C926   C927    1.529   .     S
C926   H1093   1.109   .     S
C926   C981    1.532   .     S
C927   H1090   1.109   .     S
C927   H1091   1.110   .     S
C927   H1089   1.110   .     S
C928   C983    1.532   .     S
C928   H1099   1.109   .     S
C928   C929    1.529   .     S
C928   H1098   1.109   .     S
C929   H1095   1.109   .     S
C929   H1097   1.110   .     S
C929   H1096   1.110   .     S
C930   H1105   1.109   .     S
C930   C931    1.529   .     S
C930   H1104   1.109   .     S
C930   C984    1.532   .     S
C931   H1100   1.109   .     S
C931   H1102   1.110   .     S
C931   H1101   1.110   .     S
C932   H1109   1.109   .     S
C932   H1110   1.109   .     S
C932   C933    1.529   .     S
C932   C985    1.532   .     S
C933   H1108   1.110   .     S
C933   H1107   1.109   .     S
C933   H1106   1.110   .     S
C934   H1115   1.109   .     S
C934   H1116   1.109   .     S
C934   C936    1.529   .     S
C934   C986    1.532   .     S
C935   O1150   1.277   .     A
C935   C965    1.421   .     S
C935   O1179   1.277   .     A
C936   H1111   1.110   .     S
C936   H1113   1.110   .     S
C936   H1112   1.109   .     S
C937   C938    1.529   .     S
C937   H1121   1.109   .     S
C937   H1120   1.109   .     S
C937   C987    1.532   .     S
C938   H1118   1.110   .     S
C938   H1119   1.110   .     S
C938   H1117   1.109   .     S
C939   H1126   1.109   .     S
C939   C940    1.529   .     S
C939   H1127   1.109   .     S
C939   C988    1.532   .     S
C940   H1123   1.110   .     S
C940   H1122   1.109   .     S
C940   H1124   1.110   .     S
C941   H1131   1.109   .     S
C941   C989    1.532   .     S
C941   C942    1.529   .     S
C941   H1132   1.109   .     S
C942   H1128   1.110   .     S
C942   H1129   1.109   .     S
C942   H1130   1.110   .     S
C943   O1151   1.277   .     A
C943   C964    1.421   .     S
C943   O1180   1.277   .     A
C944   O1176   1.276   .     A
C944   C972    1.423   .     S
C944   O1152   1.276   .     A
C945   C970    1.423   .     S
C945   O1178   1.276   .     A
C945   O1153   1.276   .     A
C946   O1165   1.276   .     A
C946   C961    1.423   .     S
C946   O1154   1.276   .     A
C947   O1167   1.276   .     A
C947   O1156   1.276   .     A
C947   C959    1.423   .     S
C948   O1163   1.277   .     A
C948   O1157   1.276   .     A
C948   C958    1.421   .     S
C949   O1181   1.268   .     A
C949   C994    1.460   .     S
C950   C957    1.421   .     S
C950   O1158   1.277   .     A
C950   O1164   1.277   .     A
C951   O1170   1.276   .     A
C951   O1159   1.276   .     A
C951   C956    1.423   .     S
C952   O1160   1.276   .     A
C952   C955    1.423   .     S
C952   O1171   1.276   .     A
C953   C963    1.421   .     S
C953   O1161   1.277   .     A
C953   O1168   1.277   .     A
C954   O1169   1.277   .     A
C954   C962    1.421   .     S
C954   O1162   1.277   .     A
C955   C972    1.199   .     T
C956   C970    1.199   .     T
C957   C969    1.198   .     T
C958   C968    1.198   .     T
C959   C967    1.199   .     T
C960   C990    1.460   .     S
C960   O1182   1.268   .     S
C961   C966    1.199   .     T
C962   C965    1.198   .     T
C963   C964    1.198   .     T
C969   C1026   1.421   .     S
C971   C991    1.460   .     S
C971   O1136   1.268   .     A
C973   C1003   1.416   .     A
C973   C690    1.415   1_655 A
C974   C1005   1.416   .     A
C974   C991    1.415   .     A
C975   C1006   1.416   .     A
C975   C992    1.415   .     S
C976   C1007   1.416   .     A
C976   C394    1.415   1_565 S
C977   C999    1.416   .     A
C977   C990    1.415   .     S
C978   C1000   1.416   .     A
C978   C691    1.415   1_655 S
C979   C392    1.415   1_565 A
C979   C1001   1.416   .     A
C980   C1002   1.416   .     A
C980   C994    1.415   .     A
C981   C1012   1.416   .     A
C981   C995    1.415   .     S
C982   O1141   1.268   .     A
C982   C997    1.460   .     S
C982   O1137   1.268   .     S
C983   C1013   1.416   .     A
C983   C396    1.415   1_565 S
C984   C1014   1.416   .     A
C984   C697    1.415   1_655 S
C985   C1016   1.416   .     A
C985   C998    1.415   .     A
C986   C1008   1.416   .     A
C986   C395    1.415   1_565 A
C987   C1009   1.416   .     A
C987   C996    1.415   .     A
C988   C997    1.415   .     A
C988   C1010   1.416   .     A
C989   C1011   1.416   .     A
C989   C698    1.415   1_655 S
C993   O1142   1.268   .     A
C993   O1138   1.268   .     A
C993   C998    1.460   .     S
C995   C1004   1.460   .     S
C996   C1015   1.460   .     S
C999   C1025   1.405   .     A
C999   C1017   1.419   .     S
C1000  C1027   1.405   .     A
C1000  C718    1.419   1_655 S
C1001  C1028   1.405   .     A
C1001  C419    1.419   1_565 S
C1002  C1020   1.419   .     A
C1002  C1029   1.405   .     A
C1003  C717    1.419   1_655 A
C1003  C1030   1.405   .     A
C1004  O1139   1.268   .     S
C1004  O1143   1.268   .     S
C1005  C1031   1.405   .     A
C1005  C1018   1.419   .     A
C1006  C1032   1.405   .     A
C1006  C1019   1.419   .     A
C1007  C1033   1.405   .     A
C1007  C420    1.419   1_565 S
C1008  C1034   1.405   .     A
C1008  C421    1.419   1_565 S
C1009  C1035   1.405   .     A
C1009  C1022   1.419   .     A
C1010  C1023   1.419   .     A
C1010  C1036   1.405   .     A
C1011  C724    1.419   1_655 S
C1012  C1021   1.419   .     A
C1013  C422    1.419   1_565 S
C1014  C723    1.419   1_655 S
C1015  O1145   1.268   .     A
C1015  O1140   1.268   .     A
C1016  C1024   1.419   .     A
C1017  C1018   1.426   .     S
C1019  C1020   1.426   .     A
C1021  C1022   1.426   1_556 S
C1022  C1021   1.426   1_554 S
C1023  C1024   1.426   1_556 S
C1024  C1023   1.426   1_554 S
C1025  C1031   1.381   .     A
C1025  H1037   1.079   .     S
C1026  O1146   1.277   .     A
C1026  O1174   1.277   .     A
C1027  H1048   1.079   .     S
C1027  C1030   1.381   .     A
C1028  H1059   1.079   .     S
C1028  C1033   1.381   .     A
C1029  H1070   1.079   .     S
C1029  C1032   1.381   .     A
C1030  H1081   1.079   .     S
C1031  H1092   1.079   .     S
C1032  H1103   1.079   .     S
C1033  H1114   1.079   .     S
C1034  H1125   1.079   .     S
C1034  C905    1.381   1_556 S
C1035  H1038   1.079   .     S
C1035  C904    1.381   1_554 S
C1036  H1039   1.079   .     S
C1036  C907    1.381   1_556 S
O1133  Zn1188  1.936   .     S
O1133  Zn1196  1.936   .     S
O1133  Zn1185  1.936   .     S
O1134  Zn1187  1.952   .     S
O1134  C349    1.268   1_565 S
O1135  Zn1190  1.952   .     S
O1135  C660    1.268   1_655 A
O1136  Zn1189  1.952   .     S
O1137  Zn1199  1.952   .     S
O1138  Zn1198  1.952   .     S
O1139  Zn1193  1.952   .     S
O1140  Zn1185  1.952   .     S
O1141  Zn1195  1.952   .     S
O1142  Zn1194  1.952   .     S
O1143  Zn1197  1.952   .     S
O1144  Zn1191  1.936   .     S
O1144  Zn1193  1.936   .     S
O1144  Zn1197  1.936   .     S
O1145  Zn1196  1.952   .     S
O1146  Zn1188  1.913   .     S
O1147  Zn1187  1.913   .     S
O1148  Zn1190  1.916   .     S
O1149  Zn1189  1.916   .     S
O1150  Zn1192  1.913   .     S
O1151  Zn1191  1.913   .     S
O1152  Zn1186  1.916   .     S
O1153  Zn1200  1.916   .     S
O1154  Zn1187  1.916   .     S
O1155  Zn1186  1.936   .     S
O1155  Zn1194  1.936   .     S
O1155  Zn1198  1.936   .     S
O1156  Zn1188  1.916   .     S
O1157  Zn1200  1.913   .     S
O1158  Zn1186  1.913   .     S
O1159  Zn1191  1.916   .     S
O1160  Zn1192  1.916   .     S
O1161  Zn1189  1.913   .     S
O1162  Zn1190  1.913   .     S
O1163  Zn895   1.913   1_655 S
O1164  Zn1194  1.913   .     S
O1165  Zn597   1.916   1_565 S
O1166  Zn1199  1.936   .     S
O1166  Zn1189  1.936   .     S
O1166  Zn1195  1.936   .     S
O1167  Zn1196  1.916   .     S
O1168  Zn1199  1.913   .     S
O1169  Zn898   1.913   1_655 S
O1170  Zn1193  1.916   .     S
O1171  Zn585   1.916   1_565 S
O1172  Zn894   1.916   1_655 S
O1173  Zn1195  1.916   .     S
O1174  Zn1185  1.913   .     S
O1175  Zn593   1.913   1_565 S
O1176  Zn1198  1.916   .     S
O1177  Zn1192  1.952   .     S
O1177  C301    1.268   1_565 A
O1178  Zn899   1.916   1_655 S
O1179  Zn596   1.913   1_565 S
O1180  Zn1197  1.913   .     S
O1181  Zn1191  1.952   .     S
O1182  Zn1186  1.952   .     S
O1183  Zn1200  1.952   .     S
O1183  C671    1.268   1_655 S
O1184  Zn1188  1.952   .     S
Zn1187 O544    1.936   1_565 S
Zn1190 O855    1.936   1_655 S
Zn1192 O533    1.936   1_565 S
Zn1200 O866    1.936   1_655 S
