data_str_m1_o10_o18_pcu_sym.184
_audit_creation_date              2020-01-03
_audit_creation_method            'Materials Studio'
_symmetry_space_group_name_H-M    'P1'
_symmetry_Int_Tables_number       1
_symmetry_cell_setting            triclinic
loop_
_symmetry_equiv_pos_as_xyz
  x,y,z
_cell_length_a                    32.5349
_cell_length_b                    32.6041
_cell_length_c                    35.6894
_cell_angle_alpha                 98.2515
_cell_angle_beta                  72.4998
_cell_angle_gamma                 98.4748
loop_
_atom_site_label
_atom_site_type_symbol
_atom_site_fract_x
_atom_site_fract_y
_atom_site_fract_z
_atom_site_U_iso_or_equiv
_atom_site_adp_type
_atom_site_occupancy
Zn1    Zn    0.19244   0.14090   0.28278   0.00000  Uiso   1.00
Zn2    Zn    0.13459   0.12378   0.22258   0.00000  Uiso   1.00
Zn3    Zn    0.21166   0.19664   0.21188   0.00000  Uiso   1.00
Zn4    Zn    0.12798   0.20535   0.28277   0.00000  Uiso   1.00
O5     O     0.16667   0.16667   0.25000   0.00000  Uiso   1.00
O6     O     0.06990   0.18960   0.27820   0.00000  Uiso   1.00
O7     O     0.25440   0.15277   0.26768   0.00000  Uiso   1.00
O8     O     0.13800   0.06903   0.23607   0.00000  Uiso   1.00
O9     O     0.20437   0.25527   0.21806   0.00000  Uiso   1.00
O10    O     0.15693   0.12393   0.16625   0.00000  Uiso   1.00
O11    O     0.12687   0.20646   0.33749   0.00000  Uiso   1.00
O12    O     0.21088   0.17493   0.15877   0.00000  Uiso   1.00
O13    O     0.17198   0.16135   0.33749   0.00000  Uiso   1.00
O14    O     0.17849   0.08101   0.27821   0.00000  Uiso   1.00
O15    O     0.14581   0.26136   0.26767   0.00000  Uiso   1.00
O16    O     0.07452   0.13251   0.23607   0.00000  Uiso   1.00
O17    O     0.26785   0.19179   0.21806   0.00000  Uiso   1.00
C18    C     0.05248   0.16013   0.25876   0.00000  Uiso   1.00
C19    C     0.28112   0.17360   0.24111   0.00000  Uiso   1.00
C20    C     0.15625   0.05627   0.25860   0.00000  Uiso   1.00
C21    C     0.17664   0.27774   0.24147   0.00000  Uiso   1.00
C22    C     0.18863   0.14530   0.14394   0.00000  Uiso   1.00
C23    C     0.14473   0.18736   0.35636   0.00000  Uiso   1.00
C24    C     0.13228   0.19334   0.39999   0.00000  Uiso   1.00
C25    C     0.20019   0.13673   0.10102   0.00000  Uiso   1.00
C26    C     0.08323   0.21441   0.46374   0.00000  Uiso   1.00
C27    C     0.09471   0.21171   0.42249   0.00000  Uiso   1.00
C28    C     0.15748   0.17815   0.41934   0.00000  Uiso   1.00
C29    C     0.14676   0.18119   0.46086   0.00000  Uiso   1.00
C30    C     0.10754   0.19755   0.48324   0.00000  Uiso   1.00
C31    C     0.17393   0.16795   0.48046   0.00000  Uiso   1.00
C32    C     0.15896   0.16586   0.02198   0.00000  Uiso   1.00
C33    C     0.11914   0.18128   0.04319   0.00000  Uiso   1.00
C34    C     0.09396   0.19751   0.02461   0.00000  Uiso   1.00
C35    C     0.21653   0.15871   0.46000   0.00000  Uiso   1.00
C36    C     0.24297   0.14616   0.47914   0.00000  Uiso   1.00
C37    C     0.22803   0.14141   0.01939   0.00000  Uiso   1.00
C38    C     0.18537   0.15038   0.04120   0.00000  Uiso   1.00
C39    C     0.25608   0.12949   0.03840   0.00000  Uiso   1.00
C40    C     0.24245   0.12796   0.07937   0.00000  Uiso   1.00
C41    C     0.17152   0.14545   0.08188   0.00000  Uiso   1.00
H42    H     0.13939   0.15063   0.10025   0.00000  Uiso   1.00
H43    H     0.27567   0.14056   0.46198   0.00000  Uiso   1.00
H44    H     0.05498   0.22985   0.48009   0.00000  Uiso   1.00
H45    H     0.18477   0.16262   0.40112   0.00000  Uiso   1.00
H46    H     0.10680   0.18230   0.07481   0.00000  Uiso   1.00
H47    H     0.23153   0.16297   0.42929   0.00000  Uiso   1.00
C48    C     0.32722   0.17611   0.23727   0.00000  Uiso   1.00
H49    H     0.01719   0.19248   0.21393   0.00000  Uiso   1.00
C50    C     0.00703   0.15818   0.26240   0.00000  Uiso   1.00
H51    H     0.31767   0.14208   0.28623   0.00000  Uiso   1.00
C52    C     0.18040   0.32245   0.23966   0.00000  Uiso   1.00
H53    H     0.20913   0.00357   0.21928   0.00000  Uiso   1.00
C54    C     0.14985   0.01233   0.26323   0.00000  Uiso   1.00
N55    N     0.05413   0.21302   0.04853   0.00000  Uiso   1.00
O56    O     0.05304   0.23586   0.08179   0.00000  Uiso   1.00
O57    O     0.01775   0.19843   0.04091   0.00000  Uiso   1.00
O58    O     0.29909   0.12561   0.01808   0.00000  Uiso   1.00
C59    C     0.30342   0.08375   0.00218   0.00000  Uiso   1.00
H60    H     0.27957   0.07147   0.48533   0.00000  Uiso   1.00
H61    H     0.29917   0.06374   0.02608   0.00000  Uiso   1.00
C62    C     0.01546   0.08125   0.47400   0.00000  Uiso   1.00
H63    H     0.04014   0.09275   0.48998   0.00000  Uiso   1.00
H64    H     0.01964   0.04842   0.46144   0.00000  Uiso   1.00
H65    H     0.02049   0.10065   0.44947   0.00000  Uiso   1.00
O66    O     0.11091   0.32709   0.28668   0.00000  Uiso   1.00
C67    C     0.09243   0.02048   0.32056   0.00000  Uiso   1.00
H68    H     0.07803   0.04550   0.31227   0.00000  Uiso   1.00
H69    H     0.11697   0.03462   0.33612   0.00000  Uiso   1.00
C70    C     0.05656   0.32863   0.34908   0.00000  Uiso   1.00
H71    H     0.07009   0.30354   0.35812   0.00000  Uiso   1.00
H72    H     0.04160   0.01596   0.37581   0.00000  Uiso   1.00
H73    H     0.03117   0.31433   0.33473   0.00000  Uiso   1.00
O74    O     0.27256   0.12237   0.09809   0.00000  Uiso   1.00
C75    C     0.26232   0.08297   0.11280   0.00000  Uiso   1.00
H76    H     0.25295   0.05787   0.09120   0.00000  Uiso   1.00
H77    H     0.23544   0.08397   0.14073   0.00000  Uiso   1.00
C78    C     0.30185   0.07160   0.12171   0.00000  Uiso   1.00
H79    H     0.31141   0.09547   0.14399   0.00000  Uiso   1.00
H80    H     0.29422   0.04081   0.13356   0.00000  Uiso   1.00
H81    H     0.32934   0.06990   0.09428   0.00000  Uiso   1.00
O82    O     0.06960   0.22812   0.40443   0.00000  Uiso   1.00
C83    C     0.03227   0.19978   0.40453   0.00000  Uiso   1.00
H84    H     0.01193   0.19538   0.43525   0.00000  Uiso   1.00
H85    H     0.04137   0.16897   0.38857   0.00000  Uiso   1.00
C86    C     0.00512   0.21696   0.38362   0.00000  Uiso   1.00
H87    H     0.02442   0.22179   0.35282   0.00000  Uiso   1.00
H88    H     0.30933   0.19463   0.38297   0.00000  Uiso   1.00
H89    H     0.32788   0.24720   0.39947   0.00000  Uiso   1.00
Zn90   Zn    0.52577   0.14090   0.28278   0.00000  Uiso   1.00
Zn91   Zn    0.46792   0.12378   0.22258   0.00000  Uiso   1.00
Zn92   Zn    0.54500   0.19664   0.21188   0.00000  Uiso   1.00
Zn93   Zn    0.46131   0.20535   0.28277   0.00000  Uiso   1.00
O94    O     0.50000   0.16667   0.25000   0.00000  Uiso   1.00
O95    O     0.40323   0.18960   0.27820   0.00000  Uiso   1.00
O96    O     0.58773   0.15277   0.26768   0.00000  Uiso   1.00
O97    O     0.47133   0.06903   0.23607   0.00000  Uiso   1.00
O98    O     0.53771   0.25527   0.21806   0.00000  Uiso   1.00
O99    O     0.49027   0.12393   0.16625   0.00000  Uiso   1.00
O100   O     0.46020   0.20646   0.33749   0.00000  Uiso   1.00
O101   O     0.54421   0.17493   0.15877   0.00000  Uiso   1.00
O102   O     0.50532   0.16135   0.33749   0.00000  Uiso   1.00
O103   O     0.51182   0.08101   0.27821   0.00000  Uiso   1.00
O104   O     0.47914   0.26136   0.26767   0.00000  Uiso   1.00
O105   O     0.40785   0.13251   0.23607   0.00000  Uiso   1.00
O106   O     0.60119   0.19179   0.21806   0.00000  Uiso   1.00
C107   C     0.38581   0.16013   0.25876   0.00000  Uiso   1.00
C108   C     0.61445   0.17360   0.24111   0.00000  Uiso   1.00
C109   C     0.48958   0.05627   0.25860   0.00000  Uiso   1.00
C110   C     0.50997   0.27774   0.24147   0.00000  Uiso   1.00
C111   C     0.52196   0.14530   0.14394   0.00000  Uiso   1.00
C112   C     0.47806   0.18736   0.35636   0.00000  Uiso   1.00
C113   C     0.46561   0.19334   0.39999   0.00000  Uiso   1.00
C114   C     0.53352   0.13673   0.10102   0.00000  Uiso   1.00
C115   C     0.41656   0.21441   0.46374   0.00000  Uiso   1.00
C116   C     0.42805   0.21171   0.42249   0.00000  Uiso   1.00
C117   C     0.49081   0.17815   0.41934   0.00000  Uiso   1.00
C118   C     0.48009   0.18119   0.46086   0.00000  Uiso   1.00
C119   C     0.44088   0.19755   0.48324   0.00000  Uiso   1.00
C120   C     0.50726   0.16795   0.48046   0.00000  Uiso   1.00
C121   C     0.49229   0.16586   0.02198   0.00000  Uiso   1.00
C122   C     0.45247   0.18128   0.04319   0.00000  Uiso   1.00
C123   C     0.42729   0.19751   0.02461   0.00000  Uiso   1.00
C124   C     0.54986   0.15871   0.46000   0.00000  Uiso   1.00
C125   C     0.57630   0.14616   0.47914   0.00000  Uiso   1.00
C126   C     0.56137   0.14141   0.01939   0.00000  Uiso   1.00
C127   C     0.51870   0.15038   0.04120   0.00000  Uiso   1.00
C128   C     0.58942   0.12949   0.03840   0.00000  Uiso   1.00
C129   C     0.57579   0.12796   0.07937   0.00000  Uiso   1.00
C130   C     0.50486   0.14545   0.08188   0.00000  Uiso   1.00
H131   H     0.47272   0.15063   0.10025   0.00000  Uiso   1.00
H132   H     0.60900   0.14056   0.46198   0.00000  Uiso   1.00
H133   H     0.38831   0.22985   0.48009   0.00000  Uiso   1.00
H134   H     0.51810   0.16262   0.40112   0.00000  Uiso   1.00
H135   H     0.44014   0.18230   0.07481   0.00000  Uiso   1.00
H136   H     0.56486   0.16297   0.42929   0.00000  Uiso   1.00
C137   C     0.66055   0.17611   0.23727   0.00000  Uiso   1.00
H138   H     0.35053   0.19248   0.21393   0.00000  Uiso   1.00
C139   C     0.34036   0.15818   0.26240   0.00000  Uiso   1.00
H140   H     0.65100   0.14208   0.28623   0.00000  Uiso   1.00
C141   C     0.51373   0.32245   0.23966   0.00000  Uiso   1.00
H142   H     0.54247   0.00357   0.21928   0.00000  Uiso   1.00
C143   C     0.48318   0.01233   0.26323   0.00000  Uiso   1.00
N144   N     0.38746   0.21302   0.04853   0.00000  Uiso   1.00
O145   O     0.38637   0.23586   0.08179   0.00000  Uiso   1.00
O146   O     0.35108   0.19843   0.04091   0.00000  Uiso   1.00
O147   O     0.63242   0.12561   0.01808   0.00000  Uiso   1.00
C148   C     0.63676   0.08375   0.00218   0.00000  Uiso   1.00
H149   H     0.61290   0.07147   0.48533   0.00000  Uiso   1.00
H150   H     0.63250   0.06374   0.02608   0.00000  Uiso   1.00
C151   C     0.34880   0.08125   0.47400   0.00000  Uiso   1.00
H152   H     0.37347   0.09275   0.48998   0.00000  Uiso   1.00
H153   H     0.35298   0.04842   0.46144   0.00000  Uiso   1.00
H154   H     0.35382   0.10065   0.44947   0.00000  Uiso   1.00
O155   O     0.44425   0.32709   0.28668   0.00000  Uiso   1.00
C156   C     0.42577   0.02048   0.32056   0.00000  Uiso   1.00
H157   H     0.41136   0.04550   0.31227   0.00000  Uiso   1.00
H158   H     0.45030   0.03462   0.33612   0.00000  Uiso   1.00
C159   C     0.38989   0.32863   0.34908   0.00000  Uiso   1.00
H160   H     0.40342   0.30354   0.35812   0.00000  Uiso   1.00
H161   H     0.37494   0.01596   0.37581   0.00000  Uiso   1.00
H162   H     0.36451   0.31433   0.33473   0.00000  Uiso   1.00
O163   O     0.60589   0.12237   0.09809   0.00000  Uiso   1.00
C164   C     0.59565   0.08297   0.11280   0.00000  Uiso   1.00
H165   H     0.58628   0.05787   0.09120   0.00000  Uiso   1.00
H166   H     0.56878   0.08397   0.14073   0.00000  Uiso   1.00
C167   C     0.63518   0.07160   0.12171   0.00000  Uiso   1.00
H168   H     0.64474   0.09547   0.14399   0.00000  Uiso   1.00
H169   H     0.62755   0.04081   0.13356   0.00000  Uiso   1.00
H170   H     0.66267   0.06990   0.09428   0.00000  Uiso   1.00
O171   O     0.40294   0.22812   0.40443   0.00000  Uiso   1.00
C172   C     0.36560   0.19978   0.40453   0.00000  Uiso   1.00
H173   H     0.34527   0.19538   0.43525   0.00000  Uiso   1.00
H174   H     0.37470   0.16897   0.38857   0.00000  Uiso   1.00
C175   C     0.33845   0.21696   0.38362   0.00000  Uiso   1.00
H176   H     0.35775   0.22179   0.35282   0.00000  Uiso   1.00
H177   H     0.64266   0.19463   0.38297   0.00000  Uiso   1.00
H178   H     0.66122   0.24720   0.39947   0.00000  Uiso   1.00
Zn179  Zn    0.85910   0.14090   0.28278   0.00000  Uiso   1.00
Zn180  Zn    0.80125   0.12378   0.22258   0.00000  Uiso   1.00
Zn181  Zn    0.87833   0.19664   0.21188   0.00000  Uiso   1.00
Zn182  Zn    0.79465   0.20535   0.28277   0.00000  Uiso   1.00
O183   O     0.83333   0.16667   0.25000   0.00000  Uiso   1.00
O184   O     0.73656   0.18960   0.27820   0.00000  Uiso   1.00
O185   O     0.92106   0.15277   0.26768   0.00000  Uiso   1.00
O186   O     0.80467   0.06903   0.23607   0.00000  Uiso   1.00
O187   O     0.87104   0.25527   0.21806   0.00000  Uiso   1.00
O188   O     0.82360   0.12393   0.16625   0.00000  Uiso   1.00
O189   O     0.79354   0.20646   0.33749   0.00000  Uiso   1.00
O190   O     0.87755   0.17493   0.15877   0.00000  Uiso   1.00
O191   O     0.83865   0.16135   0.33749   0.00000  Uiso   1.00
O192   O     0.84515   0.08101   0.27821   0.00000  Uiso   1.00
O193   O     0.81247   0.26136   0.26767   0.00000  Uiso   1.00
O194   O     0.74119   0.13251   0.23607   0.00000  Uiso   1.00
O195   O     0.93452   0.19179   0.21806   0.00000  Uiso   1.00
C196   C     0.71914   0.16013   0.25876   0.00000  Uiso   1.00
C197   C     0.94778   0.17360   0.24111   0.00000  Uiso   1.00
C198   C     0.82292   0.05627   0.25860   0.00000  Uiso   1.00
C199   C     0.84330   0.27774   0.24147   0.00000  Uiso   1.00
C200   C     0.85529   0.14530   0.14394   0.00000  Uiso   1.00
C201   C     0.81140   0.18736   0.35636   0.00000  Uiso   1.00
C202   C     0.79895   0.19334   0.39999   0.00000  Uiso   1.00
C203   C     0.86685   0.13673   0.10102   0.00000  Uiso   1.00
C204   C     0.74989   0.21441   0.46374   0.00000  Uiso   1.00
C205   C     0.76138   0.21171   0.42249   0.00000  Uiso   1.00
C206   C     0.82414   0.17815   0.41934   0.00000  Uiso   1.00
C207   C     0.81342   0.18119   0.46086   0.00000  Uiso   1.00
C208   C     0.77421   0.19755   0.48324   0.00000  Uiso   1.00
C209   C     0.84060   0.16795   0.48046   0.00000  Uiso   1.00
C210   C     0.82562   0.16586   0.02198   0.00000  Uiso   1.00
C211   C     0.78580   0.18128   0.04319   0.00000  Uiso   1.00
C212   C     0.76063   0.19751   0.02461   0.00000  Uiso   1.00
C213   C     0.88320   0.15871   0.46000   0.00000  Uiso   1.00
C214   C     0.90963   0.14616   0.47914   0.00000  Uiso   1.00
C215   C     0.89470   0.14141   0.01939   0.00000  Uiso   1.00
C216   C     0.85204   0.15038   0.04120   0.00000  Uiso   1.00
C217   C     0.92275   0.12949   0.03840   0.00000  Uiso   1.00
C218   C     0.90912   0.12796   0.07937   0.00000  Uiso   1.00
C219   C     0.83819   0.14545   0.08188   0.00000  Uiso   1.00
H220   H     0.80605   0.15063   0.10025   0.00000  Uiso   1.00
H221   H     0.94234   0.14056   0.46198   0.00000  Uiso   1.00
H222   H     0.72164   0.22985   0.48009   0.00000  Uiso   1.00
H223   H     0.85143   0.16262   0.40112   0.00000  Uiso   1.00
H224   H     0.77347   0.18230   0.07481   0.00000  Uiso   1.00
H225   H     0.89819   0.16297   0.42929   0.00000  Uiso   1.00
C226   C     0.99389   0.17611   0.23727   0.00000  Uiso   1.00
H227   H     0.68386   0.19248   0.21393   0.00000  Uiso   1.00
C228   C     0.67369   0.15818   0.26240   0.00000  Uiso   1.00
H229   H     0.98433   0.14208   0.28623   0.00000  Uiso   1.00
C230   C     0.84706   0.32245   0.23966   0.00000  Uiso   1.00
H231   H     0.87580   0.00357   0.21928   0.00000  Uiso   1.00
C232   C     0.81652   0.01233   0.26323   0.00000  Uiso   1.00
N233   N     0.72079   0.21302   0.04853   0.00000  Uiso   1.00
O234   O     0.71970   0.23586   0.08179   0.00000  Uiso   1.00
O235   O     0.68441   0.19843   0.04091   0.00000  Uiso   1.00
O236   O     0.96576   0.12561   0.01808   0.00000  Uiso   1.00
C237   C     0.97009   0.08375   0.00218   0.00000  Uiso   1.00
H238   H     0.94624   0.07147   0.48533   0.00000  Uiso   1.00
H239   H     0.96584   0.06374   0.02608   0.00000  Uiso   1.00
C240   C     0.68213   0.08125   0.47400   0.00000  Uiso   1.00
H241   H     0.70680   0.09275   0.48998   0.00000  Uiso   1.00
H242   H     0.68631   0.04842   0.46144   0.00000  Uiso   1.00
H243   H     0.68716   0.10065   0.44947   0.00000  Uiso   1.00
O244   O     0.77758   0.32709   0.28668   0.00000  Uiso   1.00
C245   C     0.75910   0.02048   0.32056   0.00000  Uiso   1.00
H246   H     0.74469   0.04550   0.31227   0.00000  Uiso   1.00
H247   H     0.78363   0.03462   0.33612   0.00000  Uiso   1.00
C248   C     0.72322   0.32863   0.34908   0.00000  Uiso   1.00
H249   H     0.73675   0.30354   0.35812   0.00000  Uiso   1.00
H250   H     0.70827   0.01596   0.37581   0.00000  Uiso   1.00
H251   H     0.69784   0.31433   0.33473   0.00000  Uiso   1.00
O252   O     0.93923   0.12237   0.09809   0.00000  Uiso   1.00
C253   C     0.92899   0.08297   0.11280   0.00000  Uiso   1.00
H254   H     0.91961   0.05787   0.09120   0.00000  Uiso   1.00
H255   H     0.90211   0.08397   0.14073   0.00000  Uiso   1.00
C256   C     0.96851   0.07160   0.12171   0.00000  Uiso   1.00
H257   H     0.97808   0.09547   0.14399   0.00000  Uiso   1.00
H258   H     0.96089   0.04081   0.13356   0.00000  Uiso   1.00
H259   H     0.99601   0.06990   0.09428   0.00000  Uiso   1.00
O260   O     0.73627   0.22812   0.40443   0.00000  Uiso   1.00
C261   C     0.69894   0.19978   0.40453   0.00000  Uiso   1.00
H262   H     0.67860   0.19538   0.43525   0.00000  Uiso   1.00
H263   H     0.70803   0.16897   0.38857   0.00000  Uiso   1.00
C264   C     0.67179   0.21696   0.38362   0.00000  Uiso   1.00
H265   H     0.69108   0.22179   0.35282   0.00000  Uiso   1.00
H266   H     0.97600   0.19463   0.38297   0.00000  Uiso   1.00
H267   H     0.99455   0.24720   0.39947   0.00000  Uiso   1.00
Zn268  Zn    0.19244   0.47423   0.28278   0.00000  Uiso   1.00
Zn269  Zn    0.13459   0.45711   0.22258   0.00000  Uiso   1.00
Zn270  Zn    0.21166   0.52997   0.21188   0.00000  Uiso   1.00
Zn271  Zn    0.12798   0.53868   0.28277   0.00000  Uiso   1.00
O272   O     0.16667   0.50000   0.25000   0.00000  Uiso   1.00
O273   O     0.06990   0.52293   0.27820   0.00000  Uiso   1.00
O274   O     0.25440   0.48610   0.26768   0.00000  Uiso   1.00
O275   O     0.13800   0.40236   0.23607   0.00000  Uiso   1.00
O276   O     0.20437   0.58860   0.21806   0.00000  Uiso   1.00
O277   O     0.15693   0.45726   0.16625   0.00000  Uiso   1.00
O278   O     0.12687   0.53979   0.33749   0.00000  Uiso   1.00
O279   O     0.21088   0.50826   0.15877   0.00000  Uiso   1.00
O280   O     0.17198   0.49468   0.33749   0.00000  Uiso   1.00
O281   O     0.17849   0.41434   0.27821   0.00000  Uiso   1.00
O282   O     0.14581   0.59469   0.26767   0.00000  Uiso   1.00
O283   O     0.07452   0.46584   0.23607   0.00000  Uiso   1.00
O284   O     0.26785   0.52512   0.21806   0.00000  Uiso   1.00
C285   C     0.05248   0.49347   0.25876   0.00000  Uiso   1.00
C286   C     0.28112   0.50694   0.24111   0.00000  Uiso   1.00
C287   C     0.15625   0.38961   0.25860   0.00000  Uiso   1.00
C288   C     0.17664   0.61107   0.24147   0.00000  Uiso   1.00
C289   C     0.18863   0.47863   0.14394   0.00000  Uiso   1.00
C290   C     0.14473   0.52070   0.35636   0.00000  Uiso   1.00
C291   C     0.13228   0.52667   0.39999   0.00000  Uiso   1.00
C292   C     0.20019   0.47006   0.10102   0.00000  Uiso   1.00
C293   C     0.08323   0.54774   0.46374   0.00000  Uiso   1.00
C294   C     0.09471   0.54504   0.42249   0.00000  Uiso   1.00
C295   C     0.15748   0.51148   0.41934   0.00000  Uiso   1.00
C296   C     0.14676   0.51453   0.46086   0.00000  Uiso   1.00
C297   C     0.10754   0.53089   0.48324   0.00000  Uiso   1.00
C298   C     0.17393   0.50128   0.48046   0.00000  Uiso   1.00
C299   C     0.15896   0.49919   0.02198   0.00000  Uiso   1.00
C300   C     0.11914   0.51462   0.04319   0.00000  Uiso   1.00
C301   C     0.09396   0.53084   0.02461   0.00000  Uiso   1.00
C302   C     0.21653   0.49204   0.46000   0.00000  Uiso   1.00
C303   C     0.24297   0.47949   0.47914   0.00000  Uiso   1.00
C304   C     0.22803   0.47474   0.01939   0.00000  Uiso   1.00
C305   C     0.18537   0.48371   0.04120   0.00000  Uiso   1.00
C306   C     0.25608   0.46282   0.03840   0.00000  Uiso   1.00
C307   C     0.24245   0.46129   0.07937   0.00000  Uiso   1.00
C308   C     0.17152   0.47878   0.08188   0.00000  Uiso   1.00
H309   H     0.13939   0.48396   0.10025   0.00000  Uiso   1.00
H310   H     0.27567   0.47389   0.46198   0.00000  Uiso   1.00
H311   H     0.05498   0.56319   0.48009   0.00000  Uiso   1.00
H312   H     0.18477   0.49595   0.40112   0.00000  Uiso   1.00
H313   H     0.10680   0.51563   0.07481   0.00000  Uiso   1.00
H314   H     0.23153   0.49630   0.42929   0.00000  Uiso   1.00
C315   C     0.32722   0.50945   0.23727   0.00000  Uiso   1.00
H316   H     0.01719   0.52582   0.21393   0.00000  Uiso   1.00
C317   C     0.00703   0.49151   0.26240   0.00000  Uiso   1.00
H318   H     0.31767   0.47541   0.28623   0.00000  Uiso   1.00
C319   C     0.18040   0.65578   0.23966   0.00000  Uiso   1.00
H320   H     0.20913   0.33690   0.21928   0.00000  Uiso   1.00
C321   C     0.14985   0.34567   0.26323   0.00000  Uiso   1.00
N322   N     0.05413   0.54635   0.04853   0.00000  Uiso   1.00
O323   O     0.05304   0.56919   0.08179   0.00000  Uiso   1.00
O324   O     0.01775   0.53176   0.04091   0.00000  Uiso   1.00
O325   O     0.29909   0.45894   0.01808   0.00000  Uiso   1.00
C326   C     0.30342   0.41709   0.00218   0.00000  Uiso   1.00
H327   H     0.27957   0.40480   0.48533   0.00000  Uiso   1.00
H328   H     0.29917   0.39707   0.02608   0.00000  Uiso   1.00
C329   C     0.01546   0.41458   0.47400   0.00000  Uiso   1.00
H330   H     0.04014   0.42608   0.48998   0.00000  Uiso   1.00
H331   H     0.01964   0.38175   0.46144   0.00000  Uiso   1.00
H332   H     0.02049   0.43398   0.44947   0.00000  Uiso   1.00
O333   O     0.11091   0.66042   0.28668   0.00000  Uiso   1.00
C334   C     0.09243   0.35381   0.32056   0.00000  Uiso   1.00
H335   H     0.07803   0.37883   0.31227   0.00000  Uiso   1.00
H336   H     0.11697   0.36795   0.33612   0.00000  Uiso   1.00
C337   C     0.05656   0.66196   0.34908   0.00000  Uiso   1.00
H338   H     0.07009   0.63687   0.35812   0.00000  Uiso   1.00
H339   H     0.04160   0.34929   0.37581   0.00000  Uiso   1.00
H340   H     0.03117   0.64766   0.33473   0.00000  Uiso   1.00
O341   O     0.27256   0.45570   0.09809   0.00000  Uiso   1.00
C342   C     0.26232   0.41630   0.11280   0.00000  Uiso   1.00
H343   H     0.25295   0.39120   0.09120   0.00000  Uiso   1.00
H344   H     0.23544   0.41731   0.14073   0.00000  Uiso   1.00
C345   C     0.30185   0.40493   0.12171   0.00000  Uiso   1.00
H346   H     0.31141   0.42880   0.14399   0.00000  Uiso   1.00
H347   H     0.29422   0.37415   0.13356   0.00000  Uiso   1.00
H348   H     0.32934   0.40324   0.09428   0.00000  Uiso   1.00
O349   O     0.06960   0.56145   0.40443   0.00000  Uiso   1.00
C350   C     0.03227   0.53312   0.40453   0.00000  Uiso   1.00
H351   H     0.01193   0.52871   0.43525   0.00000  Uiso   1.00
H352   H     0.04137   0.50231   0.38857   0.00000  Uiso   1.00
C353   C     0.00512   0.55029   0.38362   0.00000  Uiso   1.00
H354   H     0.02442   0.55512   0.35282   0.00000  Uiso   1.00
H355   H     0.30933   0.52796   0.38297   0.00000  Uiso   1.00
H356   H     0.32788   0.58054   0.39947   0.00000  Uiso   1.00
Zn357  Zn    0.52577   0.47423   0.28278   0.00000  Uiso   1.00
Zn358  Zn    0.46792   0.45711   0.22258   0.00000  Uiso   1.00
Zn359  Zn    0.54500   0.52997   0.21188   0.00000  Uiso   1.00
Zn360  Zn    0.46131   0.53868   0.28277   0.00000  Uiso   1.00
O361   O     0.50000   0.50000   0.25000   0.00000  Uiso   1.00
O362   O     0.40323   0.52293   0.27820   0.00000  Uiso   1.00
O363   O     0.58773   0.48610   0.26768   0.00000  Uiso   1.00
O364   O     0.47133   0.40236   0.23607   0.00000  Uiso   1.00
O365   O     0.53771   0.58860   0.21806   0.00000  Uiso   1.00
O366   O     0.49027   0.45726   0.16625   0.00000  Uiso   1.00
O367   O     0.46020   0.53979   0.33749   0.00000  Uiso   1.00
O368   O     0.54421   0.50826   0.15877   0.00000  Uiso   1.00
O369   O     0.50532   0.49468   0.33749   0.00000  Uiso   1.00
O370   O     0.51182   0.41434   0.27821   0.00000  Uiso   1.00
O371   O     0.47914   0.59469   0.26767   0.00000  Uiso   1.00
O372   O     0.40785   0.46584   0.23607   0.00000  Uiso   1.00
O373   O     0.60119   0.52512   0.21806   0.00000  Uiso   1.00
C374   C     0.38581   0.49347   0.25876   0.00000  Uiso   1.00
C375   C     0.61445   0.50694   0.24111   0.00000  Uiso   1.00
C376   C     0.48958   0.38961   0.25860   0.00000  Uiso   1.00
C377   C     0.50997   0.61107   0.24147   0.00000  Uiso   1.00
C378   C     0.52196   0.47863   0.14394   0.00000  Uiso   1.00
C379   C     0.47806   0.52070   0.35636   0.00000  Uiso   1.00
C380   C     0.46561   0.52667   0.39999   0.00000  Uiso   1.00
C381   C     0.53352   0.47006   0.10102   0.00000  Uiso   1.00
C382   C     0.41656   0.54774   0.46374   0.00000  Uiso   1.00
C383   C     0.42805   0.54504   0.42249   0.00000  Uiso   1.00
C384   C     0.49081   0.51148   0.41934   0.00000  Uiso   1.00
C385   C     0.48009   0.51453   0.46086   0.00000  Uiso   1.00
C386   C     0.44088   0.53089   0.48324   0.00000  Uiso   1.00
C387   C     0.50726   0.50128   0.48046   0.00000  Uiso   1.00
C388   C     0.49229   0.49919   0.02198   0.00000  Uiso   1.00
C389   C     0.45247   0.51462   0.04319   0.00000  Uiso   1.00
C390   C     0.42729   0.53084   0.02461   0.00000  Uiso   1.00
C391   C     0.54986   0.49204   0.46000   0.00000  Uiso   1.00
C392   C     0.57630   0.47949   0.47914   0.00000  Uiso   1.00
C393   C     0.56137   0.47474   0.01939   0.00000  Uiso   1.00
C394   C     0.51870   0.48371   0.04120   0.00000  Uiso   1.00
C395   C     0.58942   0.46282   0.03840   0.00000  Uiso   1.00
C396   C     0.57579   0.46129   0.07937   0.00000  Uiso   1.00
C397   C     0.50486   0.47878   0.08188   0.00000  Uiso   1.00
H398   H     0.47272   0.48396   0.10025   0.00000  Uiso   1.00
H399   H     0.60900   0.47389   0.46198   0.00000  Uiso   1.00
H400   H     0.38831   0.56319   0.48009   0.00000  Uiso   1.00
H401   H     0.51810   0.49595   0.40112   0.00000  Uiso   1.00
H402   H     0.44014   0.51563   0.07481   0.00000  Uiso   1.00
H403   H     0.56486   0.49630   0.42929   0.00000  Uiso   1.00
C404   C     0.66055   0.50945   0.23727   0.00000  Uiso   1.00
H405   H     0.35053   0.52582   0.21393   0.00000  Uiso   1.00
C406   C     0.34036   0.49151   0.26240   0.00000  Uiso   1.00
H407   H     0.65100   0.47541   0.28623   0.00000  Uiso   1.00
C408   C     0.51373   0.65578   0.23966   0.00000  Uiso   1.00
H409   H     0.54247   0.33690   0.21928   0.00000  Uiso   1.00
C410   C     0.48318   0.34567   0.26323   0.00000  Uiso   1.00
N411   N     0.38746   0.54635   0.04853   0.00000  Uiso   1.00
O412   O     0.38637   0.56919   0.08179   0.00000  Uiso   1.00
O413   O     0.35108   0.53176   0.04091   0.00000  Uiso   1.00
O414   O     0.63242   0.45894   0.01808   0.00000  Uiso   1.00
C415   C     0.63676   0.41709   0.00218   0.00000  Uiso   1.00
H416   H     0.61290   0.40480   0.48533   0.00000  Uiso   1.00
H417   H     0.63250   0.39707   0.02608   0.00000  Uiso   1.00
C418   C     0.34880   0.41458   0.47400   0.00000  Uiso   1.00
H419   H     0.37347   0.42608   0.48998   0.00000  Uiso   1.00
H420   H     0.35298   0.38175   0.46144   0.00000  Uiso   1.00
H421   H     0.35382   0.43398   0.44947   0.00000  Uiso   1.00
O422   O     0.44425   0.66042   0.28668   0.00000  Uiso   1.00
C423   C     0.42577   0.35381   0.32056   0.00000  Uiso   1.00
H424   H     0.41136   0.37883   0.31227   0.00000  Uiso   1.00
H425   H     0.45030   0.36795   0.33612   0.00000  Uiso   1.00
C426   C     0.38989   0.66196   0.34908   0.00000  Uiso   1.00
H427   H     0.40342   0.63687   0.35812   0.00000  Uiso   1.00
H428   H     0.37494   0.34929   0.37581   0.00000  Uiso   1.00
H429   H     0.36451   0.64766   0.33473   0.00000  Uiso   1.00
O430   O     0.60589   0.45570   0.09809   0.00000  Uiso   1.00
C431   C     0.59565   0.41630   0.11280   0.00000  Uiso   1.00
H432   H     0.58628   0.39120   0.09120   0.00000  Uiso   1.00
H433   H     0.56878   0.41731   0.14073   0.00000  Uiso   1.00
C434   C     0.63518   0.40493   0.12171   0.00000  Uiso   1.00
H435   H     0.64474   0.42880   0.14399   0.00000  Uiso   1.00
H436   H     0.62755   0.37415   0.13356   0.00000  Uiso   1.00
H437   H     0.66267   0.40324   0.09428   0.00000  Uiso   1.00
O438   O     0.40294   0.56145   0.40443   0.00000  Uiso   1.00
C439   C     0.36560   0.53312   0.40453   0.00000  Uiso   1.00
H440   H     0.34527   0.52871   0.43525   0.00000  Uiso   1.00
H441   H     0.37470   0.50231   0.38857   0.00000  Uiso   1.00
C442   C     0.33845   0.55029   0.38362   0.00000  Uiso   1.00
H443   H     0.35775   0.55512   0.35282   0.00000  Uiso   1.00
H444   H     0.64266   0.52796   0.38297   0.00000  Uiso   1.00
H445   H     0.66122   0.58054   0.39947   0.00000  Uiso   1.00
Zn446  Zn    0.85910   0.47423   0.28278   0.00000  Uiso   1.00
Zn447  Zn    0.80125   0.45711   0.22258   0.00000  Uiso   1.00
Zn448  Zn    0.87833   0.52997   0.21188   0.00000  Uiso   1.00
Zn449  Zn    0.79465   0.53868   0.28277   0.00000  Uiso   1.00
O450   O     0.83333   0.50000   0.25000   0.00000  Uiso   1.00
O451   O     0.73656   0.52293   0.27820   0.00000  Uiso   1.00
O452   O     0.92106   0.48610   0.26768   0.00000  Uiso   1.00
O453   O     0.80467   0.40236   0.23607   0.00000  Uiso   1.00
O454   O     0.87104   0.58860   0.21806   0.00000  Uiso   1.00
O455   O     0.82360   0.45726   0.16625   0.00000  Uiso   1.00
O456   O     0.79354   0.53979   0.33749   0.00000  Uiso   1.00
O457   O     0.87755   0.50826   0.15877   0.00000  Uiso   1.00
O458   O     0.83865   0.49468   0.33749   0.00000  Uiso   1.00
O459   O     0.84515   0.41434   0.27821   0.00000  Uiso   1.00
O460   O     0.81247   0.59469   0.26767   0.00000  Uiso   1.00
O461   O     0.74119   0.46584   0.23607   0.00000  Uiso   1.00
O462   O     0.93452   0.52512   0.21806   0.00000  Uiso   1.00
C463   C     0.71914   0.49347   0.25876   0.00000  Uiso   1.00
C464   C     0.94778   0.50694   0.24111   0.00000  Uiso   1.00
C465   C     0.82292   0.38961   0.25860   0.00000  Uiso   1.00
C466   C     0.84330   0.61107   0.24147   0.00000  Uiso   1.00
C467   C     0.85529   0.47863   0.14394   0.00000  Uiso   1.00
C468   C     0.81140   0.52070   0.35636   0.00000  Uiso   1.00
C469   C     0.79895   0.52667   0.39999   0.00000  Uiso   1.00
C470   C     0.86685   0.47006   0.10102   0.00000  Uiso   1.00
C471   C     0.74989   0.54774   0.46374   0.00000  Uiso   1.00
C472   C     0.76138   0.54504   0.42249   0.00000  Uiso   1.00
C473   C     0.82414   0.51148   0.41934   0.00000  Uiso   1.00
C474   C     0.81342   0.51453   0.46086   0.00000  Uiso   1.00
C475   C     0.77421   0.53089   0.48324   0.00000  Uiso   1.00
C476   C     0.84060   0.50128   0.48046   0.00000  Uiso   1.00
C477   C     0.82562   0.49919   0.02198   0.00000  Uiso   1.00
C478   C     0.78580   0.51462   0.04319   0.00000  Uiso   1.00
C479   C     0.76063   0.53084   0.02461   0.00000  Uiso   1.00
C480   C     0.88320   0.49204   0.46000   0.00000  Uiso   1.00
C481   C     0.90963   0.47949   0.47914   0.00000  Uiso   1.00
C482   C     0.89470   0.47474   0.01939   0.00000  Uiso   1.00
C483   C     0.85204   0.48371   0.04120   0.00000  Uiso   1.00
C484   C     0.92275   0.46282   0.03840   0.00000  Uiso   1.00
C485   C     0.90912   0.46129   0.07937   0.00000  Uiso   1.00
C486   C     0.83819   0.47878   0.08188   0.00000  Uiso   1.00
H487   H     0.80605   0.48396   0.10025   0.00000  Uiso   1.00
H488   H     0.94234   0.47389   0.46198   0.00000  Uiso   1.00
H489   H     0.72164   0.56319   0.48009   0.00000  Uiso   1.00
H490   H     0.85143   0.49595   0.40112   0.00000  Uiso   1.00
H491   H     0.77347   0.51563   0.07481   0.00000  Uiso   1.00
H492   H     0.89819   0.49630   0.42929   0.00000  Uiso   1.00
C493   C     0.99389   0.50945   0.23727   0.00000  Uiso   1.00
H494   H     0.68386   0.52582   0.21393   0.00000  Uiso   1.00
C495   C     0.67369   0.49151   0.26240   0.00000  Uiso   1.00
H496   H     0.98433   0.47541   0.28623   0.00000  Uiso   1.00
C497   C     0.84706   0.65578   0.23966   0.00000  Uiso   1.00
H498   H     0.87580   0.33690   0.21928   0.00000  Uiso   1.00
C499   C     0.81652   0.34567   0.26323   0.00000  Uiso   1.00
N500   N     0.72079   0.54635   0.04853   0.00000  Uiso   1.00
O501   O     0.71970   0.56919   0.08179   0.00000  Uiso   1.00
O502   O     0.68441   0.53176   0.04091   0.00000  Uiso   1.00
O503   O     0.96576   0.45894   0.01808   0.00000  Uiso   1.00
C504   C     0.97009   0.41709   0.00218   0.00000  Uiso   1.00
H505   H     0.94624   0.40480   0.48533   0.00000  Uiso   1.00
H506   H     0.96584   0.39707   0.02608   0.00000  Uiso   1.00
C507   C     0.68213   0.41458   0.47400   0.00000  Uiso   1.00
H508   H     0.70680   0.42608   0.48998   0.00000  Uiso   1.00
H509   H     0.68631   0.38175   0.46144   0.00000  Uiso   1.00
H510   H     0.68716   0.43398   0.44947   0.00000  Uiso   1.00
O511   O     0.77758   0.66042   0.28668   0.00000  Uiso   1.00
C512   C     0.75910   0.35381   0.32056   0.00000  Uiso   1.00
H513   H     0.74469   0.37883   0.31227   0.00000  Uiso   1.00
H514   H     0.78363   0.36795   0.33612   0.00000  Uiso   1.00
C515   C     0.72322   0.66196   0.34908   0.00000  Uiso   1.00
H516   H     0.73675   0.63687   0.35812   0.00000  Uiso   1.00
H517   H     0.70827   0.34929   0.37581   0.00000  Uiso   1.00
H518   H     0.69784   0.64766   0.33473   0.00000  Uiso   1.00
O519   O     0.93923   0.45570   0.09809   0.00000  Uiso   1.00
C520   C     0.92899   0.41630   0.11280   0.00000  Uiso   1.00
H521   H     0.91961   0.39120   0.09120   0.00000  Uiso   1.00
H522   H     0.90211   0.41731   0.14073   0.00000  Uiso   1.00
C523   C     0.96851   0.40493   0.12171   0.00000  Uiso   1.00
H524   H     0.97808   0.42880   0.14399   0.00000  Uiso   1.00
H525   H     0.96089   0.37415   0.13356   0.00000  Uiso   1.00
H526   H     0.99601   0.40324   0.09428   0.00000  Uiso   1.00
O527   O     0.73627   0.56145   0.40443   0.00000  Uiso   1.00
C528   C     0.69894   0.53312   0.40453   0.00000  Uiso   1.00
H529   H     0.67860   0.52871   0.43525   0.00000  Uiso   1.00
H530   H     0.70803   0.50231   0.38857   0.00000  Uiso   1.00
C531   C     0.67179   0.55029   0.38362   0.00000  Uiso   1.00
H532   H     0.69108   0.55512   0.35282   0.00000  Uiso   1.00
H533   H     0.97600   0.52796   0.38297   0.00000  Uiso   1.00
H534   H     0.99455   0.58054   0.39947   0.00000  Uiso   1.00
Zn535  Zn    0.19244   0.80756   0.28278   0.00000  Uiso   1.00
Zn536  Zn    0.13459   0.79044   0.22258   0.00000  Uiso   1.00
Zn537  Zn    0.21166   0.86331   0.21188   0.00000  Uiso   1.00
Zn538  Zn    0.12798   0.87202   0.28277   0.00000  Uiso   1.00
O539   O     0.16667   0.83333   0.25000   0.00000  Uiso   1.00
O540   O     0.06990   0.85627   0.27820   0.00000  Uiso   1.00
O541   O     0.25440   0.81944   0.26768   0.00000  Uiso   1.00
O542   O     0.13800   0.73570   0.23607   0.00000  Uiso   1.00
O543   O     0.20437   0.92193   0.21806   0.00000  Uiso   1.00
O544   O     0.15693   0.79060   0.16625   0.00000  Uiso   1.00
O545   O     0.12687   0.87313   0.33749   0.00000  Uiso   1.00
O546   O     0.21088   0.84159   0.15877   0.00000  Uiso   1.00
O547   O     0.17198   0.82802   0.33749   0.00000  Uiso   1.00
O548   O     0.17849   0.74768   0.27821   0.00000  Uiso   1.00
O549   O     0.14581   0.92803   0.26767   0.00000  Uiso   1.00
O550   O     0.07452   0.79917   0.23607   0.00000  Uiso   1.00
O551   O     0.26785   0.85845   0.21806   0.00000  Uiso   1.00
C552   C     0.05248   0.82680   0.25876   0.00000  Uiso   1.00
C553   C     0.28112   0.84027   0.24111   0.00000  Uiso   1.00
C554   C     0.15625   0.72294   0.25860   0.00000  Uiso   1.00
C555   C     0.17664   0.94441   0.24147   0.00000  Uiso   1.00
C556   C     0.18863   0.81196   0.14394   0.00000  Uiso   1.00
C557   C     0.14473   0.85403   0.35636   0.00000  Uiso   1.00
C558   C     0.13228   0.86001   0.39999   0.00000  Uiso   1.00
C559   C     0.20019   0.80340   0.10102   0.00000  Uiso   1.00
C560   C     0.08323   0.88108   0.46374   0.00000  Uiso   1.00
C561   C     0.09471   0.87838   0.42249   0.00000  Uiso   1.00
C562   C     0.15748   0.84482   0.41934   0.00000  Uiso   1.00
C563   C     0.14676   0.84786   0.46086   0.00000  Uiso   1.00
C564   C     0.10754   0.86422   0.48324   0.00000  Uiso   1.00
C565   C     0.17393   0.83461   0.48046   0.00000  Uiso   1.00
C566   C     0.15896   0.83253   0.02198   0.00000  Uiso   1.00
C567   C     0.11914   0.84795   0.04319   0.00000  Uiso   1.00
C568   C     0.09396   0.86417   0.02461   0.00000  Uiso   1.00
C569   C     0.21653   0.82538   0.46000   0.00000  Uiso   1.00
C570   C     0.24297   0.81282   0.47914   0.00000  Uiso   1.00
C571   C     0.22803   0.80808   0.01939   0.00000  Uiso   1.00
C572   C     0.18537   0.81704   0.04120   0.00000  Uiso   1.00
C573   C     0.25608   0.79616   0.03840   0.00000  Uiso   1.00
C574   C     0.24245   0.79462   0.07937   0.00000  Uiso   1.00
C575   C     0.17152   0.81212   0.08188   0.00000  Uiso   1.00
H576   H     0.13939   0.81730   0.10025   0.00000  Uiso   1.00
H577   H     0.27567   0.80723   0.46198   0.00000  Uiso   1.00
H578   H     0.05498   0.89652   0.48009   0.00000  Uiso   1.00
H579   H     0.18477   0.82928   0.40112   0.00000  Uiso   1.00
H580   H     0.10680   0.84897   0.07481   0.00000  Uiso   1.00
H581   H     0.23153   0.82963   0.42929   0.00000  Uiso   1.00
C582   C     0.32722   0.84278   0.23727   0.00000  Uiso   1.00
H583   H     0.01719   0.85915   0.21393   0.00000  Uiso   1.00
C584   C     0.00703   0.82485   0.26240   0.00000  Uiso   1.00
H585   H     0.31767   0.80874   0.28623   0.00000  Uiso   1.00
C586   C     0.18040   0.98911   0.23966   0.00000  Uiso   1.00
H587   H     0.20913   0.67023   0.21928   0.00000  Uiso   1.00
C588   C     0.14985   0.67900   0.26323   0.00000  Uiso   1.00
N589   N     0.05413   0.87969   0.04853   0.00000  Uiso   1.00
O590   O     0.05304   0.90253   0.08179   0.00000  Uiso   1.00
O591   O     0.01775   0.86510   0.04091   0.00000  Uiso   1.00
O592   O     0.29909   0.79227   0.01808   0.00000  Uiso   1.00
C593   C     0.30342   0.75042   0.00218   0.00000  Uiso   1.00
H594   H     0.27957   0.73813   0.48533   0.00000  Uiso   1.00
H595   H     0.29917   0.73040   0.02608   0.00000  Uiso   1.00
C596   C     0.01546   0.74791   0.47400   0.00000  Uiso   1.00
H597   H     0.04014   0.75942   0.48998   0.00000  Uiso   1.00
H598   H     0.01964   0.71509   0.46144   0.00000  Uiso   1.00
H599   H     0.02049   0.76732   0.44947   0.00000  Uiso   1.00
O600   O     0.11091   0.99376   0.28668   0.00000  Uiso   1.00
C601   C     0.09243   0.68714   0.32056   0.00000  Uiso   1.00
H602   H     0.07803   0.71217   0.31227   0.00000  Uiso   1.00
H603   H     0.11697   0.70129   0.33612   0.00000  Uiso   1.00
C604   C     0.05656   0.99530   0.34908   0.00000  Uiso   1.00
H605   H     0.07009   0.97021   0.35812   0.00000  Uiso   1.00
H606   H     0.04160   0.68263   0.37581   0.00000  Uiso   1.00
H607   H     0.03117   0.98100   0.33473   0.00000  Uiso   1.00
O608   O     0.27256   0.78904   0.09809   0.00000  Uiso   1.00
C609   C     0.26232   0.74964   0.11280   0.00000  Uiso   1.00
H610   H     0.25295   0.72454   0.09120   0.00000  Uiso   1.00
H611   H     0.23544   0.75064   0.14073   0.00000  Uiso   1.00
C612   C     0.30185   0.73826   0.12171   0.00000  Uiso   1.00
H613   H     0.31141   0.76213   0.14399   0.00000  Uiso   1.00
H614   H     0.29422   0.70748   0.13356   0.00000  Uiso   1.00
H615   H     0.32934   0.73657   0.09428   0.00000  Uiso   1.00
O616   O     0.06960   0.89478   0.40443   0.00000  Uiso   1.00
C617   C     0.03227   0.86645   0.40453   0.00000  Uiso   1.00
H618   H     0.01193   0.86205   0.43525   0.00000  Uiso   1.00
H619   H     0.04137   0.83564   0.38857   0.00000  Uiso   1.00
C620   C     0.00512   0.88362   0.38362   0.00000  Uiso   1.00
H621   H     0.02442   0.88846   0.35282   0.00000  Uiso   1.00
H622   H     0.30933   0.86129   0.38297   0.00000  Uiso   1.00
H623   H     0.32788   0.91387   0.39947   0.00000  Uiso   1.00
Zn624  Zn    0.52577   0.80756   0.28278   0.00000  Uiso   1.00
Zn625  Zn    0.46792   0.79044   0.22258   0.00000  Uiso   1.00
Zn626  Zn    0.54500   0.86331   0.21188   0.00000  Uiso   1.00
Zn627  Zn    0.46131   0.87202   0.28277   0.00000  Uiso   1.00
O628   O     0.50000   0.83333   0.25000   0.00000  Uiso   1.00
O629   O     0.40323   0.85627   0.27820   0.00000  Uiso   1.00
O630   O     0.58773   0.81944   0.26768   0.00000  Uiso   1.00
O631   O     0.47133   0.73570   0.23607   0.00000  Uiso   1.00
O632   O     0.53771   0.92193   0.21806   0.00000  Uiso   1.00
O633   O     0.49027   0.79060   0.16625   0.00000  Uiso   1.00
O634   O     0.46020   0.87313   0.33749   0.00000  Uiso   1.00
O635   O     0.54421   0.84159   0.15877   0.00000  Uiso   1.00
O636   O     0.50532   0.82802   0.33749   0.00000  Uiso   1.00
O637   O     0.51182   0.74768   0.27821   0.00000  Uiso   1.00
O638   O     0.47914   0.92803   0.26767   0.00000  Uiso   1.00
O639   O     0.40785   0.79917   0.23607   0.00000  Uiso   1.00
O640   O     0.60119   0.85845   0.21806   0.00000  Uiso   1.00
C641   C     0.38581   0.82680   0.25876   0.00000  Uiso   1.00
C642   C     0.61445   0.84027   0.24111   0.00000  Uiso   1.00
C643   C     0.48958   0.72294   0.25860   0.00000  Uiso   1.00
C644   C     0.50997   0.94441   0.24147   0.00000  Uiso   1.00
C645   C     0.52196   0.81196   0.14394   0.00000  Uiso   1.00
C646   C     0.47806   0.85403   0.35636   0.00000  Uiso   1.00
C647   C     0.46561   0.86001   0.39999   0.00000  Uiso   1.00
C648   C     0.53352   0.80340   0.10102   0.00000  Uiso   1.00
C649   C     0.41656   0.88108   0.46374   0.00000  Uiso   1.00
C650   C     0.42805   0.87838   0.42249   0.00000  Uiso   1.00
C651   C     0.49081   0.84482   0.41934   0.00000  Uiso   1.00
C652   C     0.48009   0.84786   0.46086   0.00000  Uiso   1.00
C653   C     0.44088   0.86422   0.48324   0.00000  Uiso   1.00
C654   C     0.50726   0.83461   0.48046   0.00000  Uiso   1.00
C655   C     0.49229   0.83253   0.02198   0.00000  Uiso   1.00
C656   C     0.45247   0.84795   0.04319   0.00000  Uiso   1.00
C657   C     0.42729   0.86417   0.02461   0.00000  Uiso   1.00
C658   C     0.54986   0.82538   0.46000   0.00000  Uiso   1.00
C659   C     0.57630   0.81282   0.47914   0.00000  Uiso   1.00
C660   C     0.56137   0.80808   0.01939   0.00000  Uiso   1.00
C661   C     0.51870   0.81704   0.04120   0.00000  Uiso   1.00
C662   C     0.58942   0.79616   0.03840   0.00000  Uiso   1.00
C663   C     0.57579   0.79462   0.07937   0.00000  Uiso   1.00
C664   C     0.50486   0.81212   0.08188   0.00000  Uiso   1.00
H665   H     0.47272   0.81730   0.10025   0.00000  Uiso   1.00
H666   H     0.60900   0.80723   0.46198   0.00000  Uiso   1.00
H667   H     0.38831   0.89652   0.48009   0.00000  Uiso   1.00
H668   H     0.51810   0.82928   0.40112   0.00000  Uiso   1.00
H669   H     0.44014   0.84897   0.07481   0.00000  Uiso   1.00
H670   H     0.56486   0.82963   0.42929   0.00000  Uiso   1.00
C671   C     0.66055   0.84278   0.23727   0.00000  Uiso   1.00
H672   H     0.35053   0.85915   0.21393   0.00000  Uiso   1.00
C673   C     0.34036   0.82485   0.26240   0.00000  Uiso   1.00
H674   H     0.65100   0.80874   0.28623   0.00000  Uiso   1.00
C675   C     0.51373   0.98911   0.23966   0.00000  Uiso   1.00
H676   H     0.54247   0.67023   0.21928   0.00000  Uiso   1.00
C677   C     0.48318   0.67900   0.26323   0.00000  Uiso   1.00
N678   N     0.38746   0.87969   0.04853   0.00000  Uiso   1.00
O679   O     0.38637   0.90253   0.08179   0.00000  Uiso   1.00
O680   O     0.35108   0.86510   0.04091   0.00000  Uiso   1.00
O681   O     0.63242   0.79227   0.01808   0.00000  Uiso   1.00
C682   C     0.63676   0.75042   0.00218   0.00000  Uiso   1.00
H683   H     0.61290   0.73813   0.48533   0.00000  Uiso   1.00
H684   H     0.63250   0.73040   0.02608   0.00000  Uiso   1.00
C685   C     0.34880   0.74791   0.47400   0.00000  Uiso   1.00
H686   H     0.37347   0.75942   0.48998   0.00000  Uiso   1.00
H687   H     0.35298   0.71509   0.46144   0.00000  Uiso   1.00
H688   H     0.35382   0.76732   0.44947   0.00000  Uiso   1.00
O689   O     0.44425   0.99376   0.28668   0.00000  Uiso   1.00
C690   C     0.42577   0.68714   0.32056   0.00000  Uiso   1.00
H691   H     0.41136   0.71217   0.31227   0.00000  Uiso   1.00
H692   H     0.45030   0.70129   0.33612   0.00000  Uiso   1.00
C693   C     0.38989   0.99530   0.34908   0.00000  Uiso   1.00
H694   H     0.40342   0.97021   0.35812   0.00000  Uiso   1.00
H695   H     0.37494   0.68263   0.37581   0.00000  Uiso   1.00
H696   H     0.36451   0.98100   0.33473   0.00000  Uiso   1.00
O697   O     0.60589   0.78904   0.09809   0.00000  Uiso   1.00
C698   C     0.59565   0.74964   0.11280   0.00000  Uiso   1.00
H699   H     0.58628   0.72454   0.09120   0.00000  Uiso   1.00
H700   H     0.56878   0.75064   0.14073   0.00000  Uiso   1.00
C701   C     0.63518   0.73826   0.12171   0.00000  Uiso   1.00
H702   H     0.64474   0.76213   0.14399   0.00000  Uiso   1.00
H703   H     0.62755   0.70748   0.13356   0.00000  Uiso   1.00
H704   H     0.66267   0.73657   0.09428   0.00000  Uiso   1.00
O705   O     0.40294   0.89478   0.40443   0.00000  Uiso   1.00
C706   C     0.36560   0.86645   0.40453   0.00000  Uiso   1.00
H707   H     0.34527   0.86205   0.43525   0.00000  Uiso   1.00
H708   H     0.37470   0.83564   0.38857   0.00000  Uiso   1.00
C709   C     0.33845   0.88362   0.38362   0.00000  Uiso   1.00
H710   H     0.35775   0.88846   0.35282   0.00000  Uiso   1.00
H711   H     0.64266   0.86129   0.38297   0.00000  Uiso   1.00
H712   H     0.66122   0.91387   0.39947   0.00000  Uiso   1.00
Zn713  Zn    0.85910   0.80756   0.28278   0.00000  Uiso   1.00
Zn714  Zn    0.80125   0.79044   0.22258   0.00000  Uiso   1.00
Zn715  Zn    0.87833   0.86331   0.21188   0.00000  Uiso   1.00
Zn716  Zn    0.79465   0.87202   0.28277   0.00000  Uiso   1.00
O717   O     0.83333   0.83333   0.25000   0.00000  Uiso   1.00
O718   O     0.73656   0.85627   0.27820   0.00000  Uiso   1.00
O719   O     0.92106   0.81944   0.26768   0.00000  Uiso   1.00
O720   O     0.80467   0.73570   0.23607   0.00000  Uiso   1.00
O721   O     0.87104   0.92193   0.21806   0.00000  Uiso   1.00
O722   O     0.82360   0.79060   0.16625   0.00000  Uiso   1.00
O723   O     0.79354   0.87313   0.33749   0.00000  Uiso   1.00
O724   O     0.87755   0.84159   0.15877   0.00000  Uiso   1.00
O725   O     0.83865   0.82802   0.33749   0.00000  Uiso   1.00
O726   O     0.84515   0.74768   0.27821   0.00000  Uiso   1.00
O727   O     0.81247   0.92803   0.26767   0.00000  Uiso   1.00
O728   O     0.74119   0.79917   0.23607   0.00000  Uiso   1.00
O729   O     0.93452   0.85845   0.21806   0.00000  Uiso   1.00
C730   C     0.71914   0.82680   0.25876   0.00000  Uiso   1.00
C731   C     0.94778   0.84027   0.24111   0.00000  Uiso   1.00
C732   C     0.82292   0.72294   0.25860   0.00000  Uiso   1.00
C733   C     0.84330   0.94441   0.24147   0.00000  Uiso   1.00
C734   C     0.85529   0.81196   0.14394   0.00000  Uiso   1.00
C735   C     0.81140   0.85403   0.35636   0.00000  Uiso   1.00
C736   C     0.79895   0.86001   0.39999   0.00000  Uiso   1.00
C737   C     0.86685   0.80340   0.10102   0.00000  Uiso   1.00
C738   C     0.74989   0.88108   0.46374   0.00000  Uiso   1.00
C739   C     0.76138   0.87838   0.42249   0.00000  Uiso   1.00
C740   C     0.82414   0.84482   0.41934   0.00000  Uiso   1.00
C741   C     0.81342   0.84786   0.46086   0.00000  Uiso   1.00
C742   C     0.77421   0.86422   0.48324   0.00000  Uiso   1.00
C743   C     0.84060   0.83461   0.48046   0.00000  Uiso   1.00
C744   C     0.82562   0.83253   0.02198   0.00000  Uiso   1.00
C745   C     0.78580   0.84795   0.04319   0.00000  Uiso   1.00
C746   C     0.76063   0.86417   0.02461   0.00000  Uiso   1.00
C747   C     0.88320   0.82538   0.46000   0.00000  Uiso   1.00
C748   C     0.90963   0.81282   0.47914   0.00000  Uiso   1.00
C749   C     0.89470   0.80808   0.01939   0.00000  Uiso   1.00
C750   C     0.85204   0.81704   0.04120   0.00000  Uiso   1.00
C751   C     0.92275   0.79616   0.03840   0.00000  Uiso   1.00
C752   C     0.90912   0.79462   0.07937   0.00000  Uiso   1.00
C753   C     0.83819   0.81212   0.08188   0.00000  Uiso   1.00
H754   H     0.80605   0.81730   0.10025   0.00000  Uiso   1.00
H755   H     0.94234   0.80723   0.46198   0.00000  Uiso   1.00
H756   H     0.72164   0.89652   0.48009   0.00000  Uiso   1.00
H757   H     0.85143   0.82928   0.40112   0.00000  Uiso   1.00
H758   H     0.77347   0.84897   0.07481   0.00000  Uiso   1.00
H759   H     0.89819   0.82963   0.42929   0.00000  Uiso   1.00
C760   C     0.99389   0.84278   0.23727   0.00000  Uiso   1.00
H761   H     0.68386   0.85915   0.21393   0.00000  Uiso   1.00
C762   C     0.67369   0.82485   0.26240   0.00000  Uiso   1.00
H763   H     0.98433   0.80874   0.28623   0.00000  Uiso   1.00
C764   C     0.84706   0.98911   0.23966   0.00000  Uiso   1.00
H765   H     0.87580   0.67023   0.21928   0.00000  Uiso   1.00
C766   C     0.81652   0.67900   0.26323   0.00000  Uiso   1.00
N767   N     0.72079   0.87969   0.04853   0.00000  Uiso   1.00
O768   O     0.71970   0.90253   0.08179   0.00000  Uiso   1.00
O769   O     0.68441   0.86510   0.04091   0.00000  Uiso   1.00
O770   O     0.96576   0.79227   0.01808   0.00000  Uiso   1.00
C771   C     0.97009   0.75042   0.00218   0.00000  Uiso   1.00
H772   H     0.94624   0.73813   0.48533   0.00000  Uiso   1.00
H773   H     0.96584   0.73040   0.02608   0.00000  Uiso   1.00
C774   C     0.68213   0.74791   0.47400   0.00000  Uiso   1.00
H775   H     0.70680   0.75942   0.48998   0.00000  Uiso   1.00
H776   H     0.68631   0.71509   0.46144   0.00000  Uiso   1.00
H777   H     0.68716   0.76732   0.44947   0.00000  Uiso   1.00
O778   O     0.77758   0.99376   0.28668   0.00000  Uiso   1.00
C779   C     0.75910   0.68714   0.32056   0.00000  Uiso   1.00
H780   H     0.74469   0.71217   0.31227   0.00000  Uiso   1.00
H781   H     0.78363   0.70129   0.33612   0.00000  Uiso   1.00
C782   C     0.72322   0.99530   0.34908   0.00000  Uiso   1.00
H783   H     0.73675   0.97021   0.35812   0.00000  Uiso   1.00
H784   H     0.70827   0.68263   0.37581   0.00000  Uiso   1.00
H785   H     0.69784   0.98100   0.33473   0.00000  Uiso   1.00
O786   O     0.93923   0.78904   0.09809   0.00000  Uiso   1.00
C787   C     0.92899   0.74964   0.11280   0.00000  Uiso   1.00
H788   H     0.91961   0.72454   0.09120   0.00000  Uiso   1.00
H789   H     0.90211   0.75064   0.14073   0.00000  Uiso   1.00
C790   C     0.96851   0.73826   0.12171   0.00000  Uiso   1.00
H791   H     0.97808   0.76213   0.14399   0.00000  Uiso   1.00
H792   H     0.96089   0.70748   0.13356   0.00000  Uiso   1.00
H793   H     0.99601   0.73657   0.09428   0.00000  Uiso   1.00
O794   O     0.73627   0.89478   0.40443   0.00000  Uiso   1.00
C795   C     0.69894   0.86645   0.40453   0.00000  Uiso   1.00
H796   H     0.67860   0.86205   0.43525   0.00000  Uiso   1.00
H797   H     0.70803   0.83564   0.38857   0.00000  Uiso   1.00
C798   C     0.67179   0.88362   0.38362   0.00000  Uiso   1.00
H799   H     0.69108   0.88846   0.35282   0.00000  Uiso   1.00
H800   H     0.97600   0.86129   0.38297   0.00000  Uiso   1.00
H801   H     0.99455   0.91387   0.39947   0.00000  Uiso   1.00
Zn802  Zn    0.19244   0.14090   0.78278   0.00000  Uiso   1.00
Zn803  Zn    0.13459   0.12378   0.72258   0.00000  Uiso   1.00
Zn804  Zn    0.21166   0.19664   0.71188   0.00000  Uiso   1.00
Zn805  Zn    0.12798   0.20535   0.78277   0.00000  Uiso   1.00
O806   O     0.16667   0.16667   0.75000   0.00000  Uiso   1.00
O807   O     0.06990   0.18960   0.77820   0.00000  Uiso   1.00
O808   O     0.25440   0.15277   0.76768   0.00000  Uiso   1.00
O809   O     0.13800   0.06903   0.73607   0.00000  Uiso   1.00
O810   O     0.20437   0.25527   0.71806   0.00000  Uiso   1.00
O811   O     0.15693   0.12393   0.66625   0.00000  Uiso   1.00
O812   O     0.12687   0.20646   0.83749   0.00000  Uiso   1.00
O813   O     0.21088   0.17493   0.65877   0.00000  Uiso   1.00
O814   O     0.17198   0.16135   0.83749   0.00000  Uiso   1.00
O815   O     0.17849   0.08101   0.77821   0.00000  Uiso   1.00
O816   O     0.14581   0.26136   0.76767   0.00000  Uiso   1.00
O817   O     0.07452   0.13251   0.73607   0.00000  Uiso   1.00
O818   O     0.26785   0.19179   0.71806   0.00000  Uiso   1.00
C819   C     0.05248   0.16013   0.75876   0.00000  Uiso   1.00
C820   C     0.28112   0.17360   0.74111   0.00000  Uiso   1.00
C821   C     0.15625   0.05627   0.75860   0.00000  Uiso   1.00
C822   C     0.17664   0.27774   0.74147   0.00000  Uiso   1.00
C823   C     0.18863   0.14530   0.64394   0.00000  Uiso   1.00
C824   C     0.14473   0.18736   0.85636   0.00000  Uiso   1.00
C825   C     0.13228   0.19334   0.89999   0.00000  Uiso   1.00
C826   C     0.20019   0.13673   0.60102   0.00000  Uiso   1.00
C827   C     0.08323   0.21441   0.96374   0.00000  Uiso   1.00
C828   C     0.09471   0.21171   0.92249   0.00000  Uiso   1.00
C829   C     0.15748   0.17815   0.91934   0.00000  Uiso   1.00
C830   C     0.14676   0.18119   0.96086   0.00000  Uiso   1.00
C831   C     0.10754   0.19755   0.98324   0.00000  Uiso   1.00
C832   C     0.17393   0.16795   0.98046   0.00000  Uiso   1.00
C833   C     0.15896   0.16586   0.52198   0.00000  Uiso   1.00
C834   C     0.11914   0.18128   0.54319   0.00000  Uiso   1.00
C835   C     0.09396   0.19751   0.52461   0.00000  Uiso   1.00
C836   C     0.21653   0.15871   0.96000   0.00000  Uiso   1.00
C837   C     0.24297   0.14616   0.97914   0.00000  Uiso   1.00
C838   C     0.22803   0.14141   0.51939   0.00000  Uiso   1.00
C839   C     0.18537   0.15038   0.54120   0.00000  Uiso   1.00
C840   C     0.25608   0.12949   0.53840   0.00000  Uiso   1.00
C841   C     0.24245   0.12796   0.57937   0.00000  Uiso   1.00
C842   C     0.17152   0.14545   0.58188   0.00000  Uiso   1.00
H843   H     0.13939   0.15063   0.60025   0.00000  Uiso   1.00
H844   H     0.27567   0.14056   0.96198   0.00000  Uiso   1.00
H845   H     0.05498   0.22985   0.98009   0.00000  Uiso   1.00
H846   H     0.18477   0.16262   0.90112   0.00000  Uiso   1.00
H847   H     0.10680   0.18230   0.57481   0.00000  Uiso   1.00
H848   H     0.23153   0.16297   0.92929   0.00000  Uiso   1.00
C849   C     0.32722   0.17611   0.73727   0.00000  Uiso   1.00
H850   H     0.01719   0.19248   0.71393   0.00000  Uiso   1.00
C851   C     0.00703   0.15818   0.76240   0.00000  Uiso   1.00
H852   H     0.31767   0.14208   0.78623   0.00000  Uiso   1.00
C853   C     0.18040   0.32245   0.73966   0.00000  Uiso   1.00
H854   H     0.20913   0.00357   0.71928   0.00000  Uiso   1.00
C855   C     0.14985   0.01233   0.76323   0.00000  Uiso   1.00
N856   N     0.05413   0.21302   0.54853   0.00000  Uiso   1.00
O857   O     0.05304   0.23586   0.58179   0.00000  Uiso   1.00
O858   O     0.01775   0.19843   0.54091   0.00000  Uiso   1.00
O859   O     0.29909   0.12561   0.51808   0.00000  Uiso   1.00
C860   C     0.30342   0.08375   0.50218   0.00000  Uiso   1.00
H861   H     0.27957   0.07147   0.98533   0.00000  Uiso   1.00
H862   H     0.29917   0.06374   0.52608   0.00000  Uiso   1.00
C863   C     0.01546   0.08125   0.97400   0.00000  Uiso   1.00
H864   H     0.04014   0.09275   0.98998   0.00000  Uiso   1.00
H865   H     0.01964   0.04842   0.96144   0.00000  Uiso   1.00
H866   H     0.02049   0.10065   0.94947   0.00000  Uiso   1.00
O867   O     0.11091   0.32709   0.78668   0.00000  Uiso   1.00
C868   C     0.09243   0.02048   0.82056   0.00000  Uiso   1.00
H869   H     0.07803   0.04550   0.81227   0.00000  Uiso   1.00
H870   H     0.11697   0.03462   0.83612   0.00000  Uiso   1.00
C871   C     0.05656   0.32863   0.84908   0.00000  Uiso   1.00
H872   H     0.07009   0.30354   0.85812   0.00000  Uiso   1.00
H873   H     0.04160   0.01596   0.87581   0.00000  Uiso   1.00
H874   H     0.03117   0.31433   0.83473   0.00000  Uiso   1.00
O875   O     0.27256   0.12237   0.59809   0.00000  Uiso   1.00
C876   C     0.26232   0.08297   0.61280   0.00000  Uiso   1.00
H877   H     0.25295   0.05787   0.59120   0.00000  Uiso   1.00
H878   H     0.23544   0.08397   0.64073   0.00000  Uiso   1.00
C879   C     0.30185   0.07160   0.62171   0.00000  Uiso   1.00
H880   H     0.31141   0.09547   0.64399   0.00000  Uiso   1.00
H881   H     0.29422   0.04081   0.63356   0.00000  Uiso   1.00
H882   H     0.32934   0.06990   0.59428   0.00000  Uiso   1.00
O883   O     0.06960   0.22812   0.90443   0.00000  Uiso   1.00
C884   C     0.03227   0.19978   0.90453   0.00000  Uiso   1.00
H885   H     0.01193   0.19538   0.93525   0.00000  Uiso   1.00
H886   H     0.04137   0.16897   0.88857   0.00000  Uiso   1.00
C887   C     0.00512   0.21696   0.88362   0.00000  Uiso   1.00
H888   H     0.02442   0.22179   0.85282   0.00000  Uiso   1.00
H889   H     0.30933   0.19463   0.88297   0.00000  Uiso   1.00
H890   H     0.32788   0.24720   0.89947   0.00000  Uiso   1.00
Zn891  Zn    0.52577   0.14090   0.78278   0.00000  Uiso   1.00
Zn892  Zn    0.46792   0.12378   0.72258   0.00000  Uiso   1.00
Zn893  Zn    0.54500   0.19664   0.71188   0.00000  Uiso   1.00
Zn894  Zn    0.46131   0.20535   0.78277   0.00000  Uiso   1.00
O895   O     0.50000   0.16667   0.75000   0.00000  Uiso   1.00
O896   O     0.40323   0.18960   0.77820   0.00000  Uiso   1.00
O897   O     0.58773   0.15277   0.76768   0.00000  Uiso   1.00
O898   O     0.47133   0.06903   0.73607   0.00000  Uiso   1.00
O899   O     0.53771   0.25527   0.71806   0.00000  Uiso   1.00
O900   O     0.49027   0.12393   0.66625   0.00000  Uiso   1.00
O901   O     0.46020   0.20646   0.83749   0.00000  Uiso   1.00
O902   O     0.54421   0.17493   0.65877   0.00000  Uiso   1.00
O903   O     0.50532   0.16135   0.83749   0.00000  Uiso   1.00
O904   O     0.51182   0.08101   0.77821   0.00000  Uiso   1.00
O905   O     0.47914   0.26136   0.76767   0.00000  Uiso   1.00
O906   O     0.40785   0.13251   0.73607   0.00000  Uiso   1.00
O907   O     0.60119   0.19179   0.71806   0.00000  Uiso   1.00
C908   C     0.38581   0.16013   0.75876   0.00000  Uiso   1.00
C909   C     0.61445   0.17360   0.74111   0.00000  Uiso   1.00
C910   C     0.48958   0.05627   0.75860   0.00000  Uiso   1.00
C911   C     0.50997   0.27774   0.74147   0.00000  Uiso   1.00
C912   C     0.52196   0.14530   0.64394   0.00000  Uiso   1.00
C913   C     0.47806   0.18736   0.85636   0.00000  Uiso   1.00
C914   C     0.46561   0.19334   0.89999   0.00000  Uiso   1.00
C915   C     0.53352   0.13673   0.60102   0.00000  Uiso   1.00
C916   C     0.41656   0.21441   0.96374   0.00000  Uiso   1.00
C917   C     0.42805   0.21171   0.92249   0.00000  Uiso   1.00
C918   C     0.49081   0.17815   0.91934   0.00000  Uiso   1.00
C919   C     0.48009   0.18119   0.96086   0.00000  Uiso   1.00
C920   C     0.44088   0.19755   0.98324   0.00000  Uiso   1.00
C921   C     0.50726   0.16795   0.98046   0.00000  Uiso   1.00
C922   C     0.49229   0.16586   0.52198   0.00000  Uiso   1.00
C923   C     0.45247   0.18128   0.54319   0.00000  Uiso   1.00
C924   C     0.42729   0.19751   0.52461   0.00000  Uiso   1.00
C925   C     0.54986   0.15871   0.96000   0.00000  Uiso   1.00
C926   C     0.57630   0.14616   0.97914   0.00000  Uiso   1.00
C927   C     0.56137   0.14141   0.51939   0.00000  Uiso   1.00
C928   C     0.51870   0.15038   0.54120   0.00000  Uiso   1.00
C929   C     0.58942   0.12949   0.53840   0.00000  Uiso   1.00
C930   C     0.57579   0.12796   0.57937   0.00000  Uiso   1.00
C931   C     0.50486   0.14545   0.58188   0.00000  Uiso   1.00
H932   H     0.47272   0.15063   0.60025   0.00000  Uiso   1.00
H933   H     0.60900   0.14056   0.96198   0.00000  Uiso   1.00
H934   H     0.38831   0.22985   0.98009   0.00000  Uiso   1.00
H935   H     0.51810   0.16262   0.90112   0.00000  Uiso   1.00
H936   H     0.44014   0.18230   0.57481   0.00000  Uiso   1.00
H937   H     0.56486   0.16297   0.92929   0.00000  Uiso   1.00
C938   C     0.66055   0.17611   0.73727   0.00000  Uiso   1.00
H939   H     0.35053   0.19248   0.71393   0.00000  Uiso   1.00
C940   C     0.34036   0.15818   0.76240   0.00000  Uiso   1.00
H941   H     0.65100   0.14208   0.78623   0.00000  Uiso   1.00
C942   C     0.51373   0.32245   0.73966   0.00000  Uiso   1.00
H943   H     0.54247   0.00357   0.71928   0.00000  Uiso   1.00
C944   C     0.48318   0.01233   0.76323   0.00000  Uiso   1.00
N945   N     0.38746   0.21302   0.54853   0.00000  Uiso   1.00
O946   O     0.38637   0.23586   0.58179   0.00000  Uiso   1.00
O947   O     0.35108   0.19843   0.54091   0.00000  Uiso   1.00
O948   O     0.63242   0.12561   0.51808   0.00000  Uiso   1.00
C949   C     0.63676   0.08375   0.50218   0.00000  Uiso   1.00
H950   H     0.61290   0.07147   0.98533   0.00000  Uiso   1.00
H951   H     0.63250   0.06374   0.52608   0.00000  Uiso   1.00
C952   C     0.34880   0.08125   0.97400   0.00000  Uiso   1.00
H953   H     0.37347   0.09275   0.98998   0.00000  Uiso   1.00
H954   H     0.35298   0.04842   0.96144   0.00000  Uiso   1.00
H955   H     0.35382   0.10065   0.94947   0.00000  Uiso   1.00
O956   O     0.44425   0.32709   0.78668   0.00000  Uiso   1.00
C957   C     0.42577   0.02048   0.82056   0.00000  Uiso   1.00
H958   H     0.41136   0.04550   0.81227   0.00000  Uiso   1.00
H959   H     0.45030   0.03462   0.83612   0.00000  Uiso   1.00
C960   C     0.38989   0.32863   0.84908   0.00000  Uiso   1.00
H961   H     0.40342   0.30354   0.85812   0.00000  Uiso   1.00
H962   H     0.37494   0.01596   0.87581   0.00000  Uiso   1.00
H963   H     0.36451   0.31433   0.83473   0.00000  Uiso   1.00
O964   O     0.60589   0.12237   0.59809   0.00000  Uiso   1.00
C965   C     0.59565   0.08297   0.61280   0.00000  Uiso   1.00
H966   H     0.58628   0.05787   0.59120   0.00000  Uiso   1.00
H967   H     0.56878   0.08397   0.64073   0.00000  Uiso   1.00
C968   C     0.63518   0.07160   0.62171   0.00000  Uiso   1.00
H969   H     0.64474   0.09547   0.64399   0.00000  Uiso   1.00
H970   H     0.62755   0.04081   0.63356   0.00000  Uiso   1.00
H971   H     0.66267   0.06990   0.59428   0.00000  Uiso   1.00
O972   O     0.40294   0.22812   0.90443   0.00000  Uiso   1.00
C973   C     0.36560   0.19978   0.90453   0.00000  Uiso   1.00
H974   H     0.34527   0.19538   0.93525   0.00000  Uiso   1.00
H975   H     0.37470   0.16897   0.88857   0.00000  Uiso   1.00
C976   C     0.33845   0.21696   0.88362   0.00000  Uiso   1.00
H977   H     0.35775   0.22179   0.85282   0.00000  Uiso   1.00
H978   H     0.64266   0.19463   0.88297   0.00000  Uiso   1.00
H979   H     0.66122   0.24720   0.89947   0.00000  Uiso   1.00
Zn980  Zn    0.85910   0.14090   0.78278   0.00000  Uiso   1.00
Zn981  Zn    0.80125   0.12378   0.72258   0.00000  Uiso   1.00
Zn982  Zn    0.87833   0.19664   0.71188   0.00000  Uiso   1.00
Zn983  Zn    0.79465   0.20535   0.78277   0.00000  Uiso   1.00
O984   O     0.83333   0.16667   0.75000   0.00000  Uiso   1.00
O985   O     0.73656   0.18960   0.77820   0.00000  Uiso   1.00
O986   O     0.92106   0.15277   0.76768   0.00000  Uiso   1.00
O987   O     0.80467   0.06903   0.73607   0.00000  Uiso   1.00
O988   O     0.87104   0.25527   0.71806   0.00000  Uiso   1.00
O989   O     0.82360   0.12393   0.66625   0.00000  Uiso   1.00
O990   O     0.79354   0.20646   0.83749   0.00000  Uiso   1.00
O991   O     0.87755   0.17493   0.65877   0.00000  Uiso   1.00
O992   O     0.83865   0.16135   0.83749   0.00000  Uiso   1.00
O993   O     0.84515   0.08101   0.77821   0.00000  Uiso   1.00
O994   O     0.81247   0.26136   0.76767   0.00000  Uiso   1.00
O995   O     0.74119   0.13251   0.73607   0.00000  Uiso   1.00
O996   O     0.93452   0.19179   0.71806   0.00000  Uiso   1.00
C997   C     0.71914   0.16013   0.75876   0.00000  Uiso   1.00
C998   C     0.94778   0.17360   0.74111   0.00000  Uiso   1.00
C999   C     0.82292   0.05627   0.75860   0.00000  Uiso   1.00
C1000  C     0.84330   0.27774   0.74147   0.00000  Uiso   1.00
C1001  C     0.85529   0.14530   0.64394   0.00000  Uiso   1.00
C1002  C     0.81140   0.18736   0.85636   0.00000  Uiso   1.00
C1003  C     0.79895   0.19334   0.89999   0.00000  Uiso   1.00
C1004  C     0.86685   0.13673   0.60102   0.00000  Uiso   1.00
C1005  C     0.74989   0.21441   0.96374   0.00000  Uiso   1.00
C1006  C     0.76138   0.21171   0.92249   0.00000  Uiso   1.00
C1007  C     0.82414   0.17815   0.91934   0.00000  Uiso   1.00
C1008  C     0.81342   0.18119   0.96086   0.00000  Uiso   1.00
C1009  C     0.77421   0.19755   0.98324   0.00000  Uiso   1.00
C1010  C     0.84060   0.16795   0.98046   0.00000  Uiso   1.00
C1011  C     0.82562   0.16586   0.52198   0.00000  Uiso   1.00
C1012  C     0.78580   0.18128   0.54319   0.00000  Uiso   1.00
C1013  C     0.76063   0.19751   0.52461   0.00000  Uiso   1.00
C1014  C     0.88320   0.15871   0.96000   0.00000  Uiso   1.00
C1015  C     0.90963   0.14616   0.97914   0.00000  Uiso   1.00
C1016  C     0.89470   0.14141   0.51939   0.00000  Uiso   1.00
C1017  C     0.85204   0.15038   0.54120   0.00000  Uiso   1.00
C1018  C     0.92275   0.12949   0.53840   0.00000  Uiso   1.00
C1019  C     0.90912   0.12796   0.57937   0.00000  Uiso   1.00
C1020  C     0.83819   0.14545   0.58188   0.00000  Uiso   1.00
H1021  H     0.80605   0.15063   0.60025   0.00000  Uiso   1.00
H1022  H     0.94234   0.14056   0.96198   0.00000  Uiso   1.00
H1023  H     0.72164   0.22985   0.98009   0.00000  Uiso   1.00
H1024  H     0.85143   0.16262   0.90112   0.00000  Uiso   1.00
H1025  H     0.77347   0.18230   0.57481   0.00000  Uiso   1.00
H1026  H     0.89819   0.16297   0.92929   0.00000  Uiso   1.00
C1027  C     0.99389   0.17611   0.73727   0.00000  Uiso   1.00
H1028  H     0.68386   0.19248   0.71393   0.00000  Uiso   1.00
C1029  C     0.67369   0.15818   0.76240   0.00000  Uiso   1.00
H1030  H     0.98433   0.14208   0.78623   0.00000  Uiso   1.00
C1031  C     0.84706   0.32245   0.73966   0.00000  Uiso   1.00
H1032  H     0.87580   0.00357   0.71928   0.00000  Uiso   1.00
C1033  C     0.81652   0.01233   0.76323   0.00000  Uiso   1.00
N1034  N     0.72079   0.21302   0.54853   0.00000  Uiso   1.00
O1035  O     0.71970   0.23586   0.58179   0.00000  Uiso   1.00
O1036  O     0.68441   0.19843   0.54091   0.00000  Uiso   1.00
O1037  O     0.96576   0.12561   0.51808   0.00000  Uiso   1.00
C1038  C     0.97009   0.08375   0.50218   0.00000  Uiso   1.00
H1039  H     0.94624   0.07147   0.98533   0.00000  Uiso   1.00
H1040  H     0.96584   0.06374   0.52608   0.00000  Uiso   1.00
C1041  C     0.68213   0.08125   0.97400   0.00000  Uiso   1.00
H1042  H     0.70680   0.09275   0.98998   0.00000  Uiso   1.00
H1043  H     0.68631   0.04842   0.96144   0.00000  Uiso   1.00
H1044  H     0.68716   0.10065   0.94947   0.00000  Uiso   1.00
O1045  O     0.77758   0.32709   0.78668   0.00000  Uiso   1.00
C1046  C     0.75910   0.02048   0.82056   0.00000  Uiso   1.00
H1047  H     0.74469   0.04550   0.81227   0.00000  Uiso   1.00
H1048  H     0.78363   0.03462   0.83612   0.00000  Uiso   1.00
C1049  C     0.72322   0.32863   0.84908   0.00000  Uiso   1.00
H1050  H     0.73675   0.30354   0.85812   0.00000  Uiso   1.00
H1051  H     0.70827   0.01596   0.87581   0.00000  Uiso   1.00
H1052  H     0.69784   0.31433   0.83473   0.00000  Uiso   1.00
O1053  O     0.93923   0.12237   0.59809   0.00000  Uiso   1.00
C1054  C     0.92899   0.08297   0.61280   0.00000  Uiso   1.00
H1055  H     0.91961   0.05787   0.59120   0.00000  Uiso   1.00
H1056  H     0.90211   0.08397   0.64073   0.00000  Uiso   1.00
C1057  C     0.96851   0.07160   0.62171   0.00000  Uiso   1.00
H1058  H     0.97808   0.09547   0.64399   0.00000  Uiso   1.00
H1059  H     0.96089   0.04081   0.63356   0.00000  Uiso   1.00
H1060  H     0.99601   0.06990   0.59428   0.00000  Uiso   1.00
O1061  O     0.73627   0.22812   0.90443   0.00000  Uiso   1.00
C1062  C     0.69894   0.19978   0.90453   0.00000  Uiso   1.00
H1063  H     0.67860   0.19538   0.93525   0.00000  Uiso   1.00
H1064  H     0.70803   0.16897   0.88857   0.00000  Uiso   1.00
C1065  C     0.67179   0.21696   0.88362   0.00000  Uiso   1.00
H1066  H     0.69108   0.22179   0.85282   0.00000  Uiso   1.00
H1067  H     0.97600   0.19463   0.88297   0.00000  Uiso   1.00
H1068  H     0.99455   0.24720   0.89947   0.00000  Uiso   1.00
Zn1069 Zn    0.19244   0.47423   0.78278   0.00000  Uiso   1.00
Zn1070 Zn    0.13459   0.45711   0.72258   0.00000  Uiso   1.00
Zn1071 Zn    0.21166   0.52997   0.71188   0.00000  Uiso   1.00
Zn1072 Zn    0.12798   0.53868   0.78277   0.00000  Uiso   1.00
O1073  O     0.16667   0.50000   0.75000   0.00000  Uiso   1.00
O1074  O     0.06990   0.52293   0.77820   0.00000  Uiso   1.00
O1075  O     0.25440   0.48610   0.76768   0.00000  Uiso   1.00
O1076  O     0.13800   0.40236   0.73607   0.00000  Uiso   1.00
O1077  O     0.20437   0.58860   0.71806   0.00000  Uiso   1.00
O1078  O     0.15693   0.45726   0.66625   0.00000  Uiso   1.00
O1079  O     0.12687   0.53979   0.83749   0.00000  Uiso   1.00
O1080  O     0.21088   0.50826   0.65877   0.00000  Uiso   1.00
O1081  O     0.17198   0.49468   0.83749   0.00000  Uiso   1.00
O1082  O     0.17849   0.41434   0.77821   0.00000  Uiso   1.00
O1083  O     0.14581   0.59469   0.76767   0.00000  Uiso   1.00
O1084  O     0.07452   0.46584   0.73607   0.00000  Uiso   1.00
O1085  O     0.26785   0.52512   0.71806   0.00000  Uiso   1.00
C1086  C     0.05248   0.49347   0.75876   0.00000  Uiso   1.00
C1087  C     0.28112   0.50694   0.74111   0.00000  Uiso   1.00
C1088  C     0.15625   0.38961   0.75860   0.00000  Uiso   1.00
C1089  C     0.17664   0.61107   0.74147   0.00000  Uiso   1.00
C1090  C     0.18863   0.47863   0.64394   0.00000  Uiso   1.00
C1091  C     0.14473   0.52070   0.85636   0.00000  Uiso   1.00
C1092  C     0.13228   0.52667   0.89999   0.00000  Uiso   1.00
C1093  C     0.20019   0.47006   0.60102   0.00000  Uiso   1.00
C1094  C     0.08323   0.54774   0.96374   0.00000  Uiso   1.00
C1095  C     0.09471   0.54504   0.92249   0.00000  Uiso   1.00
C1096  C     0.15748   0.51148   0.91934   0.00000  Uiso   1.00
C1097  C     0.14676   0.51453   0.96086   0.00000  Uiso   1.00
C1098  C     0.10754   0.53089   0.98324   0.00000  Uiso   1.00
C1099  C     0.17393   0.50128   0.98046   0.00000  Uiso   1.00
C1100  C     0.15896   0.49919   0.52198   0.00000  Uiso   1.00
C1101  C     0.11914   0.51462   0.54319   0.00000  Uiso   1.00
C1102  C     0.09396   0.53084   0.52461   0.00000  Uiso   1.00
C1103  C     0.21653   0.49204   0.96000   0.00000  Uiso   1.00
C1104  C     0.24297   0.47949   0.97914   0.00000  Uiso   1.00
C1105  C     0.22803   0.47474   0.51939   0.00000  Uiso   1.00
C1106  C     0.18537   0.48371   0.54120   0.00000  Uiso   1.00
C1107  C     0.25608   0.46282   0.53840   0.00000  Uiso   1.00
C1108  C     0.24245   0.46129   0.57937   0.00000  Uiso   1.00
C1109  C     0.17152   0.47878   0.58188   0.00000  Uiso   1.00
H1110  H     0.13939   0.48396   0.60025   0.00000  Uiso   1.00
H1111  H     0.27567   0.47389   0.96198   0.00000  Uiso   1.00
H1112  H     0.05498   0.56319   0.98009   0.00000  Uiso   1.00
H1113  H     0.18477   0.49595   0.90112   0.00000  Uiso   1.00
H1114  H     0.10680   0.51563   0.57481   0.00000  Uiso   1.00
H1115  H     0.23153   0.49630   0.92929   0.00000  Uiso   1.00
C1116  C     0.32722   0.50945   0.73727   0.00000  Uiso   1.00
H1117  H     0.01719   0.52582   0.71393   0.00000  Uiso   1.00
C1118  C     0.00703   0.49151   0.76240   0.00000  Uiso   1.00
H1119  H     0.31767   0.47541   0.78623   0.00000  Uiso   1.00
C1120  C     0.18040   0.65578   0.73966   0.00000  Uiso   1.00
H1121  H     0.20913   0.33690   0.71928   0.00000  Uiso   1.00
C1122  C     0.14985   0.34567   0.76323   0.00000  Uiso   1.00
N1123  N     0.05413   0.54635   0.54853   0.00000  Uiso   1.00
O1124  O     0.05304   0.56919   0.58179   0.00000  Uiso   1.00
O1125  O     0.01775   0.53176   0.54091   0.00000  Uiso   1.00
O1126  O     0.29909   0.45894   0.51808   0.00000  Uiso   1.00
C1127  C     0.30342   0.41709   0.50218   0.00000  Uiso   1.00
H1128  H     0.27957   0.40480   0.98533   0.00000  Uiso   1.00
H1129  H     0.29917   0.39707   0.52608   0.00000  Uiso   1.00
C1130  C     0.01546   0.41458   0.97400   0.00000  Uiso   1.00
H1131  H     0.04014   0.42608   0.98998   0.00000  Uiso   1.00
H1132  H     0.01964   0.38175   0.96144   0.00000  Uiso   1.00
H1133  H     0.02049   0.43398   0.94947   0.00000  Uiso   1.00
O1134  O     0.11091   0.66042   0.78668   0.00000  Uiso   1.00
C1135  C     0.09243   0.35381   0.82056   0.00000  Uiso   1.00
H1136  H     0.07803   0.37883   0.81227   0.00000  Uiso   1.00
H1137  H     0.11697   0.36795   0.83612   0.00000  Uiso   1.00
C1138  C     0.05656   0.66196   0.84908   0.00000  Uiso   1.00
H1139  H     0.07009   0.63687   0.85812   0.00000  Uiso   1.00
H1140  H     0.04160   0.34929   0.87581   0.00000  Uiso   1.00
H1141  H     0.03117   0.64766   0.83473   0.00000  Uiso   1.00
O1142  O     0.27256   0.45570   0.59809   0.00000  Uiso   1.00
C1143  C     0.26232   0.41630   0.61280   0.00000  Uiso   1.00
H1144  H     0.25295   0.39120   0.59120   0.00000  Uiso   1.00
H1145  H     0.23544   0.41731   0.64073   0.00000  Uiso   1.00
C1146  C     0.30185   0.40493   0.62171   0.00000  Uiso   1.00
H1147  H     0.31141   0.42880   0.64399   0.00000  Uiso   1.00
H1148  H     0.29422   0.37415   0.63356   0.00000  Uiso   1.00
H1149  H     0.32934   0.40324   0.59428   0.00000  Uiso   1.00
O1150  O     0.06960   0.56145   0.90443   0.00000  Uiso   1.00
C1151  C     0.03227   0.53312   0.90453   0.00000  Uiso   1.00
H1152  H     0.01193   0.52871   0.93525   0.00000  Uiso   1.00
H1153  H     0.04137   0.50231   0.88857   0.00000  Uiso   1.00
C1154  C     0.00512   0.55029   0.88362   0.00000  Uiso   1.00
H1155  H     0.02442   0.55512   0.85282   0.00000  Uiso   1.00
H1156  H     0.30933   0.52796   0.88297   0.00000  Uiso   1.00
H1157  H     0.32788   0.58054   0.89947   0.00000  Uiso   1.00
Zn1158 Zn    0.52577   0.47423   0.78278   0.00000  Uiso   1.00
Zn1159 Zn    0.46792   0.45711   0.72258   0.00000  Uiso   1.00
Zn1160 Zn    0.54500   0.52997   0.71188   0.00000  Uiso   1.00
Zn1161 Zn    0.46131   0.53868   0.78277   0.00000  Uiso   1.00
O1162  O     0.50000   0.50000   0.75000   0.00000  Uiso   1.00
O1163  O     0.40323   0.52293   0.77820   0.00000  Uiso   1.00
O1164  O     0.58773   0.48610   0.76768   0.00000  Uiso   1.00
O1165  O     0.47133   0.40236   0.73607   0.00000  Uiso   1.00
O1166  O     0.53771   0.58860   0.71806   0.00000  Uiso   1.00
O1167  O     0.49027   0.45726   0.66625   0.00000  Uiso   1.00
O1168  O     0.46020   0.53979   0.83749   0.00000  Uiso   1.00
O1169  O     0.54421   0.50826   0.65877   0.00000  Uiso   1.00
O1170  O     0.50532   0.49468   0.83749   0.00000  Uiso   1.00
O1171  O     0.51182   0.41434   0.77821   0.00000  Uiso   1.00
O1172  O     0.47914   0.59469   0.76767   0.00000  Uiso   1.00
O1173  O     0.40785   0.46584   0.73607   0.00000  Uiso   1.00
O1174  O     0.60119   0.52512   0.71806   0.00000  Uiso   1.00
C1175  C     0.38581   0.49347   0.75876   0.00000  Uiso   1.00
C1176  C     0.61445   0.50694   0.74111   0.00000  Uiso   1.00
C1177  C     0.48958   0.38961   0.75860   0.00000  Uiso   1.00
C1178  C     0.50997   0.61107   0.74147   0.00000  Uiso   1.00
C1179  C     0.52196   0.47863   0.64394   0.00000  Uiso   1.00
C1180  C     0.47806   0.52070   0.85636   0.00000  Uiso   1.00
C1181  C     0.46561   0.52667   0.89999   0.00000  Uiso   1.00
C1182  C     0.53352   0.47006   0.60102   0.00000  Uiso   1.00
C1183  C     0.41656   0.54774   0.96374   0.00000  Uiso   1.00
C1184  C     0.42805   0.54504   0.92249   0.00000  Uiso   1.00
C1185  C     0.49081   0.51148   0.91934   0.00000  Uiso   1.00
C1186  C     0.48009   0.51453   0.96086   0.00000  Uiso   1.00
C1187  C     0.44088   0.53089   0.98324   0.00000  Uiso   1.00
C1188  C     0.50726   0.50128   0.98046   0.00000  Uiso   1.00
C1189  C     0.49229   0.49919   0.52198   0.00000  Uiso   1.00
C1190  C     0.45247   0.51462   0.54319   0.00000  Uiso   1.00
C1191  C     0.42729   0.53084   0.52461   0.00000  Uiso   1.00
C1192  C     0.54986   0.49204   0.96000   0.00000  Uiso   1.00
C1193  C     0.57630   0.47949   0.97914   0.00000  Uiso   1.00
C1194  C     0.56137   0.47474   0.51939   0.00000  Uiso   1.00
C1195  C     0.51870   0.48371   0.54120   0.00000  Uiso   1.00
C1196  C     0.58942   0.46282   0.53840   0.00000  Uiso   1.00
C1197  C     0.57579   0.46129   0.57937   0.00000  Uiso   1.00
C1198  C     0.50486   0.47878   0.58188   0.00000  Uiso   1.00
H1199  H     0.47272   0.48396   0.60025   0.00000  Uiso   1.00
H1200  H     0.60900   0.47389   0.96198   0.00000  Uiso   1.00
H1201  H     0.38831   0.56319   0.98009   0.00000  Uiso   1.00
H1202  H     0.51810   0.49595   0.90112   0.00000  Uiso   1.00
H1203  H     0.44014   0.51563   0.57481   0.00000  Uiso   1.00
H1204  H     0.56486   0.49630   0.92929   0.00000  Uiso   1.00
C1205  C     0.66055   0.50945   0.73727   0.00000  Uiso   1.00
H1206  H     0.35053   0.52582   0.71393   0.00000  Uiso   1.00
C1207  C     0.34036   0.49151   0.76240   0.00000  Uiso   1.00
H1208  H     0.65100   0.47541   0.78623   0.00000  Uiso   1.00
C1209  C     0.51373   0.65578   0.73966   0.00000  Uiso   1.00
H1210  H     0.54247   0.33690   0.71928   0.00000  Uiso   1.00
C1211  C     0.48318   0.34567   0.76323   0.00000  Uiso   1.00
N1212  N     0.38746   0.54635   0.54853   0.00000  Uiso   1.00
O1213  O     0.38637   0.56919   0.58179   0.00000  Uiso   1.00
O1214  O     0.35108   0.53176   0.54091   0.00000  Uiso   1.00
O1215  O     0.63242   0.45894   0.51808   0.00000  Uiso   1.00
C1216  C     0.63676   0.41709   0.50218   0.00000  Uiso   1.00
H1217  H     0.61290   0.40480   0.98533   0.00000  Uiso   1.00
H1218  H     0.63250   0.39707   0.52608   0.00000  Uiso   1.00
C1219  C     0.34880   0.41458   0.97400   0.00000  Uiso   1.00
H1220  H     0.37347   0.42608   0.98998   0.00000  Uiso   1.00
H1221  H     0.35298   0.38175   0.96144   0.00000  Uiso   1.00
H1222  H     0.35382   0.43398   0.94947   0.00000  Uiso   1.00
O1223  O     0.44425   0.66042   0.78668   0.00000  Uiso   1.00
C1224  C     0.42577   0.35381   0.82056   0.00000  Uiso   1.00
H1225  H     0.41136   0.37883   0.81227   0.00000  Uiso   1.00
H1226  H     0.45030   0.36795   0.83612   0.00000  Uiso   1.00
C1227  C     0.38989   0.66196   0.84908   0.00000  Uiso   1.00
H1228  H     0.40342   0.63687   0.85812   0.00000  Uiso   1.00
H1229  H     0.37494   0.34929   0.87581   0.00000  Uiso   1.00
H1230  H     0.36451   0.64766   0.83473   0.00000  Uiso   1.00
O1231  O     0.60589   0.45570   0.59809   0.00000  Uiso   1.00
C1232  C     0.59565   0.41630   0.61280   0.00000  Uiso   1.00
H1233  H     0.58628   0.39120   0.59120   0.00000  Uiso   1.00
H1234  H     0.56878   0.41731   0.64073   0.00000  Uiso   1.00
C1235  C     0.63518   0.40493   0.62171   0.00000  Uiso   1.00
H1236  H     0.64474   0.42880   0.64399   0.00000  Uiso   1.00
H1237  H     0.62755   0.37415   0.63356   0.00000  Uiso   1.00
H1238  H     0.66267   0.40324   0.59428   0.00000  Uiso   1.00
O1239  O     0.40294   0.56145   0.90443   0.00000  Uiso   1.00
C1240  C     0.36560   0.53312   0.90453   0.00000  Uiso   1.00
H1241  H     0.34527   0.52871   0.93525   0.00000  Uiso   1.00
H1242  H     0.37470   0.50231   0.88857   0.00000  Uiso   1.00
C1243  C     0.33845   0.55029   0.88362   0.00000  Uiso   1.00
H1244  H     0.35775   0.55512   0.85282   0.00000  Uiso   1.00
H1245  H     0.64266   0.52796   0.88297   0.00000  Uiso   1.00
H1246  H     0.66122   0.58054   0.89947   0.00000  Uiso   1.00
Zn1247 Zn    0.85910   0.47423   0.78278   0.00000  Uiso   1.00
Zn1248 Zn    0.80125   0.45711   0.72258   0.00000  Uiso   1.00
Zn1249 Zn    0.87833   0.52997   0.71188   0.00000  Uiso   1.00
Zn1250 Zn    0.79465   0.53868   0.78277   0.00000  Uiso   1.00
O1251  O     0.83333   0.50000   0.75000   0.00000  Uiso   1.00
O1252  O     0.73656   0.52293   0.77820   0.00000  Uiso   1.00
O1253  O     0.92106   0.48610   0.76768   0.00000  Uiso   1.00
O1254  O     0.80467   0.40236   0.73607   0.00000  Uiso   1.00
O1255  O     0.87104   0.58860   0.71806   0.00000  Uiso   1.00
O1256  O     0.82360   0.45726   0.66625   0.00000  Uiso   1.00
O1257  O     0.79354   0.53979   0.83749   0.00000  Uiso   1.00
O1258  O     0.87755   0.50826   0.65877   0.00000  Uiso   1.00
O1259  O     0.83865   0.49468   0.83749   0.00000  Uiso   1.00
O1260  O     0.84515   0.41434   0.77821   0.00000  Uiso   1.00
O1261  O     0.81247   0.59469   0.76767   0.00000  Uiso   1.00
O1262  O     0.74119   0.46584   0.73607   0.00000  Uiso   1.00
O1263  O     0.93452   0.52512   0.71806   0.00000  Uiso   1.00
C1264  C     0.71914   0.49347   0.75876   0.00000  Uiso   1.00
C1265  C     0.94778   0.50694   0.74111   0.00000  Uiso   1.00
C1266  C     0.82292   0.38961   0.75860   0.00000  Uiso   1.00
C1267  C     0.84330   0.61107   0.74147   0.00000  Uiso   1.00
C1268  C     0.85529   0.47863   0.64394   0.00000  Uiso   1.00
C1269  C     0.81140   0.52070   0.85636   0.00000  Uiso   1.00
C1270  C     0.79895   0.52667   0.89999   0.00000  Uiso   1.00
C1271  C     0.86685   0.47006   0.60102   0.00000  Uiso   1.00
C1272  C     0.74989   0.54774   0.96374   0.00000  Uiso   1.00
C1273  C     0.76138   0.54504   0.92249   0.00000  Uiso   1.00
C1274  C     0.82414   0.51148   0.91934   0.00000  Uiso   1.00
C1275  C     0.81342   0.51453   0.96086   0.00000  Uiso   1.00
C1276  C     0.77421   0.53089   0.98324   0.00000  Uiso   1.00
C1277  C     0.84060   0.50128   0.98046   0.00000  Uiso   1.00
C1278  C     0.82562   0.49919   0.52198   0.00000  Uiso   1.00
C1279  C     0.78580   0.51462   0.54319   0.00000  Uiso   1.00
C1280  C     0.76063   0.53084   0.52461   0.00000  Uiso   1.00
C1281  C     0.88320   0.49204   0.96000   0.00000  Uiso   1.00
C1282  C     0.90963   0.47949   0.97914   0.00000  Uiso   1.00
C1283  C     0.89470   0.47474   0.51939   0.00000  Uiso   1.00
C1284  C     0.85204   0.48371   0.54120   0.00000  Uiso   1.00
C1285  C     0.92275   0.46282   0.53840   0.00000  Uiso   1.00
C1286  C     0.90912   0.46129   0.57937   0.00000  Uiso   1.00
C1287  C     0.83819   0.47878   0.58188   0.00000  Uiso   1.00
H1288  H     0.80605   0.48396   0.60025   0.00000  Uiso   1.00
H1289  H     0.94234   0.47389   0.96198   0.00000  Uiso   1.00
H1290  H     0.72164   0.56319   0.98009   0.00000  Uiso   1.00
H1291  H     0.85143   0.49595   0.90112   0.00000  Uiso   1.00
H1292  H     0.77347   0.51563   0.57481   0.00000  Uiso   1.00
H1293  H     0.89819   0.49630   0.92929   0.00000  Uiso   1.00
C1294  C     0.99389   0.50945   0.73727   0.00000  Uiso   1.00
H1295  H     0.68386   0.52582   0.71393   0.00000  Uiso   1.00
C1296  C     0.67369   0.49151   0.76240   0.00000  Uiso   1.00
H1297  H     0.98433   0.47541   0.78623   0.00000  Uiso   1.00
C1298  C     0.84706   0.65578   0.73966   0.00000  Uiso   1.00
H1299  H     0.87580   0.33690   0.71928   0.00000  Uiso   1.00
C1300  C     0.81652   0.34567   0.76323   0.00000  Uiso   1.00
N1301  N     0.72079   0.54635   0.54853   0.00000  Uiso   1.00
O1302  O     0.71970   0.56919   0.58179   0.00000  Uiso   1.00
O1303  O     0.68441   0.53176   0.54091   0.00000  Uiso   1.00
O1304  O     0.96576   0.45894   0.51808   0.00000  Uiso   1.00
C1305  C     0.97009   0.41709   0.50218   0.00000  Uiso   1.00
H1306  H     0.94624   0.40480   0.98533   0.00000  Uiso   1.00
H1307  H     0.96584   0.39707   0.52608   0.00000  Uiso   1.00
C1308  C     0.68213   0.41458   0.97400   0.00000  Uiso   1.00
H1309  H     0.70680   0.42608   0.98998   0.00000  Uiso   1.00
H1310  H     0.68631   0.38175   0.96144   0.00000  Uiso   1.00
H1311  H     0.68716   0.43398   0.94947   0.00000  Uiso   1.00
O1312  O     0.77758   0.66042   0.78668   0.00000  Uiso   1.00
C1313  C     0.75910   0.35381   0.82056   0.00000  Uiso   1.00
H1314  H     0.74469   0.37883   0.81227   0.00000  Uiso   1.00
H1315  H     0.78363   0.36795   0.83612   0.00000  Uiso   1.00
C1316  C     0.72322   0.66196   0.84908   0.00000  Uiso   1.00
H1317  H     0.73675   0.63687   0.85812   0.00000  Uiso   1.00
H1318  H     0.70827   0.34929   0.87581   0.00000  Uiso   1.00
H1319  H     0.69784   0.64766   0.83473   0.00000  Uiso   1.00
O1320  O     0.93923   0.45570   0.59809   0.00000  Uiso   1.00
C1321  C     0.92899   0.41630   0.61280   0.00000  Uiso   1.00
H1322  H     0.91961   0.39120   0.59120   0.00000  Uiso   1.00
H1323  H     0.90211   0.41731   0.64073   0.00000  Uiso   1.00
C1324  C     0.96851   0.40493   0.62171   0.00000  Uiso   1.00
H1325  H     0.97808   0.42880   0.64399   0.00000  Uiso   1.00
H1326  H     0.96089   0.37415   0.63356   0.00000  Uiso   1.00
H1327  H     0.99601   0.40324   0.59428   0.00000  Uiso   1.00
O1328  O     0.73627   0.56145   0.90443   0.00000  Uiso   1.00
C1329  C     0.69894   0.53312   0.90453   0.00000  Uiso   1.00
H1330  H     0.67860   0.52871   0.93525   0.00000  Uiso   1.00
H1331  H     0.70803   0.50231   0.88857   0.00000  Uiso   1.00
C1332  C     0.67179   0.55029   0.88362   0.00000  Uiso   1.00
H1333  H     0.69108   0.55512   0.85282   0.00000  Uiso   1.00
H1334  H     0.97600   0.52796   0.88297   0.00000  Uiso   1.00
H1335  H     0.99455   0.58054   0.89947   0.00000  Uiso   1.00
Zn1336 Zn    0.19244   0.80756   0.78278   0.00000  Uiso   1.00
Zn1337 Zn    0.13459   0.79044   0.72258   0.00000  Uiso   1.00
Zn1338 Zn    0.21166   0.86331   0.71188   0.00000  Uiso   1.00
Zn1339 Zn    0.12798   0.87202   0.78277   0.00000  Uiso   1.00
O1340  O     0.16667   0.83333   0.75000   0.00000  Uiso   1.00
O1341  O     0.06990   0.85627   0.77820   0.00000  Uiso   1.00
O1342  O     0.25440   0.81944   0.76768   0.00000  Uiso   1.00
O1343  O     0.13800   0.73570   0.73607   0.00000  Uiso   1.00
O1344  O     0.20437   0.92193   0.71806   0.00000  Uiso   1.00
O1345  O     0.15693   0.79060   0.66625   0.00000  Uiso   1.00
O1346  O     0.12687   0.87313   0.83749   0.00000  Uiso   1.00
O1347  O     0.21088   0.84159   0.65877   0.00000  Uiso   1.00
O1348  O     0.17198   0.82802   0.83749   0.00000  Uiso   1.00
O1349  O     0.17849   0.74768   0.77821   0.00000  Uiso   1.00
O1350  O     0.14581   0.92803   0.76767   0.00000  Uiso   1.00
O1351  O     0.07452   0.79917   0.73607   0.00000  Uiso   1.00
O1352  O     0.26785   0.85845   0.71806   0.00000  Uiso   1.00
C1353  C     0.05248   0.82680   0.75876   0.00000  Uiso   1.00
C1354  C     0.28112   0.84027   0.74111   0.00000  Uiso   1.00
C1355  C     0.15625   0.72294   0.75860   0.00000  Uiso   1.00
C1356  C     0.17664   0.94441   0.74147   0.00000  Uiso   1.00
C1357  C     0.18863   0.81196   0.64394   0.00000  Uiso   1.00
C1358  C     0.14473   0.85403   0.85636   0.00000  Uiso   1.00
C1359  C     0.13228   0.86001   0.89999   0.00000  Uiso   1.00
C1360  C     0.20019   0.80340   0.60102   0.00000  Uiso   1.00
C1361  C     0.08323   0.88108   0.96374   0.00000  Uiso   1.00
C1362  C     0.09471   0.87838   0.92249   0.00000  Uiso   1.00
C1363  C     0.15748   0.84482   0.91934   0.00000  Uiso   1.00
C1364  C     0.14676   0.84786   0.96086   0.00000  Uiso   1.00
C1365  C     0.10754   0.86422   0.98324   0.00000  Uiso   1.00
C1366  C     0.17393   0.83461   0.98046   0.00000  Uiso   1.00
C1367  C     0.15896   0.83253   0.52198   0.00000  Uiso   1.00
C1368  C     0.11914   0.84795   0.54319   0.00000  Uiso   1.00
C1369  C     0.09396   0.86417   0.52461   0.00000  Uiso   1.00
C1370  C     0.21653   0.82538   0.96000   0.00000  Uiso   1.00
C1371  C     0.24297   0.81282   0.97914   0.00000  Uiso   1.00
C1372  C     0.22803   0.80808   0.51939   0.00000  Uiso   1.00
C1373  C     0.18537   0.81704   0.54120   0.00000  Uiso   1.00
C1374  C     0.25608   0.79616   0.53840   0.00000  Uiso   1.00
C1375  C     0.24245   0.79462   0.57937   0.00000  Uiso   1.00
C1376  C     0.17152   0.81212   0.58188   0.00000  Uiso   1.00
H1377  H     0.13939   0.81730   0.60025   0.00000  Uiso   1.00
H1378  H     0.27567   0.80723   0.96198   0.00000  Uiso   1.00
H1379  H     0.05498   0.89652   0.98009   0.00000  Uiso   1.00
H1380  H     0.18477   0.82928   0.90112   0.00000  Uiso   1.00
H1381  H     0.10680   0.84897   0.57481   0.00000  Uiso   1.00
H1382  H     0.23153   0.82963   0.92929   0.00000  Uiso   1.00
C1383  C     0.32722   0.84278   0.73727   0.00000  Uiso   1.00
H1384  H     0.01719   0.85915   0.71393   0.00000  Uiso   1.00
C1385  C     0.00703   0.82485   0.76240   0.00000  Uiso   1.00
H1386  H     0.31767   0.80874   0.78623   0.00000  Uiso   1.00
C1387  C     0.18040   0.98911   0.73966   0.00000  Uiso   1.00
H1388  H     0.20913   0.67023   0.71928   0.00000  Uiso   1.00
C1389  C     0.14985   0.67900   0.76323   0.00000  Uiso   1.00
N1390  N     0.05413   0.87969   0.54853   0.00000  Uiso   1.00
O1391  O     0.05304   0.90253   0.58179   0.00000  Uiso   1.00
O1392  O     0.01775   0.86510   0.54091   0.00000  Uiso   1.00
O1393  O     0.29909   0.79227   0.51808   0.00000  Uiso   1.00
C1394  C     0.30342   0.75042   0.50218   0.00000  Uiso   1.00
H1395  H     0.27957   0.73813   0.98533   0.00000  Uiso   1.00
H1396  H     0.29917   0.73040   0.52608   0.00000  Uiso   1.00
C1397  C     0.01546   0.74791   0.97400   0.00000  Uiso   1.00
H1398  H     0.04014   0.75942   0.98998   0.00000  Uiso   1.00
H1399  H     0.01964   0.71509   0.96144   0.00000  Uiso   1.00
H1400  H     0.02049   0.76732   0.94947   0.00000  Uiso   1.00
O1401  O     0.11091   0.99376   0.78668   0.00000  Uiso   1.00
C1402  C     0.09243   0.68714   0.82056   0.00000  Uiso   1.00
H1403  H     0.07803   0.71217   0.81227   0.00000  Uiso   1.00
H1404  H     0.11697   0.70129   0.83612   0.00000  Uiso   1.00
C1405  C     0.05656   0.99530   0.84908   0.00000  Uiso   1.00
H1406  H     0.07009   0.97021   0.85812   0.00000  Uiso   1.00
H1407  H     0.04160   0.68263   0.87581   0.00000  Uiso   1.00
H1408  H     0.03117   0.98100   0.83473   0.00000  Uiso   1.00
O1409  O     0.27256   0.78904   0.59809   0.00000  Uiso   1.00
C1410  C     0.26232   0.74964   0.61280   0.00000  Uiso   1.00
H1411  H     0.25295   0.72454   0.59120   0.00000  Uiso   1.00
H1412  H     0.23544   0.75064   0.64073   0.00000  Uiso   1.00
C1413  C     0.30185   0.73826   0.62171   0.00000  Uiso   1.00
H1414  H     0.31141   0.76213   0.64399   0.00000  Uiso   1.00
H1415  H     0.29422   0.70748   0.63356   0.00000  Uiso   1.00
H1416  H     0.32934   0.73657   0.59428   0.00000  Uiso   1.00
O1417  O     0.06960   0.89478   0.90443   0.00000  Uiso   1.00
C1418  C     0.03227   0.86645   0.90453   0.00000  Uiso   1.00
H1419  H     0.01193   0.86205   0.93525   0.00000  Uiso   1.00
H1420  H     0.04137   0.83564   0.88857   0.00000  Uiso   1.00
C1421  C     0.00512   0.88362   0.88362   0.00000  Uiso   1.00
H1422  H     0.02442   0.88846   0.85282   0.00000  Uiso   1.00
H1423  H     0.30933   0.86129   0.88297   0.00000  Uiso   1.00
H1424  H     0.32788   0.91387   0.89947   0.00000  Uiso   1.00
Zn1425 Zn    0.52577   0.80756   0.78278   0.00000  Uiso   1.00
Zn1426 Zn    0.46792   0.79044   0.72258   0.00000  Uiso   1.00
Zn1427 Zn    0.54500   0.86331   0.71188   0.00000  Uiso   1.00
Zn1428 Zn    0.46131   0.87202   0.78277   0.00000  Uiso   1.00
O1429  O     0.50000   0.83333   0.75000   0.00000  Uiso   1.00
O1430  O     0.40323   0.85627   0.77820   0.00000  Uiso   1.00
O1431  O     0.58773   0.81944   0.76768   0.00000  Uiso   1.00
O1432  O     0.47133   0.73570   0.73607   0.00000  Uiso   1.00
O1433  O     0.53771   0.92193   0.71806   0.00000  Uiso   1.00
O1434  O     0.49027   0.79060   0.66625   0.00000  Uiso   1.00
O1435  O     0.46020   0.87313   0.83749   0.00000  Uiso   1.00
O1436  O     0.54421   0.84159   0.65877   0.00000  Uiso   1.00
O1437  O     0.50532   0.82802   0.83749   0.00000  Uiso   1.00
O1438  O     0.51182   0.74768   0.77821   0.00000  Uiso   1.00
O1439  O     0.47914   0.92803   0.76767   0.00000  Uiso   1.00
O1440  O     0.40785   0.79917   0.73607   0.00000  Uiso   1.00
O1441  O     0.60119   0.85845   0.71806   0.00000  Uiso   1.00
C1442  C     0.38581   0.82680   0.75876   0.00000  Uiso   1.00
C1443  C     0.61445   0.84027   0.74111   0.00000  Uiso   1.00
C1444  C     0.48958   0.72294   0.75860   0.00000  Uiso   1.00
C1445  C     0.50997   0.94441   0.74147   0.00000  Uiso   1.00
C1446  C     0.52196   0.81196   0.64394   0.00000  Uiso   1.00
C1447  C     0.47806   0.85403   0.85636   0.00000  Uiso   1.00
C1448  C     0.46561   0.86001   0.89999   0.00000  Uiso   1.00
C1449  C     0.53352   0.80340   0.60102   0.00000  Uiso   1.00
C1450  C     0.41656   0.88108   0.96374   0.00000  Uiso   1.00
C1451  C     0.42805   0.87838   0.92249   0.00000  Uiso   1.00
C1452  C     0.49081   0.84482   0.91934   0.00000  Uiso   1.00
C1453  C     0.48009   0.84786   0.96086   0.00000  Uiso   1.00
C1454  C     0.44088   0.86422   0.98324   0.00000  Uiso   1.00
C1455  C     0.50726   0.83461   0.98046   0.00000  Uiso   1.00
C1456  C     0.49229   0.83253   0.52198   0.00000  Uiso   1.00
C1457  C     0.45247   0.84795   0.54319   0.00000  Uiso   1.00
C1458  C     0.42729   0.86417   0.52461   0.00000  Uiso   1.00
C1459  C     0.54986   0.82538   0.96000   0.00000  Uiso   1.00
C1460  C     0.57630   0.81282   0.97914   0.00000  Uiso   1.00
C1461  C     0.56137   0.80808   0.51939   0.00000  Uiso   1.00
C1462  C     0.51870   0.81704   0.54120   0.00000  Uiso   1.00
C1463  C     0.58942   0.79616   0.53840   0.00000  Uiso   1.00
C1464  C     0.57579   0.79462   0.57937   0.00000  Uiso   1.00
C1465  C     0.50486   0.81212   0.58188   0.00000  Uiso   1.00
H1466  H     0.47272   0.81730   0.60025   0.00000  Uiso   1.00
H1467  H     0.60900   0.80723   0.96198   0.00000  Uiso   1.00
H1468  H     0.38831   0.89652   0.98009   0.00000  Uiso   1.00
H1469  H     0.51810   0.82928   0.90112   0.00000  Uiso   1.00
H1470  H     0.44014   0.84897   0.57481   0.00000  Uiso   1.00
H1471  H     0.56486   0.82963   0.92929   0.00000  Uiso   1.00
C1472  C     0.66055   0.84278   0.73727   0.00000  Uiso   1.00
H1473  H     0.35053   0.85915   0.71393   0.00000  Uiso   1.00
C1474  C     0.34036   0.82485   0.76240   0.00000  Uiso   1.00
H1475  H     0.65100   0.80874   0.78623   0.00000  Uiso   1.00
C1476  C     0.51373   0.98911   0.73966   0.00000  Uiso   1.00
H1477  H     0.54247   0.67023   0.71928   0.00000  Uiso   1.00
C1478  C     0.48318   0.67900   0.76323   0.00000  Uiso   1.00
N1479  N     0.38746   0.87969   0.54853   0.00000  Uiso   1.00
O1480  O     0.38637   0.90253   0.58179   0.00000  Uiso   1.00
O1481  O     0.35108   0.86510   0.54091   0.00000  Uiso   1.00
O1482  O     0.63242   0.79227   0.51808   0.00000  Uiso   1.00
C1483  C     0.63676   0.75042   0.50218   0.00000  Uiso   1.00
H1484  H     0.61290   0.73813   0.98533   0.00000  Uiso   1.00
H1485  H     0.63250   0.73040   0.52608   0.00000  Uiso   1.00
C1486  C     0.34880   0.74791   0.97400   0.00000  Uiso   1.00
H1487  H     0.37347   0.75942   0.98998   0.00000  Uiso   1.00
H1488  H     0.35298   0.71509   0.96144   0.00000  Uiso   1.00
H1489  H     0.35382   0.76732   0.94947   0.00000  Uiso   1.00
O1490  O     0.44425   0.99376   0.78668   0.00000  Uiso   1.00
C1491  C     0.42577   0.68714   0.82056   0.00000  Uiso   1.00
H1492  H     0.41136   0.71217   0.81227   0.00000  Uiso   1.00
H1493  H     0.45030   0.70129   0.83612   0.00000  Uiso   1.00
C1494  C     0.38989   0.99530   0.84908   0.00000  Uiso   1.00
H1495  H     0.40342   0.97021   0.85812   0.00000  Uiso   1.00
H1496  H     0.37494   0.68263   0.87581   0.00000  Uiso   1.00
H1497  H     0.36451   0.98100   0.83473   0.00000  Uiso   1.00
O1498  O     0.60589   0.78904   0.59809   0.00000  Uiso   1.00
C1499  C     0.59565   0.74964   0.61280   0.00000  Uiso   1.00
H1500  H     0.58628   0.72454   0.59120   0.00000  Uiso   1.00
H1501  H     0.56878   0.75064   0.64073   0.00000  Uiso   1.00
C1502  C     0.63518   0.73826   0.62171   0.00000  Uiso   1.00
H1503  H     0.64474   0.76213   0.64399   0.00000  Uiso   1.00
H1504  H     0.62755   0.70748   0.63356   0.00000  Uiso   1.00
H1505  H     0.66267   0.73657   0.59428   0.00000  Uiso   1.00
O1506  O     0.40294   0.89478   0.90443   0.00000  Uiso   1.00
C1507  C     0.36560   0.86645   0.90453   0.00000  Uiso   1.00
H1508  H     0.34527   0.86205   0.93525   0.00000  Uiso   1.00
H1509  H     0.37470   0.83564   0.88857   0.00000  Uiso   1.00
C1510  C     0.33845   0.88362   0.88362   0.00000  Uiso   1.00
H1511  H     0.35775   0.88846   0.85282   0.00000  Uiso   1.00
H1512  H     0.64266   0.86129   0.88297   0.00000  Uiso   1.00
H1513  H     0.66122   0.91387   0.89947   0.00000  Uiso   1.00
Zn1514 Zn    0.85910   0.80756   0.78278   0.00000  Uiso   1.00
Zn1515 Zn    0.80125   0.79044   0.72258   0.00000  Uiso   1.00
Zn1516 Zn    0.87833   0.86331   0.71188   0.00000  Uiso   1.00
Zn1517 Zn    0.79465   0.87202   0.78277   0.00000  Uiso   1.00
O1518  O     0.83333   0.83333   0.75000   0.00000  Uiso   1.00
O1519  O     0.73656   0.85627   0.77820   0.00000  Uiso   1.00
O1520  O     0.92106   0.81944   0.76768   0.00000  Uiso   1.00
O1521  O     0.80467   0.73570   0.73607   0.00000  Uiso   1.00
O1522  O     0.87104   0.92193   0.71806   0.00000  Uiso   1.00
O1523  O     0.82360   0.79060   0.66625   0.00000  Uiso   1.00
O1524  O     0.79354   0.87313   0.83749   0.00000  Uiso   1.00
O1525  O     0.87755   0.84159   0.65877   0.00000  Uiso   1.00
O1526  O     0.83865   0.82802   0.83749   0.00000  Uiso   1.00
O1527  O     0.84515   0.74768   0.77821   0.00000  Uiso   1.00
O1528  O     0.81247   0.92803   0.76767   0.00000  Uiso   1.00
O1529  O     0.74119   0.79917   0.73607   0.00000  Uiso   1.00
O1530  O     0.93452   0.85845   0.71806   0.00000  Uiso   1.00
C1531  C     0.71914   0.82680   0.75876   0.00000  Uiso   1.00
C1532  C     0.94778   0.84027   0.74111   0.00000  Uiso   1.00
C1533  C     0.82292   0.72294   0.75860   0.00000  Uiso   1.00
C1534  C     0.84330   0.94441   0.74147   0.00000  Uiso   1.00
C1535  C     0.85529   0.81196   0.64394   0.00000  Uiso   1.00
C1536  C     0.81140   0.85403   0.85636   0.00000  Uiso   1.00
C1537  C     0.79895   0.86001   0.89999   0.00000  Uiso   1.00
C1538  C     0.86685   0.80340   0.60102   0.00000  Uiso   1.00
C1539  C     0.74989   0.88108   0.96374   0.00000  Uiso   1.00
C1540  C     0.76138   0.87838   0.92249   0.00000  Uiso   1.00
C1541  C     0.82414   0.84482   0.91934   0.00000  Uiso   1.00
C1542  C     0.81342   0.84786   0.96086   0.00000  Uiso   1.00
C1543  C     0.77421   0.86422   0.98324   0.00000  Uiso   1.00
C1544  C     0.84060   0.83461   0.98046   0.00000  Uiso   1.00
C1545  C     0.82562   0.83253   0.52198   0.00000  Uiso   1.00
C1546  C     0.78580   0.84795   0.54319   0.00000  Uiso   1.00
C1547  C     0.76063   0.86417   0.52461   0.00000  Uiso   1.00
C1548  C     0.88320   0.82538   0.96000   0.00000  Uiso   1.00
C1549  C     0.90963   0.81282   0.97914   0.00000  Uiso   1.00
C1550  C     0.89470   0.80808   0.51939   0.00000  Uiso   1.00
C1551  C     0.85204   0.81704   0.54120   0.00000  Uiso   1.00
C1552  C     0.92275   0.79616   0.53840   0.00000  Uiso   1.00
C1553  C     0.90912   0.79462   0.57937   0.00000  Uiso   1.00
C1554  C     0.83819   0.81212   0.58188   0.00000  Uiso   1.00
H1555  H     0.80605   0.81730   0.60025   0.00000  Uiso   1.00
H1556  H     0.94234   0.80723   0.96198   0.00000  Uiso   1.00
H1557  H     0.72164   0.89652   0.98009   0.00000  Uiso   1.00
H1558  H     0.85143   0.82928   0.90112   0.00000  Uiso   1.00
H1559  H     0.77347   0.84897   0.57481   0.00000  Uiso   1.00
H1560  H     0.89819   0.82963   0.92929   0.00000  Uiso   1.00
C1561  C     0.99389   0.84278   0.73727   0.00000  Uiso   1.00
H1562  H     0.68386   0.85915   0.71393   0.00000  Uiso   1.00
C1563  C     0.67369   0.82485   0.76240   0.00000  Uiso   1.00
H1564  H     0.98433   0.80874   0.78623   0.00000  Uiso   1.00
C1565  C     0.84706   0.98911   0.73966   0.00000  Uiso   1.00
H1566  H     0.87580   0.67023   0.71928   0.00000  Uiso   1.00
C1567  C     0.81652   0.67900   0.76323   0.00000  Uiso   1.00
N1568  N     0.72079   0.87969   0.54853   0.00000  Uiso   1.00
O1569  O     0.71970   0.90253   0.58179   0.00000  Uiso   1.00
O1570  O     0.68441   0.86510   0.54091   0.00000  Uiso   1.00
O1571  O     0.96576   0.79227   0.51808   0.00000  Uiso   1.00
C1572  C     0.97009   0.75042   0.50218   0.00000  Uiso   1.00
H1573  H     0.94624   0.73813   0.98533   0.00000  Uiso   1.00
H1574  H     0.96584   0.73040   0.52608   0.00000  Uiso   1.00
C1575  C     0.68213   0.74791   0.97400   0.00000  Uiso   1.00
H1576  H     0.70680   0.75942   0.98998   0.00000  Uiso   1.00
H1577  H     0.68631   0.71509   0.96144   0.00000  Uiso   1.00
H1578  H     0.68716   0.76732   0.94947   0.00000  Uiso   1.00
O1579  O     0.77758   0.99376   0.78668   0.00000  Uiso   1.00
C1580  C     0.75910   0.68714   0.82056   0.00000  Uiso   1.00
H1581  H     0.74469   0.71217   0.81227   0.00000  Uiso   1.00
H1582  H     0.78363   0.70129   0.83612   0.00000  Uiso   1.00
C1583  C     0.72322   0.99530   0.84908   0.00000  Uiso   1.00
H1584  H     0.73675   0.97021   0.85812   0.00000  Uiso   1.00
H1585  H     0.70827   0.68263   0.87581   0.00000  Uiso   1.00
H1586  H     0.69784   0.98100   0.83473   0.00000  Uiso   1.00
O1587  O     0.93923   0.78904   0.59809   0.00000  Uiso   1.00
C1588  C     0.92899   0.74964   0.61280   0.00000  Uiso   1.00
H1589  H     0.91961   0.72454   0.59120   0.00000  Uiso   1.00
H1590  H     0.90211   0.75064   0.64073   0.00000  Uiso   1.00
C1591  C     0.96851   0.73826   0.62171   0.00000  Uiso   1.00
H1592  H     0.97808   0.76213   0.64399   0.00000  Uiso   1.00
H1593  H     0.96089   0.70748   0.63356   0.00000  Uiso   1.00
H1594  H     0.99601   0.73657   0.59428   0.00000  Uiso   1.00
O1595  O     0.73627   0.89478   0.90443   0.00000  Uiso   1.00
C1596  C     0.69894   0.86645   0.90453   0.00000  Uiso   1.00
H1597  H     0.67860   0.86205   0.93525   0.00000  Uiso   1.00
H1598  H     0.70803   0.83564   0.88857   0.00000  Uiso   1.00
C1599  C     0.67179   0.88362   0.88362   0.00000  Uiso   1.00
H1600  H     0.69108   0.88846   0.85282   0.00000  Uiso   1.00
H1601  H     0.97600   0.86129   0.88297   0.00000  Uiso   1.00
H1602  H     0.99455   0.91387   0.89947   0.00000  Uiso   1.00
loop_
_geom_bond_atom_site_label_1
_geom_bond_atom_site_label_2
_geom_bond_distance
_geom_bond_site_symmetry_2
_ccdc_geom_bond_type
Zn1    O5      1.964   .     S
Zn1    O7      1.918   .     S
Zn1    O13     1.917   .     S
Zn1    O14     1.933   .     S
Zn2    O16     1.921   .     S
Zn2    O5      1.948   .     S
Zn2    O10     1.922   .     S
Zn2    O8      1.941   .     S
Zn3    O12     1.932   .     S
Zn3    O9      1.934   .     S
Zn3    O5      1.926   .     S
Zn3    O17     1.937   .     S
Zn4    O6      1.933   .     S
Zn4    O11     1.938   .     S
Zn4    O5      1.924   .     S
Zn4    O15     1.935   .     S
O6     C18     1.269   .     A
O7     C19     1.277   .     A
O8     C20     1.276   .     A
O9     C21     1.271   .     A
O10    C22     1.279   .     A
O11    C23     1.281   .     A
O12    C22     1.271   .     A
O13    C23     1.288   .     A
O14    C20     1.278   .     A
O15    C21     1.260   .     A
O16    C18     1.270   .     A
O17    C19     1.282   .     A
C18    C50     1.437   .     S
C19    C48     1.456   .     S
C20    C54     1.443   .     S
C21    C52     1.454   .     S
C22    C25     1.459   .     S
C23    C24     1.478   .     S
C24    C27     1.409   .     A
C24    C28     1.397   .     A
C25    C40     1.408   .     A
C25    C41     1.391   .     A
C26    H44     1.081   .     S
C26    C27     1.399   .     A
C26    C30     1.408   .     A
C27    O82     1.383   .     S
C28    C29     1.409   .     A
C28    H45     1.076   .     S
C29    C30     1.420   .     A
C29    C31     1.424   .     A
C30    C835    1.408   .     S
C31    C35     1.413   .     A
C31    C833    1.422   .     S
C32    C38     1.430   .     A
C32    C33     1.413   .     A
C32    C832    1.422   1_554 S
C33    H46     1.075   .     S
C33    C34     1.395   .     A
C34    N55     1.438   .     S
C34    C831    1.408   1_554 S
C35    C36     1.382   .     A
C35    H47     1.077   .     S
C36    H43     1.083   .     S
C36    C838    1.395   .     S
C37    C38     1.422   .     A
C37    C39     1.413   .     A
C37    C837    1.395   1_554 S
C38    C41     1.410   .     A
C39    C40     1.401   .     A
C39    O58     1.384   .     S
C40    O74     1.386   .     S
C41    H42     1.077   .     S
C48    H138    1.087   .     S
C48    C139    1.336   .     S
H49    C226    1.087   1_455 S
C50    C226    1.336   1_455 S
C50    H229    1.086   1_455 S
H51    C139    1.086   .     S
C52    H320    1.088   .     S
C52    C321    1.343   .     S
H53    C586    1.088   1_545 S
C54    C586    1.343   1_545 S
C54    O600    1.398   1_545 S
N55    O56     1.301   .     A
N55    O57     1.301   .     A
O58    C59     1.411   .     S
C59    H61     1.111   .     S
C59    H861    1.116   1_554 S
C59    C952    1.522   1_554 S
H60    C860    1.116   .     S
C62    H63     1.112   .     S
C62    H64     1.111   .     S
C62    H65     1.112   .     S
C62    C1038   1.522   1_455 S
O66    C321    1.398   .     S
O66    C334    1.413   .     S
C67    H68     1.113   .     S
C67    H69     1.115   .     S
C67    O600    1.413   1_545 S
C67    C604    1.522   1_545 S
C70    H71     1.111   .     S
C70    H73     1.111   .     S
C70    C334    1.522   .     S
C70    H339    1.111   .     S
H72    C604    1.111   1_545 S
O74    C75     1.414   .     S
C75    H76     1.115   .     S
C75    H77     1.111   .     S
C75    C78     1.521   .     S
C78    H80     1.111   .     S
C78    H79     1.111   .     S
C78    H81     1.111   .     S
O82    C83     1.413   .     S
C83    H84     1.114   .     S
C83    H85     1.115   .     S
C83    C86     1.521   .     S
C86    H87     1.110   .     S
C86    H266    1.111   1_455 S
C86    H267    1.111   1_455 S
H88    C175    1.111   .     S
H89    C175    1.111   .     S
Zn90   O94     1.964   .     S
Zn90   O96     1.918   .     S
Zn90   O102    1.917   .     S
Zn90   O103    1.933   .     S
Zn91   O105    1.921   .     S
Zn91   O94     1.948   .     S
Zn91   O99     1.922   .     S
Zn91   O97     1.941   .     S
Zn92   O101    1.932   .     S
Zn92   O98     1.934   .     S
Zn92   O94     1.926   .     S
Zn92   O106    1.937   .     S
Zn93   O95     1.933   .     S
Zn93   O100    1.938   .     S
Zn93   O94     1.924   .     S
Zn93   O104    1.935   .     S
O95    C107    1.269   .     A
O96    C108    1.277   .     A
O97    C109    1.276   .     A
O98    C110    1.271   .     A
O99    C111    1.279   .     A
O100   C112    1.281   .     A
O101   C111    1.271   .     A
O102   C112    1.288   .     A
O103   C109    1.278   .     A
O104   C110    1.260   .     A
O105   C107    1.270   .     A
O106   C108    1.282   .     A
C107   C139    1.437   .     S
C108   C137    1.456   .     S
C109   C143    1.443   .     S
C110   C141    1.454   .     S
C111   C114    1.459   .     S
C112   C113    1.478   .     S
C113   C116    1.409   .     A
C113   C117    1.397   .     A
C114   C129    1.408   .     A
C114   C130    1.391   .     A
C115   H133    1.081   .     S
C115   C116    1.399   .     A
C115   C119    1.408   .     A
C116   O171    1.383   .     S
C117   C118    1.409   .     A
C117   H134    1.076   .     S
C118   C119    1.420   .     A
C118   C120    1.424   .     A
C119   C924    1.408   .     S
C120   C124    1.413   .     A
C120   C922    1.422   .     S
C121   C127    1.430   .     A
C121   C122    1.413   .     A
C121   C921    1.422   1_554 S
C122   H135    1.075   .     S
C122   C123    1.395   .     A
C123   N144    1.438   .     S
C123   C920    1.408   1_554 S
C124   C125    1.382   .     A
C124   H136    1.077   .     S
C125   H132    1.083   .     S
C125   C927    1.395   .     S
C126   C127    1.422   .     A
C126   C128    1.413   .     A
C126   C926    1.395   1_554 S
C127   C130    1.410   .     A
C128   C129    1.401   .     A
C128   O147    1.384   .     S
C129   O163    1.386   .     S
C130   H131    1.077   .     S
C137   H227    1.087   .     S
C137   C228    1.336   .     S
H140   C228    1.086   .     S
C141   H409    1.088   .     S
C141   C410    1.343   .     S
H142   C675    1.088   1_545 S
C143   C675    1.343   1_545 S
C143   O689    1.398   1_545 S
N144   O145    1.301   .     A
N144   O146    1.301   .     A
O147   C148    1.411   .     S
C148   H150    1.111   .     S
C148   H950    1.116   1_554 S
C148   C1041   1.522   1_554 S
H149   C949    1.116   .     S
C151   H152    1.112   .     S
C151   H153    1.111   .     S
C151   H154    1.112   .     S
C151   C860    1.522   .     S
O155   C410    1.398   .     S
O155   C423    1.413   .     S
C156   H157    1.113   .     S
C156   H158    1.115   .     S
C156   O689    1.413   1_545 S
C156   C693    1.522   1_545 S
C159   H160    1.111   .     S
C159   H162    1.111   .     S
C159   C423    1.522   .     S
C159   H428    1.111   .     S
H161   C693    1.111   1_545 S
O163   C164    1.414   .     S
C164   H165    1.115   .     S
C164   H166    1.111   .     S
C164   C167    1.521   .     S
C167   H169    1.111   .     S
C167   H168    1.111   .     S
C167   H170    1.111   .     S
O171   C172    1.413   .     S
C172   H173    1.114   .     S
C172   H174    1.115   .     S
C172   C175    1.521   .     S
C175   H176    1.110   .     S
H177   C264    1.111   .     S
H178   C264    1.111   .     S
Zn179  O183    1.964   .     S
Zn179  O185    1.918   .     S
Zn179  O191    1.917   .     S
Zn179  O192    1.933   .     S
Zn180  O194    1.921   .     S
Zn180  O183    1.948   .     S
Zn180  O188    1.922   .     S
Zn180  O186    1.941   .     S
Zn181  O190    1.932   .     S
Zn181  O187    1.934   .     S
Zn181  O183    1.926   .     S
Zn181  O195    1.937   .     S
Zn182  O184    1.933   .     S
Zn182  O189    1.938   .     S
Zn182  O183    1.924   .     S
Zn182  O193    1.935   .     S
O184   C196    1.269   .     A
O185   C197    1.277   .     A
O186   C198    1.276   .     A
O187   C199    1.271   .     A
O188   C200    1.279   .     A
O189   C201    1.281   .     A
O190   C200    1.271   .     A
O191   C201    1.288   .     A
O192   C198    1.278   .     A
O193   C199    1.260   .     A
O194   C196    1.270   .     A
O195   C197    1.282   .     A
C196   C228    1.437   .     S
C197   C226    1.456   .     S
C198   C232    1.443   .     S
C199   C230    1.454   .     S
C200   C203    1.459   .     S
C201   C202    1.478   .     S
C202   C205    1.409   .     A
C202   C206    1.397   .     A
C203   C218    1.408   .     A
C203   C219    1.391   .     A
C204   H222    1.081   .     S
C204   C205    1.399   .     A
C204   C208    1.408   .     A
C205   O260    1.383   .     S
C206   C207    1.409   .     A
C206   H223    1.076   .     S
C207   C208    1.420   .     A
C207   C209    1.424   .     A
C208   C1013   1.408   .     S
C209   C213    1.413   .     A
C209   C1011   1.422   .     S
C210   C216    1.430   .     A
C210   C211    1.413   .     A
C210   C1010   1.422   1_554 S
C211   H224    1.075   .     S
C211   C212    1.395   .     A
C212   N233    1.438   .     S
C212   C1009   1.408   1_554 S
C213   C214    1.382   .     A
C213   H225    1.077   .     S
C214   H221    1.083   .     S
C214   C1016   1.395   .     S
C215   C216    1.422   .     A
C215   C217    1.413   .     A
C215   C1015   1.395   1_554 S
C216   C219    1.410   .     A
C217   C218    1.401   .     A
C217   O236    1.384   .     S
C218   O252    1.386   .     S
C219   H220    1.077   .     S
C226   H49     1.087   1_655 S
C226   C50     1.336   1_655 S
H229   C50     1.086   1_655 S
C230   H498    1.088   .     S
C230   C499    1.343   .     S
H231   C764    1.088   1_545 S
C232   C764    1.343   1_545 S
C232   O778    1.398   1_545 S
N233   O234    1.301   .     A
N233   O235    1.301   .     A
O236   C237    1.411   .     S
C237   H239    1.111   .     S
C237   H1039   1.116   1_554 S
C237   C863    1.522   1_654 S
H238   C1038   1.116   .     S
C240   H241    1.112   .     S
C240   H242    1.111   .     S
C240   H243    1.112   .     S
C240   C949    1.522   .     S
O244   C499    1.398   .     S
O244   C512    1.413   .     S
C245   H246    1.113   .     S
C245   H247    1.115   .     S
C245   O778    1.413   1_545 S
C245   C782    1.522   1_545 S
C248   H249    1.111   .     S
C248   H251    1.111   .     S
C248   C512    1.522   .     S
C248   H517    1.111   .     S
H250   C782    1.111   1_545 S
O252   C253    1.414   .     S
C253   H254    1.115   .     S
C253   H255    1.111   .     S
C253   C256    1.521   .     S
C256   H258    1.111   .     S
C256   H257    1.111   .     S
C256   H259    1.111   .     S
O260   C261    1.413   .     S
C261   H262    1.114   .     S
C261   H263    1.115   .     S
C261   C264    1.521   .     S
C264   H265    1.110   .     S
H266   C86     1.111   1_655 S
H267   C86     1.111   1_655 S
Zn268  O272    1.964   .     S
Zn268  O274    1.918   .     S
Zn268  O280    1.917   .     S
Zn268  O281    1.933   .     S
Zn269  O283    1.921   .     S
Zn269  O272    1.948   .     S
Zn269  O277    1.922   .     S
Zn269  O275    1.941   .     S
Zn270  O279    1.932   .     S
Zn270  O276    1.934   .     S
Zn270  O272    1.926   .     S
Zn270  O284    1.937   .     S
Zn271  O273    1.933   .     S
Zn271  O278    1.938   .     S
Zn271  O272    1.924   .     S
Zn271  O282    1.935   .     S
O273   C285    1.269   .     A
O274   C286    1.277   .     A
O275   C287    1.276   .     A
O276   C288    1.271   .     A
O277   C289    1.279   .     A
O278   C290    1.281   .     A
O279   C289    1.271   .     A
O280   C290    1.288   .     A
O281   C287    1.278   .     A
O282   C288    1.260   .     A
O283   C285    1.270   .     A
O284   C286    1.282   .     A
C285   C317    1.437   .     S
C286   C315    1.456   .     S
C287   C321    1.443   .     S
C288   C319    1.454   .     S
C289   C292    1.459   .     S
C290   C291    1.478   .     S
C291   C294    1.409   .     A
C291   C295    1.397   .     A
C292   C307    1.408   .     A
C292   C308    1.391   .     A
C293   H311    1.081   .     S
C293   C294    1.399   .     A
C293   C297    1.408   .     A
C294   O349    1.383   .     S
C295   C296    1.409   .     A
C295   H312    1.076   .     S
C296   C297    1.420   .     A
C296   C298    1.424   .     A
C297   C1102   1.408   .     S
C298   C302    1.413   .     A
C298   C1100   1.422   .     S
C299   C305    1.430   .     A
C299   C300    1.413   .     A
C299   C1099   1.422   1_554 S
C300   H313    1.075   .     S
C300   C301    1.395   .     A
C301   N322    1.438   .     S
C301   C1098   1.408   1_554 S
C302   C303    1.382   .     A
C302   H314    1.077   .     S
C303   H310    1.083   .     S
C303   C1105   1.395   .     S
C304   C305    1.422   .     A
C304   C306    1.413   .     A
C304   C1104   1.395   1_554 S
C305   C308    1.410   .     A
C306   C307    1.401   .     A
C306   O325    1.384   .     S
C307   O341    1.386   .     S
C308   H309    1.077   .     S
C315   H405    1.087   .     S
C315   C406    1.336   .     S
H316   C493    1.087   1_455 S
C317   C493    1.336   1_455 S
C317   H496    1.086   1_455 S
H318   C406    1.086   .     S
C319   H587    1.088   .     S
C319   C588    1.343   .     S
N322   O323    1.301   .     A
N322   O324    1.301   .     A
O325   C326    1.411   .     S
C326   H328    1.111   .     S
C326   H1128   1.116   1_554 S
C326   C1219   1.522   1_554 S
H327   C1127   1.116   .     S
C329   H330    1.112   .     S
C329   H331    1.111   .     S
C329   H332    1.112   .     S
C329   C1305   1.522   1_455 S
O333   C588    1.398   .     S
O333   C601    1.413   .     S
C334   H335    1.113   .     S
C334   H336    1.115   .     S
C337   H338    1.111   .     S
C337   H340    1.111   .     S
C337   C601    1.522   .     S
C337   H606    1.111   .     S
O341   C342    1.414   .     S
C342   H343    1.115   .     S
C342   H344    1.111   .     S
C342   C345    1.521   .     S
C345   H347    1.111   .     S
C345   H346    1.111   .     S
C345   H348    1.111   .     S
O349   C350    1.413   .     S
C350   H351    1.114   .     S
C350   H352    1.115   .     S
C350   C353    1.521   .     S
C353   H354    1.110   .     S
C353   H533    1.111   1_455 S
C353   H534    1.111   1_455 S
H355   C442    1.111   .     S
H356   C442    1.111   .     S
Zn357  O361    1.964   .     S
Zn357  O363    1.918   .     S
Zn357  O369    1.917   .     S
Zn357  O370    1.933   .     S
Zn358  O372    1.921   .     S
Zn358  O361    1.948   .     S
Zn358  O366    1.922   .     S
Zn358  O364    1.941   .     S
Zn359  O368    1.932   .     S
Zn359  O365    1.934   .     S
Zn359  O361    1.926   .     S
Zn359  O373    1.937   .     S
Zn360  O362    1.933   .     S
Zn360  O367    1.938   .     S
Zn360  O361    1.924   .     S
Zn360  O371    1.935   .     S
O362   C374    1.269   .     A
O363   C375    1.277   .     A
O364   C376    1.276   .     A
O365   C377    1.271   .     A
O366   C378    1.279   .     A
O367   C379    1.281   .     A
O368   C378    1.271   .     A
O369   C379    1.288   .     A
O370   C376    1.278   .     A
O371   C377    1.260   .     A
O372   C374    1.270   .     A
O373   C375    1.282   .     A
C374   C406    1.437   .     S
C375   C404    1.456   .     S
C376   C410    1.443   .     S
C377   C408    1.454   .     S
C378   C381    1.459   .     S
C379   C380    1.478   .     S
C380   C383    1.409   .     A
C380   C384    1.397   .     A
C381   C396    1.408   .     A
C381   C397    1.391   .     A
C382   H400    1.081   .     S
C382   C383    1.399   .     A
C382   C386    1.408   .     A
C383   O438    1.383   .     S
C384   C385    1.409   .     A
C384   H401    1.076   .     S
C385   C386    1.420   .     A
C385   C387    1.424   .     A
C386   C1191   1.408   .     S
C387   C391    1.413   .     A
C387   C1189   1.422   .     S
C388   C394    1.430   .     A
C388   C389    1.413   .     A
C388   C1188   1.422   1_554 S
C389   H402    1.075   .     S
C389   C390    1.395   .     A
C390   N411    1.438   .     S
C390   C1187   1.408   1_554 S
C391   C392    1.382   .     A
C391   H403    1.077   .     S
C392   H399    1.083   .     S
C392   C1194   1.395   .     S
C393   C394    1.422   .     A
C393   C395    1.413   .     A
C393   C1193   1.395   1_554 S
C394   C397    1.410   .     A
C395   C396    1.401   .     A
C395   O414    1.384   .     S
C396   O430    1.386   .     S
C397   H398    1.077   .     S
C404   H494    1.087   .     S
C404   C495    1.336   .     S
H407   C495    1.086   .     S
C408   H676    1.088   .     S
C408   C677    1.343   .     S
N411   O412    1.301   .     A
N411   O413    1.301   .     A
O414   C415    1.411   .     S
C415   H417    1.111   .     S
C415   H1217   1.116   1_554 S
C415   C1308   1.522   1_554 S
H416   C1216   1.116   .     S
C418   H419    1.112   .     S
C418   H420    1.111   .     S
C418   H421    1.112   .     S
C418   C1127   1.522   .     S
O422   C677    1.398   .     S
O422   C690    1.413   .     S
C423   H424    1.113   .     S
C423   H425    1.115   .     S
C426   H427    1.111   .     S
C426   H429    1.111   .     S
C426   C690    1.522   .     S
C426   H695    1.111   .     S
O430   C431    1.414   .     S
C431   H432    1.115   .     S
C431   H433    1.111   .     S
C431   C434    1.521   .     S
C434   H436    1.111   .     S
C434   H435    1.111   .     S
C434   H437    1.111   .     S
O438   C439    1.413   .     S
C439   H440    1.114   .     S
C439   H441    1.115   .     S
C439   C442    1.521   .     S
C442   H443    1.110   .     S
H444   C531    1.111   .     S
H445   C531    1.111   .     S
Zn446  O450    1.964   .     S
Zn446  O452    1.918   .     S
Zn446  O458    1.917   .     S
Zn446  O459    1.933   .     S
Zn447  O461    1.921   .     S
Zn447  O450    1.948   .     S
Zn447  O455    1.922   .     S
Zn447  O453    1.941   .     S
Zn448  O457    1.932   .     S
Zn448  O454    1.934   .     S
Zn448  O450    1.926   .     S
Zn448  O462    1.937   .     S
Zn449  O451    1.933   .     S
Zn449  O456    1.938   .     S
Zn449  O450    1.924   .     S
Zn449  O460    1.935   .     S
O451   C463    1.269   .     A
O452   C464    1.277   .     A
O453   C465    1.276   .     A
O454   C466    1.271   .     A
O455   C467    1.279   .     A
O456   C468    1.281   .     A
O457   C467    1.271   .     A
O458   C468    1.288   .     A
O459   C465    1.278   .     A
O460   C466    1.260   .     A
O461   C463    1.270   .     A
O462   C464    1.282   .     A
C463   C495    1.437   .     S
C464   C493    1.456   .     S
C465   C499    1.443   .     S
C466   C497    1.454   .     S
C467   C470    1.459   .     S
C468   C469    1.478   .     S
C469   C472    1.409   .     A
C469   C473    1.397   .     A
C470   C485    1.408   .     A
C470   C486    1.391   .     A
C471   H489    1.081   .     S
C471   C472    1.399   .     A
C471   C475    1.408   .     A
C472   O527    1.383   .     S
C473   C474    1.409   .     A
C473   H490    1.076   .     S
C474   C475    1.420   .     A
C474   C476    1.424   .     A
C475   C1280   1.408   .     S
C476   C480    1.413   .     A
C476   C1278   1.422   .     S
C477   C483    1.430   .     A
C477   C478    1.413   .     A
C477   C1277   1.422   1_554 S
C478   H491    1.075   .     S
C478   C479    1.395   .     A
C479   N500    1.438   .     S
C479   C1276   1.408   1_554 S
C480   C481    1.382   .     A
C480   H492    1.077   .     S
C481   H488    1.083   .     S
C481   C1283   1.395   .     S
C482   C483    1.422   .     A
C482   C484    1.413   .     A
C482   C1282   1.395   1_554 S
C483   C486    1.410   .     A
C484   C485    1.401   .     A
C484   O503    1.384   .     S
C485   O519    1.386   .     S
C486   H487    1.077   .     S
C493   H316    1.087   1_655 S
C493   C317    1.336   1_655 S
H496   C317    1.086   1_655 S
C497   H765    1.088   .     S
C497   C766    1.343   .     S
N500   O501    1.301   .     A
N500   O502    1.301   .     A
O503   C504    1.411   .     S
C504   H506    1.111   .     S
C504   H1306   1.116   1_554 S
C504   C1130   1.522   1_654 S
H505   C1305   1.116   .     S
C507   H508    1.112   .     S
C507   H509    1.111   .     S
C507   H510    1.112   .     S
C507   C1216   1.522   .     S
O511   C766    1.398   .     S
O511   C779    1.413   .     S
C512   H513    1.113   .     S
C512   H514    1.115   .     S
C515   H516    1.111   .     S
C515   H518    1.111   .     S
C515   C779    1.522   .     S
C515   H784    1.111   .     S
O519   C520    1.414   .     S
C520   H521    1.115   .     S
C520   H522    1.111   .     S
C520   C523    1.521   .     S
C523   H525    1.111   .     S
C523   H524    1.111   .     S
C523   H526    1.111   .     S
O527   C528    1.413   .     S
C528   H529    1.114   .     S
C528   H530    1.115   .     S
C528   C531    1.521   .     S
C531   H532    1.110   .     S
H533   C353    1.111   1_655 S
H534   C353    1.111   1_655 S
Zn535  O539    1.964   .     S
Zn535  O541    1.918   .     S
Zn535  O547    1.917   .     S
Zn535  O548    1.933   .     S
Zn536  O550    1.921   .     S
Zn536  O539    1.948   .     S
Zn536  O544    1.922   .     S
Zn536  O542    1.941   .     S
Zn537  O546    1.932   .     S
Zn537  O543    1.934   .     S
Zn537  O539    1.926   .     S
Zn537  O551    1.937   .     S
Zn538  O540    1.933   .     S
Zn538  O545    1.938   .     S
Zn538  O539    1.924   .     S
Zn538  O549    1.935   .     S
O540   C552    1.269   .     A
O541   C553    1.277   .     A
O542   C554    1.276   .     A
O543   C555    1.271   .     A
O544   C556    1.279   .     A
O545   C557    1.281   .     A
O546   C556    1.271   .     A
O547   C557    1.288   .     A
O548   C554    1.278   .     A
O549   C555    1.260   .     A
O550   C552    1.270   .     A
O551   C553    1.282   .     A
C552   C584    1.437   .     S
C553   C582    1.456   .     S
C554   C588    1.443   .     S
C555   C586    1.454   .     S
C556   C559    1.459   .     S
C557   C558    1.478   .     S
C558   C561    1.409   .     A
C558   C562    1.397   .     A
C559   C574    1.408   .     A
C559   C575    1.391   .     A
C560   H578    1.081   .     S
C560   C561    1.399   .     A
C560   C564    1.408   .     A
C561   O616    1.383   .     S
C562   C563    1.409   .     A
C562   H579    1.076   .     S
C563   C564    1.420   .     A
C563   C565    1.424   .     A
C564   C1369   1.408   .     S
C565   C569    1.413   .     A
C565   C1367   1.422   .     S
C566   C572    1.430   .     A
C566   C567    1.413   .     A
C566   C1366   1.422   1_554 S
C567   H580    1.075   .     S
C567   C568    1.395   .     A
C568   N589    1.438   .     S
C568   C1365   1.408   1_554 S
C569   C570    1.382   .     A
C569   H581    1.077   .     S
C570   H577    1.083   .     S
C570   C1372   1.395   .     S
C571   C572    1.422   .     A
C571   C573    1.413   .     A
C571   C1371   1.395   1_554 S
C572   C575    1.410   .     A
C573   C574    1.401   .     A
C573   O592    1.384   .     S
C574   O608    1.386   .     S
C575   H576    1.077   .     S
C582   H672    1.087   .     S
C582   C673    1.336   .     S
H583   C760    1.087   1_455 S
C584   C760    1.336   1_455 S
C584   H763    1.086   1_455 S
H585   C673    1.086   .     S
C586   H53     1.088   1_565 S
C586   C54     1.343   1_565 S
N589   O590    1.301   .     A
N589   O591    1.301   .     A
O592   C593    1.411   .     S
C593   H595    1.111   .     S
C593   H1395   1.116   1_554 S
C593   C1486   1.522   1_554 S
H594   C1394   1.116   .     S
C596   H597    1.112   .     S
C596   H598    1.111   .     S
C596   H599    1.112   .     S
C596   C1572   1.522   1_455 S
O600   C54     1.398   1_565 S
O600   C67     1.413   1_565 S
C601   H602    1.113   .     S
C601   H603    1.115   .     S
C604   H605    1.111   .     S
C604   H607    1.111   .     S
C604   C67     1.522   1_565 S
C604   H72     1.111   1_565 S
O608   C609    1.414   .     S
C609   H610    1.115   .     S
C609   H611    1.111   .     S
C609   C612    1.521   .     S
C612   H614    1.111   .     S
C612   H613    1.111   .     S
C612   H615    1.111   .     S
O616   C617    1.413   .     S
C617   H618    1.114   .     S
C617   H619    1.115   .     S
C617   C620    1.521   .     S
C620   H621    1.110   .     S
C620   H800    1.111   1_455 S
C620   H801    1.111   1_455 S
H622   C709    1.111   .     S
H623   C709    1.111   .     S
Zn624  O628    1.964   .     S
Zn624  O630    1.918   .     S
Zn624  O636    1.917   .     S
Zn624  O637    1.933   .     S
Zn625  O639    1.921   .     S
Zn625  O628    1.948   .     S
Zn625  O633    1.922   .     S
Zn625  O631    1.941   .     S
Zn626  O635    1.932   .     S
Zn626  O632    1.934   .     S
Zn626  O628    1.926   .     S
Zn626  O640    1.937   .     S
Zn627  O629    1.933   .     S
Zn627  O634    1.938   .     S
Zn627  O628    1.924   .     S
Zn627  O638    1.935   .     S
O629   C641    1.269   .     A
O630   C642    1.277   .     A
O631   C643    1.276   .     A
O632   C644    1.271   .     A
O633   C645    1.279   .     A
O634   C646    1.281   .     A
O635   C645    1.271   .     A
O636   C646    1.288   .     A
O637   C643    1.278   .     A
O638   C644    1.260   .     A
O639   C641    1.270   .     A
O640   C642    1.282   .     A
C641   C673    1.437   .     S
C642   C671    1.456   .     S
C643   C677    1.443   .     S
C644   C675    1.454   .     S
C645   C648    1.459   .     S
C646   C647    1.478   .     S
C647   C650    1.409   .     A
C647   C651    1.397   .     A
C648   C663    1.408   .     A
C648   C664    1.391   .     A
C649   H667    1.081   .     S
C649   C650    1.399   .     A
C649   C653    1.408   .     A
C650   O705    1.383   .     S
C651   C652    1.409   .     A
C651   H668    1.076   .     S
C652   C653    1.420   .     A
C652   C654    1.424   .     A
C653   C1458   1.408   .     S
C654   C658    1.413   .     A
C654   C1456   1.422   .     S
C655   C661    1.430   .     A
C655   C656    1.413   .     A
C655   C1455   1.422   1_554 S
C656   H669    1.075   .     S
C656   C657    1.395   .     A
C657   N678    1.438   .     S
C657   C1454   1.408   1_554 S
C658   C659    1.382   .     A
C658   H670    1.077   .     S
C659   H666    1.083   .     S
C659   C1461   1.395   .     S
C660   C661    1.422   .     A
C660   C662    1.413   .     A
C660   C1460   1.395   1_554 S
C661   C664    1.410   .     A
C662   C663    1.401   .     A
C662   O681    1.384   .     S
C663   O697    1.386   .     S
C664   H665    1.077   .     S
C671   H761    1.087   .     S
C671   C762    1.336   .     S
H674   C762    1.086   .     S
C675   H142    1.088   1_565 S
C675   C143    1.343   1_565 S
N678   O679    1.301   .     A
N678   O680    1.301   .     A
O681   C682    1.411   .     S
C682   H684    1.111   .     S
C682   H1484   1.116   1_554 S
C682   C1575   1.522   1_554 S
H683   C1483   1.116   .     S
C685   H686    1.112   .     S
C685   H687    1.111   .     S
C685   H688    1.112   .     S
C685   C1394   1.522   .     S
O689   C143    1.398   1_565 S
O689   C156    1.413   1_565 S
C690   H691    1.113   .     S
C690   H692    1.115   .     S
C693   H694    1.111   .     S
C693   H696    1.111   .     S
C693   C156    1.522   1_565 S
C693   H161    1.111   1_565 S
O697   C698    1.414   .     S
C698   H699    1.115   .     S
C698   H700    1.111   .     S
C698   C701    1.521   .     S
C701   H703    1.111   .     S
C701   H702    1.111   .     S
C701   H704    1.111   .     S
O705   C706    1.413   .     S
C706   H707    1.114   .     S
C706   H708    1.115   .     S
C706   C709    1.521   .     S
C709   H710    1.110   .     S
H711   C798    1.111   .     S
H712   C798    1.111   .     S
Zn713  O717    1.964   .     S
Zn713  O719    1.918   .     S
Zn713  O725    1.917   .     S
Zn713  O726    1.933   .     S
Zn714  O728    1.921   .     S
Zn714  O717    1.948   .     S
Zn714  O722    1.922   .     S
Zn714  O720    1.941   .     S
Zn715  O724    1.932   .     S
Zn715  O721    1.934   .     S
Zn715  O717    1.926   .     S
Zn715  O729    1.937   .     S
Zn716  O718    1.933   .     S
Zn716  O723    1.938   .     S
Zn716  O717    1.924   .     S
Zn716  O727    1.935   .     S
O718   C730    1.269   .     A
O719   C731    1.277   .     A
O720   C732    1.276   .     A
O721   C733    1.271   .     A
O722   C734    1.279   .     A
O723   C735    1.281   .     A
O724   C734    1.271   .     A
O725   C735    1.288   .     A
O726   C732    1.278   .     A
O727   C733    1.260   .     A
O728   C730    1.270   .     A
O729   C731    1.282   .     A
C730   C762    1.437   .     S
C731   C760    1.456   .     S
C732   C766    1.443   .     S
C733   C764    1.454   .     S
C734   C737    1.459   .     S
C735   C736    1.478   .     S
C736   C739    1.409   .     A
C736   C740    1.397   .     A
C737   C752    1.408   .     A
C737   C753    1.391   .     A
C738   H756    1.081   .     S
C738   C739    1.399   .     A
C738   C742    1.408   .     A
C739   O794    1.383   .     S
C740   C741    1.409   .     A
C740   H757    1.076   .     S
C741   C742    1.420   .     A
C741   C743    1.424   .     A
C742   C1547   1.408   .     S
C743   C747    1.413   .     A
C743   C1545   1.422   .     S
C744   C750    1.430   .     A
C744   C745    1.413   .     A
C744   C1544   1.422   1_554 S
C745   H758    1.075   .     S
C745   C746    1.395   .     A
C746   N767    1.438   .     S
C746   C1543   1.408   1_554 S
C747   C748    1.382   .     A
C747   H759    1.077   .     S
C748   H755    1.083   .     S
C748   C1550   1.395   .     S
C749   C750    1.422   .     A
C749   C751    1.413   .     A
C749   C1549   1.395   1_554 S
C750   C753    1.410   .     A
C751   C752    1.401   .     A
C751   O770    1.384   .     S
C752   O786    1.386   .     S
C753   H754    1.077   .     S
C760   H583    1.087   1_655 S
C760   C584    1.336   1_655 S
H763   C584    1.086   1_655 S
C764   H231    1.088   1_565 S
C764   C232    1.343   1_565 S
N767   O768    1.301   .     A
N767   O769    1.301   .     A
O770   C771    1.411   .     S
C771   H773    1.111   .     S
C771   H1573   1.116   1_554 S
C771   C1397   1.522   1_654 S
H772   C1572   1.116   .     S
C774   H775    1.112   .     S
C774   H776    1.111   .     S
C774   H777    1.112   .     S
C774   C1483   1.522   .     S
O778   C232    1.398   1_565 S
O778   C245    1.413   1_565 S
C779   H780    1.113   .     S
C779   H781    1.115   .     S
C782   H783    1.111   .     S
C782   H785    1.111   .     S
C782   C245    1.522   1_565 S
C782   H250    1.111   1_565 S
O786   C787    1.414   .     S
C787   H788    1.115   .     S
C787   H789    1.111   .     S
C787   C790    1.521   .     S
C790   H792    1.111   .     S
C790   H791    1.111   .     S
C790   H793    1.111   .     S
O794   C795    1.413   .     S
C795   H796    1.114   .     S
C795   H797    1.115   .     S
C795   C798    1.521   .     S
C798   H799    1.110   .     S
H800   C620    1.111   1_655 S
H801   C620    1.111   1_655 S
Zn802  O806    1.964   .     S
Zn802  O808    1.918   .     S
Zn802  O814    1.917   .     S
Zn802  O815    1.933   .     S
Zn803  O817    1.921   .     S
Zn803  O806    1.948   .     S
Zn803  O811    1.922   .     S
Zn803  O809    1.941   .     S
Zn804  O813    1.932   .     S
Zn804  O810    1.934   .     S
Zn804  O806    1.926   .     S
Zn804  O818    1.937   .     S
Zn805  O807    1.933   .     S
Zn805  O812    1.938   .     S
Zn805  O806    1.924   .     S
Zn805  O816    1.935   .     S
O807   C819    1.269   .     A
O808   C820    1.277   .     A
O809   C821    1.276   .     A
O810   C822    1.271   .     A
O811   C823    1.279   .     A
O812   C824    1.281   .     A
O813   C823    1.271   .     A
O814   C824    1.288   .     A
O815   C821    1.278   .     A
O816   C822    1.260   .     A
O817   C819    1.270   .     A
O818   C820    1.282   .     A
C819   C851    1.437   .     S
C820   C849    1.456   .     S
C821   C855    1.443   .     S
C822   C853    1.454   .     S
C823   C826    1.459   .     S
C824   C825    1.478   .     S
C825   C828    1.409   .     A
C825   C829    1.397   .     A
C826   C841    1.408   .     A
C826   C842    1.391   .     A
C827   H845    1.081   .     S
C827   C828    1.399   .     A
C827   C831    1.408   .     A
C828   O883    1.383   .     S
C829   C830    1.409   .     A
C829   H846    1.076   .     S
C830   C831    1.420   .     A
C830   C832    1.424   .     A
C831   C34     1.408   1_556 S
C832   C836    1.413   .     A
C832   C32     1.422   1_556 S
C833   C839    1.430   .     A
C833   C834    1.413   .     A
C834   H847    1.075   .     S
C834   C835    1.395   .     A
C835   N856    1.438   .     S
C836   C837    1.382   .     A
C836   H848    1.077   .     S
C837   H844    1.083   .     S
C837   C37     1.395   1_556 S
C838   C839    1.422   .     A
C838   C840    1.413   .     A
C839   C842    1.410   .     A
C840   C841    1.401   .     A
C840   O859    1.384   .     S
C841   O875    1.386   .     S
C842   H843    1.077   .     S
C849   H939    1.087   .     S
C849   C940    1.336   .     S
H850   C1027   1.087   1_455 S
C851   C1027   1.336   1_455 S
C851   H1030   1.086   1_455 S
H852   C940    1.086   .     S
C853   H1121   1.088   .     S
C853   C1122   1.343   .     S
H854   C1387   1.088   1_545 S
C855   C1387   1.343   1_545 S
C855   O1401   1.398   1_545 S
N856   O857    1.301   .     A
N856   O858    1.301   .     A
O859   C860    1.411   .     S
C860   H862    1.111   .     S
H861   C59     1.116   1_556 S
C863   H864    1.112   .     S
C863   H865    1.111   .     S
C863   H866    1.112   .     S
C863   C237    1.522   1_456 S
O867   C1122   1.398   .     S
O867   C1135   1.413   .     S
C868   H869    1.113   .     S
C868   H870    1.115   .     S
C868   O1401   1.413   1_545 S
C868   C1405   1.522   1_545 S
C871   H872    1.111   .     S
C871   H874    1.111   .     S
C871   C1135   1.522   .     S
C871   H1140   1.111   .     S
H873   C1405   1.111   1_545 S
O875   C876    1.414   .     S
C876   H877    1.115   .     S
C876   H878    1.111   .     S
C876   C879    1.521   .     S
C879   H881    1.111   .     S
C879   H880    1.111   .     S
C879   H882    1.111   .     S
O883   C884    1.413   .     S
C884   H885    1.114   .     S
C884   H886    1.115   .     S
C884   C887    1.521   .     S
C887   H888    1.110   .     S
C887   H1067   1.111   1_455 S
C887   H1068   1.111   1_455 S
H889   C976    1.111   .     S
H890   C976    1.111   .     S
Zn891  O895    1.964   .     S
Zn891  O897    1.918   .     S
Zn891  O903    1.917   .     S
Zn891  O904    1.933   .     S
Zn892  O906    1.921   .     S
Zn892  O895    1.948   .     S
Zn892  O900    1.922   .     S
Zn892  O898    1.941   .     S
Zn893  O902    1.932   .     S
Zn893  O899    1.934   .     S
Zn893  O895    1.926   .     S
Zn893  O907    1.937   .     S
Zn894  O896    1.933   .     S
Zn894  O901    1.938   .     S
Zn894  O895    1.924   .     S
Zn894  O905    1.935   .     S
O896   C908    1.269   .     A
O897   C909    1.277   .     A
O898   C910    1.276   .     A
O899   C911    1.271   .     A
O900   C912    1.279   .     A
O901   C913    1.281   .     A
O902   C912    1.271   .     A
O903   C913    1.288   .     A
O904   C910    1.278   .     A
O905   C911    1.260   .     A
O906   C908    1.270   .     A
O907   C909    1.282   .     A
C908   C940    1.437   .     S
C909   C938    1.456   .     S
C910   C944    1.443   .     S
C911   C942    1.454   .     S
C912   C915    1.459   .     S
C913   C914    1.478   .     S
C914   C917    1.409   .     A
C914   C918    1.397   .     A
C915   C930    1.408   .     A
C915   C931    1.391   .     A
C916   H934    1.081   .     S
C916   C917    1.399   .     A
C916   C920    1.408   .     A
C917   O972    1.383   .     S
C918   C919    1.409   .     A
C918   H935    1.076   .     S
C919   C920    1.420   .     A
C919   C921    1.424   .     A
C920   C123    1.408   1_556 S
C921   C925    1.413   .     A
C921   C121    1.422   1_556 S
C922   C928    1.430   .     A
C922   C923    1.413   .     A
C923   H936    1.075   .     S
C923   C924    1.395   .     A
C924   N945    1.438   .     S
C925   C926    1.382   .     A
C925   H937    1.077   .     S
C926   H933    1.083   .     S
C926   C126    1.395   1_556 S
C927   C928    1.422   .     A
C927   C929    1.413   .     A
C928   C931    1.410   .     A
C929   C930    1.401   .     A
C929   O948    1.384   .     S
C930   O964    1.386   .     S
C931   H932    1.077   .     S
C938   H1028   1.087   .     S
C938   C1029   1.336   .     S
H941   C1029   1.086   .     S
C942   H1210   1.088   .     S
C942   C1211   1.343   .     S
H943   C1476   1.088   1_545 S
C944   C1476   1.343   1_545 S
C944   O1490   1.398   1_545 S
N945   O946    1.301   .     A
N945   O947    1.301   .     A
O948   C949    1.411   .     S
C949   H951    1.111   .     S
H950   C148    1.116   1_556 S
C952   H953    1.112   .     S
C952   H954    1.111   .     S
C952   H955    1.112   .     S
C952   C59     1.522   1_556 S
O956   C1211   1.398   .     S
O956   C1224   1.413   .     S
C957   H958    1.113   .     S
C957   H959    1.115   .     S
C957   O1490   1.413   1_545 S
C957   C1494   1.522   1_545 S
C960   H961    1.111   .     S
C960   H963    1.111   .     S
C960   C1224   1.522   .     S
C960   H1229   1.111   .     S
H962   C1494   1.111   1_545 S
O964   C965    1.414   .     S
C965   H966    1.115   .     S
C965   H967    1.111   .     S
C965   C968    1.521   .     S
C968   H970    1.111   .     S
C968   H969    1.111   .     S
C968   H971    1.111   .     S
O972   C973    1.413   .     S
C973   H974    1.114   .     S
C973   H975    1.115   .     S
C973   C976    1.521   .     S
C976   H977    1.110   .     S
H978   C1065   1.111   .     S
H979   C1065   1.111   .     S
Zn980  O984    1.964   .     S
Zn980  O986    1.918   .     S
Zn980  O992    1.917   .     S
Zn980  O993    1.933   .     S
Zn981  O995    1.921   .     S
Zn981  O984    1.948   .     S
Zn981  O989    1.922   .     S
Zn981  O987    1.941   .     S
Zn982  O991    1.932   .     S
Zn982  O988    1.934   .     S
Zn982  O984    1.926   .     S
Zn982  O996    1.937   .     S
Zn983  O985    1.933   .     S
Zn983  O990    1.938   .     S
Zn983  O984    1.924   .     S
Zn983  O994    1.935   .     S
O985   C997    1.269   .     A
O986   C998    1.277   .     A
O987   C999    1.276   .     A
O988   C1000   1.271   .     A
O989   C1001   1.279   .     A
O990   C1002   1.281   .     A
O991   C1001   1.271   .     A
O992   C1002   1.288   .     A
O993   C999    1.278   .     A
O994   C1000   1.260   .     A
O995   C997    1.270   .     A
O996   C998    1.282   .     A
C997   C1029   1.437   .     S
C998   C1027   1.456   .     S
C999   C1033   1.443   .     S
C1000  C1031   1.454   .     S
C1001  C1004   1.459   .     S
C1002  C1003   1.478   .     S
C1003  C1006   1.409   .     A
C1003  C1007   1.397   .     A
C1004  C1019   1.408   .     A
C1004  C1020   1.391   .     A
C1005  H1023   1.081   .     S
C1005  C1006   1.399   .     A
C1005  C1009   1.408   .     A
C1006  O1061   1.383   .     S
C1007  C1008   1.409   .     A
C1007  H1024   1.076   .     S
C1008  C1009   1.420   .     A
C1008  C1010   1.424   .     A
C1009  C212    1.408   1_556 S
C1010  C1014   1.413   .     A
C1010  C210    1.422   1_556 S
C1011  C1017   1.430   .     A
C1011  C1012   1.413   .     A
C1012  H1025   1.075   .     S
C1012  C1013   1.395   .     A
C1013  N1034   1.438   .     S
C1014  C1015   1.382   .     A
C1014  H1026   1.077   .     S
C1015  H1022   1.083   .     S
C1015  C215    1.395   1_556 S
C1016  C1017   1.422   .     A
C1016  C1018   1.413   .     A
C1017  C1020   1.410   .     A
C1018  C1019   1.401   .     A
C1018  O1037   1.384   .     S
C1019  O1053   1.386   .     S
C1020  H1021   1.077   .     S
C1027  H850    1.087   1_655 S
C1027  C851    1.336   1_655 S
H1030  C851    1.086   1_655 S
C1031  H1299   1.088   .     S
C1031  C1300   1.343   .     S
H1032  C1565   1.088   1_545 S
C1033  C1565   1.343   1_545 S
C1033  O1579   1.398   1_545 S
N1034  O1035   1.301   .     A
N1034  O1036   1.301   .     A
O1037  C1038   1.411   .     S
C1038  H1040   1.111   .     S
C1038  C62     1.522   1_655 S
H1039  C237    1.116   1_556 S
C1041  H1042   1.112   .     S
C1041  H1043   1.111   .     S
C1041  H1044   1.112   .     S
C1041  C148    1.522   1_556 S
O1045  C1300   1.398   .     S
O1045  C1313   1.413   .     S
C1046  H1047   1.113   .     S
C1046  H1048   1.115   .     S
C1046  O1579   1.413   1_545 S
C1046  C1583   1.522   1_545 S
C1049  H1050   1.111   .     S
C1049  H1052   1.111   .     S
C1049  C1313   1.522   .     S
C1049  H1318   1.111   .     S
H1051  C1583   1.111   1_545 S
O1053  C1054   1.414   .     S
C1054  H1055   1.115   .     S
C1054  H1056   1.111   .     S
C1054  C1057   1.521   .     S
C1057  H1059   1.111   .     S
C1057  H1058   1.111   .     S
C1057  H1060   1.111   .     S
O1061  C1062   1.413   .     S
C1062  H1063   1.114   .     S
C1062  H1064   1.115   .     S
C1062  C1065   1.521   .     S
C1065  H1066   1.110   .     S
H1067  C887    1.111   1_655 S
H1068  C887    1.111   1_655 S
Zn1069 O1073   1.964   .     S
Zn1069 O1075   1.918   .     S
Zn1069 O1081   1.917   .     S
Zn1069 O1082   1.933   .     S
Zn1070 O1084   1.921   .     S
Zn1070 O1073   1.948   .     S
Zn1070 O1078   1.922   .     S
Zn1070 O1076   1.941   .     S
Zn1071 O1080   1.932   .     S
Zn1071 O1077   1.934   .     S
Zn1071 O1073   1.926   .     S
Zn1071 O1085   1.937   .     S
Zn1072 O1074   1.933   .     S
Zn1072 O1079   1.938   .     S
Zn1072 O1073   1.924   .     S
Zn1072 O1083   1.935   .     S
O1074  C1086   1.269   .     A
O1075  C1087   1.277   .     A
O1076  C1088   1.276   .     A
O1077  C1089   1.271   .     A
O1078  C1090   1.279   .     A
O1079  C1091   1.281   .     A
O1080  C1090   1.271   .     A
O1081  C1091   1.288   .     A
O1082  C1088   1.278   .     A
O1083  C1089   1.260   .     A
O1084  C1086   1.270   .     A
O1085  C1087   1.282   .     A
C1086  C1118   1.437   .     S
C1087  C1116   1.456   .     S
C1088  C1122   1.443   .     S
C1089  C1120   1.454   .     S
C1090  C1093   1.459   .     S
C1091  C1092   1.478   .     S
C1092  C1095   1.409   .     A
C1092  C1096   1.397   .     A
C1093  C1108   1.408   .     A
C1093  C1109   1.391   .     A
C1094  H1112   1.081   .     S
C1094  C1095   1.399   .     A
C1094  C1098   1.408   .     A
C1095  O1150   1.383   .     S
C1096  C1097   1.409   .     A
C1096  H1113   1.076   .     S
C1097  C1098   1.420   .     A
C1097  C1099   1.424   .     A
C1098  C301    1.408   1_556 S
C1099  C1103   1.413   .     A
C1099  C299    1.422   1_556 S
C1100  C1106   1.430   .     A
C1100  C1101   1.413   .     A
C1101  H1114   1.075   .     S
C1101  C1102   1.395   .     A
C1102  N1123   1.438   .     S
C1103  C1104   1.382   .     A
C1103  H1115   1.077   .     S
C1104  H1111   1.083   .     S
C1104  C304    1.395   1_556 S
C1105  C1106   1.422   .     A
C1105  C1107   1.413   .     A
C1106  C1109   1.410   .     A
C1107  C1108   1.401   .     A
C1107  O1126   1.384   .     S
C1108  O1142   1.386   .     S
C1109  H1110   1.077   .     S
C1116  H1206   1.087   .     S
C1116  C1207   1.336   .     S
H1117  C1294   1.087   1_455 S
C1118  C1294   1.336   1_455 S
C1118  H1297   1.086   1_455 S
H1119  C1207   1.086   .     S
C1120  H1388   1.088   .     S
C1120  C1389   1.343   .     S
N1123  O1124   1.301   .     A
N1123  O1125   1.301   .     A
O1126  C1127   1.411   .     S
C1127  H1129   1.111   .     S
H1128  C326    1.116   1_556 S
C1130  H1131   1.112   .     S
C1130  H1132   1.111   .     S
C1130  H1133   1.112   .     S
C1130  C504    1.522   1_456 S
O1134  C1389   1.398   .     S
O1134  C1402   1.413   .     S
C1135  H1136   1.113   .     S
C1135  H1137   1.115   .     S
C1138  H1139   1.111   .     S
C1138  H1141   1.111   .     S
C1138  C1402   1.522   .     S
C1138  H1407   1.111   .     S
O1142  C1143   1.414   .     S
C1143  H1144   1.115   .     S
C1143  H1145   1.111   .     S
C1143  C1146   1.521   .     S
C1146  H1148   1.111   .     S
C1146  H1147   1.111   .     S
C1146  H1149   1.111   .     S
O1150  C1151   1.413   .     S
C1151  H1152   1.114   .     S
C1151  H1153   1.115   .     S
C1151  C1154   1.521   .     S
C1154  H1155   1.110   .     S
C1154  H1334   1.111   1_455 S
C1154  H1335   1.111   1_455 S
H1156  C1243   1.111   .     S
H1157  C1243   1.111   .     S
Zn1158 O1162   1.964   .     S
Zn1158 O1164   1.918   .     S
Zn1158 O1170   1.917   .     S
Zn1158 O1171   1.933   .     S
Zn1159 O1173   1.921   .     S
Zn1159 O1162   1.948   .     S
Zn1159 O1167   1.922   .     S
Zn1159 O1165   1.941   .     S
Zn1160 O1169   1.932   .     S
Zn1160 O1166   1.934   .     S
Zn1160 O1162   1.926   .     S
Zn1160 O1174   1.937   .     S
Zn1161 O1163   1.933   .     S
Zn1161 O1168   1.938   .     S
Zn1161 O1162   1.924   .     S
Zn1161 O1172   1.935   .     S
O1163  C1175   1.269   .     A
O1164  C1176   1.277   .     A
O1165  C1177   1.276   .     A
O1166  C1178   1.271   .     A
O1167  C1179   1.279   .     A
O1168  C1180   1.281   .     A
O1169  C1179   1.271   .     A
O1170  C1180   1.288   .     A
O1171  C1177   1.278   .     A
O1172  C1178   1.260   .     A
O1173  C1175   1.270   .     A
O1174  C1176   1.282   .     A
C1175  C1207   1.437   .     S
C1176  C1205   1.456   .     S
C1177  C1211   1.443   .     S
C1178  C1209   1.454   .     S
C1179  C1182   1.459   .     S
C1180  C1181   1.478   .     S
C1181  C1184   1.409   .     A
C1181  C1185   1.397   .     A
C1182  C1197   1.408   .     A
C1182  C1198   1.391   .     A
C1183  H1201   1.081   .     S
C1183  C1184   1.399   .     A
C1183  C1187   1.408   .     A
C1184  O1239   1.383   .     S
C1185  C1186   1.409   .     A
C1185  H1202   1.076   .     S
C1186  C1187   1.420   .     A
C1186  C1188   1.424   .     A
C1187  C390    1.408   1_556 S
C1188  C1192   1.413   .     A
C1188  C388    1.422   1_556 S
C1189  C1195   1.430   .     A
C1189  C1190   1.413   .     A
C1190  H1203   1.075   .     S
C1190  C1191   1.395   .     A
C1191  N1212   1.438   .     S
C1192  C1193   1.382   .     A
C1192  H1204   1.077   .     S
C1193  H1200   1.083   .     S
C1193  C393    1.395   1_556 S
C1194  C1195   1.422   .     A
C1194  C1196   1.413   .     A
C1195  C1198   1.410   .     A
C1196  C1197   1.401   .     A
C1196  O1215   1.384   .     S
C1197  O1231   1.386   .     S
C1198  H1199   1.077   .     S
C1205  H1295   1.087   .     S
C1205  C1296   1.336   .     S
H1208  C1296   1.086   .     S
C1209  H1477   1.088   .     S
C1209  C1478   1.343   .     S
N1212  O1213   1.301   .     A
N1212  O1214   1.301   .     A
O1215  C1216   1.411   .     S
C1216  H1218   1.111   .     S
H1217  C415    1.116   1_556 S
C1219  H1220   1.112   .     S
C1219  H1221   1.111   .     S
C1219  H1222   1.112   .     S
C1219  C326    1.522   1_556 S
O1223  C1478   1.398   .     S
O1223  C1491   1.413   .     S
C1224  H1225   1.113   .     S
C1224  H1226   1.115   .     S
C1227  H1228   1.111   .     S
C1227  H1230   1.111   .     S
C1227  C1491   1.522   .     S
C1227  H1496   1.111   .     S
O1231  C1232   1.414   .     S
C1232  H1233   1.115   .     S
C1232  H1234   1.111   .     S
C1232  C1235   1.521   .     S
C1235  H1237   1.111   .     S
C1235  H1236   1.111   .     S
C1235  H1238   1.111   .     S
O1239  C1240   1.413   .     S
C1240  H1241   1.114   .     S
C1240  H1242   1.115   .     S
C1240  C1243   1.521   .     S
C1243  H1244   1.110   .     S
H1245  C1332   1.111   .     S
H1246  C1332   1.111   .     S
Zn1247 O1251   1.964   .     S
Zn1247 O1253   1.918   .     S
Zn1247 O1259   1.917   .     S
Zn1247 O1260   1.933   .     S
Zn1248 O1262   1.921   .     S
Zn1248 O1251   1.948   .     S
Zn1248 O1256   1.922   .     S
Zn1248 O1254   1.941   .     S
Zn1249 O1258   1.932   .     S
Zn1249 O1255   1.934   .     S
Zn1249 O1251   1.926   .     S
Zn1249 O1263   1.937   .     S
Zn1250 O1252   1.933   .     S
Zn1250 O1257   1.938   .     S
Zn1250 O1251   1.924   .     S
Zn1250 O1261   1.935   .     S
O1252  C1264   1.269   .     A
O1253  C1265   1.277   .     A
O1254  C1266   1.276   .     A
O1255  C1267   1.271   .     A
O1256  C1268   1.279   .     A
O1257  C1269   1.281   .     A
O1258  C1268   1.271   .     A
O1259  C1269   1.288   .     A
O1260  C1266   1.278   .     A
O1261  C1267   1.260   .     A
O1262  C1264   1.270   .     A
O1263  C1265   1.282   .     A
C1264  C1296   1.437   .     S
C1265  C1294   1.456   .     S
C1266  C1300   1.443   .     S
C1267  C1298   1.454   .     S
C1268  C1271   1.459   .     S
C1269  C1270   1.478   .     S
C1270  C1273   1.409   .     A
C1270  C1274   1.397   .     A
C1271  C1286   1.408   .     A
C1271  C1287   1.391   .     A
C1272  H1290   1.081   .     S
C1272  C1273   1.399   .     A
C1272  C1276   1.408   .     A
C1273  O1328   1.383   .     S
C1274  C1275   1.409   .     A
C1274  H1291   1.076   .     S
C1275  C1276   1.420   .     A
C1275  C1277   1.424   .     A
C1276  C479    1.408   1_556 S
C1277  C1281   1.413   .     A
C1277  C477    1.422   1_556 S
C1278  C1284   1.430   .     A
C1278  C1279   1.413   .     A
C1279  H1292   1.075   .     S
C1279  C1280   1.395   .     A
C1280  N1301   1.438   .     S
C1281  C1282   1.382   .     A
C1281  H1293   1.077   .     S
C1282  H1289   1.083   .     S
C1282  C482    1.395   1_556 S
C1283  C1284   1.422   .     A
C1283  C1285   1.413   .     A
C1284  C1287   1.410   .     A
C1285  C1286   1.401   .     A
C1285  O1304   1.384   .     S
C1286  O1320   1.386   .     S
C1287  H1288   1.077   .     S
C1294  H1117   1.087   1_655 S
C1294  C1118   1.336   1_655 S
H1297  C1118   1.086   1_655 S
C1298  H1566   1.088   .     S
C1298  C1567   1.343   .     S
N1301  O1302   1.301   .     A
N1301  O1303   1.301   .     A
O1304  C1305   1.411   .     S
C1305  H1307   1.111   .     S
C1305  C329    1.522   1_655 S
H1306  C504    1.116   1_556 S
C1308  H1309   1.112   .     S
C1308  H1310   1.111   .     S
C1308  H1311   1.112   .     S
C1308  C415    1.522   1_556 S
O1312  C1567   1.398   .     S
O1312  C1580   1.413   .     S
C1313  H1314   1.113   .     S
C1313  H1315   1.115   .     S
C1316  H1317   1.111   .     S
C1316  H1319   1.111   .     S
C1316  C1580   1.522   .     S
C1316  H1585   1.111   .     S
O1320  C1321   1.414   .     S
C1321  H1322   1.115   .     S
C1321  H1323   1.111   .     S
C1321  C1324   1.521   .     S
C1324  H1326   1.111   .     S
C1324  H1325   1.111   .     S
C1324  H1327   1.111   .     S
O1328  C1329   1.413   .     S
C1329  H1330   1.114   .     S
C1329  H1331   1.115   .     S
C1329  C1332   1.521   .     S
C1332  H1333   1.110   .     S
H1334  C1154   1.111   1_655 S
H1335  C1154   1.111   1_655 S
Zn1336 O1340   1.964   .     S
Zn1336 O1342   1.918   .     S
Zn1336 O1348   1.917   .     S
Zn1336 O1349   1.933   .     S
Zn1337 O1351   1.921   .     S
Zn1337 O1340   1.948   .     S
Zn1337 O1345   1.922   .     S
Zn1337 O1343   1.941   .     S
Zn1338 O1347   1.932   .     S
Zn1338 O1344   1.934   .     S
Zn1338 O1340   1.926   .     S
Zn1338 O1352   1.937   .     S
Zn1339 O1341   1.933   .     S
Zn1339 O1346   1.938   .     S
Zn1339 O1340   1.924   .     S
Zn1339 O1350   1.935   .     S
O1341  C1353   1.269   .     A
O1342  C1354   1.277   .     A
O1343  C1355   1.276   .     A
O1344  C1356   1.271   .     A
O1345  C1357   1.279   .     A
O1346  C1358   1.281   .     A
O1347  C1357   1.271   .     A
O1348  C1358   1.288   .     A
O1349  C1355   1.278   .     A
O1350  C1356   1.260   .     A
O1351  C1353   1.270   .     A
O1352  C1354   1.282   .     A
C1353  C1385   1.437   .     S
C1354  C1383   1.456   .     S
C1355  C1389   1.443   .     S
C1356  C1387   1.454   .     S
C1357  C1360   1.459   .     S
C1358  C1359   1.478   .     S
C1359  C1362   1.409   .     A
C1359  C1363   1.397   .     A
C1360  C1375   1.408   .     A
C1360  C1376   1.391   .     A
C1361  H1379   1.081   .     S
C1361  C1362   1.399   .     A
C1361  C1365   1.408   .     A
C1362  O1417   1.383   .     S
C1363  C1364   1.409   .     A
C1363  H1380   1.076   .     S
C1364  C1365   1.420   .     A
C1364  C1366   1.424   .     A
C1365  C568    1.408   1_556 S
C1366  C1370   1.413   .     A
C1366  C566    1.422   1_556 S
C1367  C1373   1.430   .     A
C1367  C1368   1.413   .     A
C1368  H1381   1.075   .     S
C1368  C1369   1.395   .     A
C1369  N1390   1.438   .     S
C1370  C1371   1.382   .     A
C1370  H1382   1.077   .     S
C1371  H1378   1.083   .     S
C1371  C571    1.395   1_556 S
C1372  C1373   1.422   .     A
C1372  C1374   1.413   .     A
C1373  C1376   1.410   .     A
C1374  C1375   1.401   .     A
C1374  O1393   1.384   .     S
C1375  O1409   1.386   .     S
C1376  H1377   1.077   .     S
C1383  H1473   1.087   .     S
C1383  C1474   1.336   .     S
H1384  C1561   1.087   1_455 S
C1385  C1561   1.336   1_455 S
C1385  H1564   1.086   1_455 S
H1386  C1474   1.086   .     S
C1387  H854    1.088   1_565 S
C1387  C855    1.343   1_565 S
N1390  O1391   1.301   .     A
N1390  O1392   1.301   .     A
O1393  C1394   1.411   .     S
C1394  H1396   1.111   .     S
H1395  C593    1.116   1_556 S
C1397  H1398   1.112   .     S
C1397  H1399   1.111   .     S
C1397  H1400   1.112   .     S
C1397  C771    1.522   1_456 S
O1401  C855    1.398   1_565 S
O1401  C868    1.413   1_565 S
C1402  H1403   1.113   .     S
C1402  H1404   1.115   .     S
C1405  H1406   1.111   .     S
C1405  H1408   1.111   .     S
C1405  C868    1.522   1_565 S
C1405  H873    1.111   1_565 S
O1409  C1410   1.414   .     S
C1410  H1411   1.115   .     S
C1410  H1412   1.111   .     S
C1410  C1413   1.521   .     S
C1413  H1415   1.111   .     S
C1413  H1414   1.111   .     S
C1413  H1416   1.111   .     S
O1417  C1418   1.413   .     S
C1418  H1419   1.114   .     S
C1418  H1420   1.115   .     S
C1418  C1421   1.521   .     S
C1421  H1422   1.110   .     S
C1421  H1601   1.111   1_455 S
C1421  H1602   1.111   1_455 S
H1423  C1510   1.111   .     S
H1424  C1510   1.111   .     S
Zn1425 O1429   1.964   .     S
Zn1425 O1431   1.918   .     S
Zn1425 O1437   1.917   .     S
Zn1425 O1438   1.933   .     S
Zn1426 O1440   1.921   .     S
Zn1426 O1429   1.948   .     S
Zn1426 O1434   1.922   .     S
Zn1426 O1432   1.941   .     S
Zn1427 O1436   1.932   .     S
Zn1427 O1433   1.934   .     S
Zn1427 O1429   1.926   .     S
Zn1427 O1441   1.937   .     S
Zn1428 O1430   1.933   .     S
Zn1428 O1435   1.938   .     S
Zn1428 O1429   1.924   .     S
Zn1428 O1439   1.935   .     S
O1430  C1442   1.269   .     A
O1431  C1443   1.277   .     A
O1432  C1444   1.276   .     A
O1433  C1445   1.271   .     A
O1434  C1446   1.279   .     A
O1435  C1447   1.281   .     A
O1436  C1446   1.271   .     A
O1437  C1447   1.288   .     A
O1438  C1444   1.278   .     A
O1439  C1445   1.260   .     A
O1440  C1442   1.270   .     A
O1441  C1443   1.282   .     A
C1442  C1474   1.437   .     S
C1443  C1472   1.456   .     S
C1444  C1478   1.443   .     S
C1445  C1476   1.454   .     S
C1446  C1449   1.459   .     S
C1447  C1448   1.478   .     S
C1448  C1451   1.409   .     A
C1448  C1452   1.397   .     A
C1449  C1464   1.408   .     A
C1449  C1465   1.391   .     A
C1450  H1468   1.081   .     S
C1450  C1451   1.399   .     A
C1450  C1454   1.408   .     A
C1451  O1506   1.383   .     S
C1452  C1453   1.409   .     A
C1452  H1469   1.076   .     S
C1453  C1454   1.420   .     A
C1453  C1455   1.424   .     A
C1454  C657    1.408   1_556 S
C1455  C1459   1.413   .     A
C1455  C655    1.422   1_556 S
C1456  C1462   1.430   .     A
C1456  C1457   1.413   .     A
C1457  H1470   1.075   .     S
C1457  C1458   1.395   .     A
C1458  N1479   1.438   .     S
C1459  C1460   1.382   .     A
C1459  H1471   1.077   .     S
C1460  H1467   1.083   .     S
C1460  C660    1.395   1_556 S
C1461  C1462   1.422   .     A
C1461  C1463   1.413   .     A
C1462  C1465   1.410   .     A
C1463  C1464   1.401   .     A
C1463  O1482   1.384   .     S
C1464  O1498   1.386   .     S
C1465  H1466   1.077   .     S
C1472  H1562   1.087   .     S
C1472  C1563   1.336   .     S
H1475  C1563   1.086   .     S
C1476  H943    1.088   1_565 S
C1476  C944    1.343   1_565 S
N1479  O1480   1.301   .     A
N1479  O1481   1.301   .     A
O1482  C1483   1.411   .     S
C1483  H1485   1.111   .     S
H1484  C682    1.116   1_556 S
C1486  H1487   1.112   .     S
C1486  H1488   1.111   .     S
C1486  H1489   1.112   .     S
C1486  C593    1.522   1_556 S
O1490  C944    1.398   1_565 S
O1490  C957    1.413   1_565 S
C1491  H1492   1.113   .     S
C1491  H1493   1.115   .     S
C1494  H1495   1.111   .     S
C1494  H1497   1.111   .     S
C1494  C957    1.522   1_565 S
C1494  H962    1.111   1_565 S
O1498  C1499   1.414   .     S
C1499  H1500   1.115   .     S
C1499  H1501   1.111   .     S
C1499  C1502   1.521   .     S
C1502  H1504   1.111   .     S
C1502  H1503   1.111   .     S
C1502  H1505   1.111   .     S
O1506  C1507   1.413   .     S
C1507  H1508   1.114   .     S
C1507  H1509   1.115   .     S
C1507  C1510   1.521   .     S
C1510  H1511   1.110   .     S
H1512  C1599   1.111   .     S
H1513  C1599   1.111   .     S
Zn1514 O1518   1.964   .     S
Zn1514 O1520   1.918   .     S
Zn1514 O1526   1.917   .     S
Zn1514 O1527   1.933   .     S
Zn1515 O1529   1.921   .     S
Zn1515 O1518   1.948   .     S
Zn1515 O1523   1.922   .     S
Zn1515 O1521   1.941   .     S
Zn1516 O1525   1.932   .     S
Zn1516 O1522   1.934   .     S
Zn1516 O1518   1.926   .     S
Zn1516 O1530   1.937   .     S
Zn1517 O1519   1.933   .     S
Zn1517 O1524   1.938   .     S
Zn1517 O1518   1.924   .     S
Zn1517 O1528   1.935   .     S
O1519  C1531   1.269   .     A
O1520  C1532   1.277   .     A
O1521  C1533   1.276   .     A
O1522  C1534   1.271   .     A
O1523  C1535   1.279   .     A
O1524  C1536   1.281   .     A
O1525  C1535   1.271   .     A
O1526  C1536   1.288   .     A
O1527  C1533   1.278   .     A
O1528  C1534   1.260   .     A
O1529  C1531   1.270   .     A
O1530  C1532   1.282   .     A
C1531  C1563   1.437   .     S
C1532  C1561   1.456   .     S
C1533  C1567   1.443   .     S
C1534  C1565   1.454   .     S
C1535  C1538   1.459   .     S
C1536  C1537   1.478   .     S
C1537  C1540   1.409   .     A
C1537  C1541   1.397   .     A
C1538  C1553   1.408   .     A
C1538  C1554   1.391   .     A
C1539  H1557   1.081   .     S
C1539  C1540   1.399   .     A
C1539  C1543   1.408   .     A
C1540  O1595   1.383   .     S
C1541  C1542   1.409   .     A
C1541  H1558   1.076   .     S
C1542  C1543   1.420   .     A
C1542  C1544   1.424   .     A
C1543  C746    1.408   1_556 S
C1544  C1548   1.413   .     A
C1544  C744    1.422   1_556 S
C1545  C1551   1.430   .     A
C1545  C1546   1.413   .     A
C1546  H1559   1.075   .     S
C1546  C1547   1.395   .     A
C1547  N1568   1.438   .     S
C1548  C1549   1.382   .     A
C1548  H1560   1.077   .     S
C1549  H1556   1.083   .     S
C1549  C749    1.395   1_556 S
C1550  C1551   1.422   .     A
C1550  C1552   1.413   .     A
C1551  C1554   1.410   .     A
C1552  C1553   1.401   .     A
C1552  O1571   1.384   .     S
C1553  O1587   1.386   .     S
C1554  H1555   1.077   .     S
C1561  H1384   1.087   1_655 S
C1561  C1385   1.336   1_655 S
H1564  C1385   1.086   1_655 S
C1565  H1032   1.088   1_565 S
C1565  C1033   1.343   1_565 S
N1568  O1569   1.301   .     A
N1568  O1570   1.301   .     A
O1571  C1572   1.411   .     S
C1572  H1574   1.111   .     S
C1572  C596    1.522   1_655 S
H1573  C771    1.116   1_556 S
C1575  H1576   1.112   .     S
C1575  H1577   1.111   .     S
C1575  H1578   1.112   .     S
C1575  C682    1.522   1_556 S
O1579  C1033   1.398   1_565 S
O1579  C1046   1.413   1_565 S
C1580  H1581   1.113   .     S
C1580  H1582   1.115   .     S
C1583  H1584   1.111   .     S
C1583  H1586   1.111   .     S
C1583  C1046   1.522   1_565 S
C1583  H1051   1.111   1_565 S
O1587  C1588   1.414   .     S
C1588  H1589   1.115   .     S
C1588  H1590   1.111   .     S
C1588  C1591   1.521   .     S
C1591  H1593   1.111   .     S
C1591  H1592   1.111   .     S
C1591  H1594   1.111   .     S
O1595  C1596   1.413   .     S
C1596  H1597   1.114   .     S
C1596  H1598   1.115   .     S
C1596  C1599   1.521   .     S
C1599  H1600   1.110   .     S
H1601  C1421   1.111   1_655 S
H1602  C1421   1.111   1_655 S
