data_str_m1_o10_o18_pcu_sym.141
_audit_creation_date              2020-01-03
_audit_creation_method            'Materials Studio'
_symmetry_space_group_name_H-M    'P1'
_symmetry_Int_Tables_number       1
_symmetry_cell_setting            triclinic
loop_
_symmetry_equiv_pos_as_xyz
  x,y,z
_cell_length_a                    32.7520
_cell_length_b                    32.4599
_cell_length_c                    35.7874
_cell_angle_alpha                 97.9168
_cell_angle_beta                  72.7859
_cell_angle_gamma                 98.2997
loop_
_atom_site_label
_atom_site_type_symbol
_atom_site_fract_x
_atom_site_fract_y
_atom_site_fract_z
_atom_site_U_iso_or_equiv
_atom_site_adp_type
_atom_site_occupancy
C1     C     0.05297   0.16066   0.25812   0.00000  Uiso   1.00
C2     C     0.21509   0.15369   0.45976   0.00000  Uiso   1.00
C3     C     0.23958   0.13762   0.47896   0.00000  Uiso   1.00
C4     C     0.28093   0.17341   0.24147   0.00000  Uiso   1.00
C5     C     0.22524   0.13683   0.01980   0.00000  Uiso   1.00
C6     C     0.18491   0.15095   0.04152   0.00000  Uiso   1.00
C7     C     0.25137   0.12307   0.03943   0.00000  Uiso   1.00
C8     C     0.23869   0.12428   0.08015   0.00000  Uiso   1.00
C9     C     0.17187   0.14942   0.08265   0.00000  Uiso   1.00
C10    C     0.32650   0.17482   0.23852   0.00000  Uiso   1.00
C11    C     0.00748   0.15740   0.26388   0.00000  Uiso   1.00
C12    C     0.09500   0.21066   0.42185   0.00000  Uiso   1.00
C13    C     0.18087   0.32222   0.23815   0.00000  Uiso   1.00
C14    C     0.15171   0.01218   0.26234   0.00000  Uiso   1.00
C15    C     0.15595   0.05621   0.25899   0.00000  Uiso   1.00
C16    C     0.17687   0.27768   0.24137   0.00000  Uiso   1.00
C17    C     0.18868   0.14515   0.14414   0.00000  Uiso   1.00
C18    C     0.14491   0.18736   0.35621   0.00000  Uiso   1.00
C19    C     0.13308   0.19360   0.39949   0.00000  Uiso   1.00
C20    C     0.19899   0.13743   0.10163   0.00000  Uiso   1.00
C21    C     0.08445   0.21420   0.46285   0.00000  Uiso   1.00
C22    C     0.31316   0.13584   0.29924   0.00000  Uiso   1.00
C23    C     0.15927   0.17965   0.41863   0.00000  Uiso   1.00
C24    C     0.27457   0.08580   0.43820   0.00000  Uiso   1.00
C25    C     0.31850   0.07322   0.41435   0.00000  Uiso   1.00
C26    C     0.03359   0.19244   0.40362   0.00000  Uiso   1.00
C27    C     0.00261   0.20719   0.38527   0.00000  Uiso   1.00
C28    C     0.14872   0.18229   0.45994   0.00000  Uiso   1.00
C29    C     0.11022   0.19928   0.48186   0.00000  Uiso   1.00
C30    C     0.17461   0.16750   0.48000   0.00000  Uiso   1.00
C31    C     0.15979   0.16720   0.02165   0.00000  Uiso   1.00
C32    C     0.12097   0.18437   0.04216   0.00000  Uiso   1.00
C33    C     0.09715   0.20055   0.02260   0.00000  Uiso   1.00
H34    H     0.06772   0.21354   0.03958   0.00000  Uiso   1.00
H35    H     0.10806   0.18658   0.07361   0.00000  Uiso   1.00
H36    H     0.22979   0.15598   0.42887   0.00000  Uiso   1.00
H37    H     0.33321   0.12614   0.31604   0.00000  Uiso   1.00
H38    H     0.29132   0.15747   0.31966   0.00000  Uiso   1.00
H39    H     0.29456   0.10702   0.28973   0.00000  Uiso   1.00
H40    H     0.25473   0.08508   0.41758   0.00000  Uiso   1.00
H41    H     0.25926   0.06248   0.45976   0.00000  Uiso   1.00
H42    H     0.00621   0.07441   0.43385   0.00000  Uiso   1.00
H43    H     0.31498   0.04089   0.39990   0.00000  Uiso   1.00
H44    H     0.00034   0.09481   0.39133   0.00000  Uiso   1.00
H45    H     0.28235   0.11260   0.02352   0.00000  Uiso   1.00
H46    H     0.01536   0.18508   0.43399   0.00000  Uiso   1.00
H47    H     0.04577   0.16347   0.38583   0.00000  Uiso   1.00
H48    H     0.01937   0.21391   0.35454   0.00000  Uiso   1.00
H49    H     0.30874   0.18245   0.38520   0.00000  Uiso   1.00
H50    H     0.32305   0.23598   0.40250   0.00000  Uiso   1.00
H51    H     0.01613   0.19053   0.21466   0.00000  Uiso   1.00
H52    H     0.20778   0.00284   0.21592   0.00000  Uiso   1.00
H53    H     0.12445   0.33236   0.28468   0.00000  Uiso   1.00
H54    H     0.14176   0.15909   0.10128   0.00000  Uiso   1.00
H55    H     0.26012   0.11559   0.09500   0.00000  Uiso   1.00
H56    H     0.05523   0.22757   0.47980   0.00000  Uiso   1.00
H57    H     0.18711   0.16555   0.40029   0.00000  Uiso   1.00
O58    O     0.16667   0.16667   0.25000   0.00000  Uiso   1.00
O59    O     0.15693   0.12393   0.16625   0.00000  Uiso   1.00
O60    O     0.12687   0.20646   0.33749   0.00000  Uiso   1.00
O61    O     0.21088   0.17493   0.15877   0.00000  Uiso   1.00
O62    O     0.17198   0.16135   0.33749   0.00000  Uiso   1.00
O63    O     0.27974   0.12617   0.45784   0.00000  Uiso   1.00
O64    O     0.06794   0.22416   0.40395   0.00000  Uiso   1.00
O65    O     0.17849   0.08101   0.27821   0.00000  Uiso   1.00
O66    O     0.14581   0.26136   0.26767   0.00000  Uiso   1.00
O67    O     0.07452   0.13251   0.23607   0.00000  Uiso   1.00
O68    O     0.26785   0.19179   0.21806   0.00000  Uiso   1.00
O69    O     0.06990   0.18960   0.27820   0.00000  Uiso   1.00
O70    O     0.25440   0.15277   0.26768   0.00000  Uiso   1.00
O71    O     0.13800   0.06903   0.23607   0.00000  Uiso   1.00
O72    O     0.20437   0.25527   0.21806   0.00000  Uiso   1.00
Zn73   Zn    0.19244   0.14090   0.28278   0.00000  Uiso   1.00
Zn74   Zn    0.13459   0.12378   0.22258   0.00000  Uiso   1.00
Zn75   Zn    0.21166   0.19664   0.21188   0.00000  Uiso   1.00
Zn76   Zn    0.12798   0.20535   0.28277   0.00000  Uiso   1.00
C77    C     0.38631   0.16066   0.25812   0.00000  Uiso   1.00
C78    C     0.54842   0.15369   0.45976   0.00000  Uiso   1.00
C79    C     0.57291   0.13762   0.47896   0.00000  Uiso   1.00
C80    C     0.61426   0.17341   0.24147   0.00000  Uiso   1.00
C81    C     0.55857   0.13683   0.01980   0.00000  Uiso   1.00
C82    C     0.51824   0.15095   0.04152   0.00000  Uiso   1.00
C83    C     0.58471   0.12307   0.03943   0.00000  Uiso   1.00
C84    C     0.57202   0.12428   0.08015   0.00000  Uiso   1.00
C85    C     0.50520   0.14942   0.08265   0.00000  Uiso   1.00
C86    C     0.65983   0.17482   0.23852   0.00000  Uiso   1.00
C87    C     0.34082   0.15740   0.26388   0.00000  Uiso   1.00
C88    C     0.42833   0.21066   0.42185   0.00000  Uiso   1.00
C89    C     0.51421   0.32222   0.23815   0.00000  Uiso   1.00
C90    C     0.48505   0.01218   0.26234   0.00000  Uiso   1.00
C91    C     0.48928   0.05621   0.25899   0.00000  Uiso   1.00
C92    C     0.51020   0.27768   0.24137   0.00000  Uiso   1.00
C93    C     0.52201   0.14515   0.14414   0.00000  Uiso   1.00
C94    C     0.47825   0.18736   0.35621   0.00000  Uiso   1.00
C95    C     0.46642   0.19360   0.39949   0.00000  Uiso   1.00
C96    C     0.53232   0.13743   0.10163   0.00000  Uiso   1.00
C97    C     0.41778   0.21420   0.46285   0.00000  Uiso   1.00
C98    C     0.64650   0.13584   0.29924   0.00000  Uiso   1.00
C99    C     0.49261   0.17965   0.41863   0.00000  Uiso   1.00
C100   C     0.60790   0.08580   0.43820   0.00000  Uiso   1.00
C101   C     0.65183   0.07322   0.41435   0.00000  Uiso   1.00
C102   C     0.36693   0.19244   0.40362   0.00000  Uiso   1.00
C103   C     0.33595   0.20719   0.38527   0.00000  Uiso   1.00
C104   C     0.48206   0.18229   0.45994   0.00000  Uiso   1.00
C105   C     0.44356   0.19928   0.48186   0.00000  Uiso   1.00
C106   C     0.50794   0.16750   0.48000   0.00000  Uiso   1.00
C107   C     0.49312   0.16720   0.02165   0.00000  Uiso   1.00
C108   C     0.45431   0.18437   0.04216   0.00000  Uiso   1.00
C109   C     0.43049   0.20055   0.02260   0.00000  Uiso   1.00
H110   H     0.40106   0.21354   0.03958   0.00000  Uiso   1.00
H111   H     0.44140   0.18658   0.07361   0.00000  Uiso   1.00
H112   H     0.56312   0.15598   0.42887   0.00000  Uiso   1.00
H113   H     0.66655   0.12614   0.31604   0.00000  Uiso   1.00
H114   H     0.62465   0.15747   0.31966   0.00000  Uiso   1.00
H115   H     0.62789   0.10702   0.28973   0.00000  Uiso   1.00
H116   H     0.58806   0.08508   0.41758   0.00000  Uiso   1.00
H117   H     0.59259   0.06248   0.45976   0.00000  Uiso   1.00
H118   H     0.33955   0.07441   0.43385   0.00000  Uiso   1.00
H119   H     0.64831   0.04089   0.39990   0.00000  Uiso   1.00
H120   H     0.33367   0.09481   0.39133   0.00000  Uiso   1.00
H121   H     0.61568   0.11260   0.02352   0.00000  Uiso   1.00
H122   H     0.34869   0.18508   0.43399   0.00000  Uiso   1.00
H123   H     0.37910   0.16347   0.38583   0.00000  Uiso   1.00
H124   H     0.35270   0.21391   0.35454   0.00000  Uiso   1.00
H125   H     0.64207   0.18245   0.38520   0.00000  Uiso   1.00
H126   H     0.65639   0.23598   0.40250   0.00000  Uiso   1.00
H127   H     0.34946   0.19053   0.21466   0.00000  Uiso   1.00
H128   H     0.54111   0.00284   0.21592   0.00000  Uiso   1.00
H129   H     0.45778   0.33236   0.28468   0.00000  Uiso   1.00
H130   H     0.47509   0.15909   0.10128   0.00000  Uiso   1.00
H131   H     0.59346   0.11559   0.09500   0.00000  Uiso   1.00
H132   H     0.38856   0.22757   0.47980   0.00000  Uiso   1.00
H133   H     0.52044   0.16555   0.40029   0.00000  Uiso   1.00
O134   O     0.50000   0.16667   0.25000   0.00000  Uiso   1.00
O135   O     0.49027   0.12393   0.16625   0.00000  Uiso   1.00
O136   O     0.46020   0.20646   0.33749   0.00000  Uiso   1.00
O137   O     0.54421   0.17493   0.15877   0.00000  Uiso   1.00
O138   O     0.50532   0.16135   0.33749   0.00000  Uiso   1.00
O139   O     0.61308   0.12617   0.45784   0.00000  Uiso   1.00
O140   O     0.40128   0.22416   0.40395   0.00000  Uiso   1.00
O141   O     0.51182   0.08101   0.27821   0.00000  Uiso   1.00
O142   O     0.47914   0.26136   0.26767   0.00000  Uiso   1.00
O143   O     0.40785   0.13251   0.23607   0.00000  Uiso   1.00
O144   O     0.60119   0.19179   0.21806   0.00000  Uiso   1.00
O145   O     0.40323   0.18960   0.27820   0.00000  Uiso   1.00
O146   O     0.58773   0.15277   0.26768   0.00000  Uiso   1.00
O147   O     0.47133   0.06903   0.23607   0.00000  Uiso   1.00
O148   O     0.53771   0.25527   0.21806   0.00000  Uiso   1.00
Zn149  Zn    0.52577   0.14090   0.28278   0.00000  Uiso   1.00
Zn150  Zn    0.46792   0.12378   0.22258   0.00000  Uiso   1.00
Zn151  Zn    0.54500   0.19664   0.21188   0.00000  Uiso   1.00
Zn152  Zn    0.46131   0.20535   0.28277   0.00000  Uiso   1.00
C153   C     0.71964   0.16066   0.25812   0.00000  Uiso   1.00
C154   C     0.88175   0.15369   0.45976   0.00000  Uiso   1.00
C155   C     0.90624   0.13762   0.47896   0.00000  Uiso   1.00
C156   C     0.94759   0.17341   0.24147   0.00000  Uiso   1.00
C157   C     0.89191   0.13683   0.01980   0.00000  Uiso   1.00
C158   C     0.85157   0.15095   0.04152   0.00000  Uiso   1.00
C159   C     0.91804   0.12307   0.03943   0.00000  Uiso   1.00
C160   C     0.90536   0.12428   0.08015   0.00000  Uiso   1.00
C161   C     0.83853   0.14942   0.08265   0.00000  Uiso   1.00
C162   C     0.99317   0.17482   0.23852   0.00000  Uiso   1.00
C163   C     0.67415   0.15740   0.26388   0.00000  Uiso   1.00
C164   C     0.76166   0.21066   0.42185   0.00000  Uiso   1.00
C165   C     0.84754   0.32222   0.23815   0.00000  Uiso   1.00
C166   C     0.81838   0.01218   0.26234   0.00000  Uiso   1.00
C167   C     0.82261   0.05621   0.25899   0.00000  Uiso   1.00
C168   C     0.84353   0.27768   0.24137   0.00000  Uiso   1.00
C169   C     0.85534   0.14515   0.14414   0.00000  Uiso   1.00
C170   C     0.81158   0.18736   0.35621   0.00000  Uiso   1.00
C171   C     0.79975   0.19360   0.39949   0.00000  Uiso   1.00
C172   C     0.86565   0.13743   0.10163   0.00000  Uiso   1.00
C173   C     0.75112   0.21420   0.46285   0.00000  Uiso   1.00
C174   C     0.97983   0.13584   0.29924   0.00000  Uiso   1.00
C175   C     0.82594   0.17965   0.41863   0.00000  Uiso   1.00
C176   C     0.94123   0.08580   0.43820   0.00000  Uiso   1.00
C177   C     0.98517   0.07322   0.41435   0.00000  Uiso   1.00
C178   C     0.70026   0.19244   0.40362   0.00000  Uiso   1.00
C179   C     0.66928   0.20719   0.38527   0.00000  Uiso   1.00
C180   C     0.81539   0.18229   0.45994   0.00000  Uiso   1.00
C181   C     0.77689   0.19928   0.48186   0.00000  Uiso   1.00
C182   C     0.84128   0.16750   0.48000   0.00000  Uiso   1.00
C183   C     0.82646   0.16720   0.02165   0.00000  Uiso   1.00
C184   C     0.78764   0.18437   0.04216   0.00000  Uiso   1.00
C185   C     0.76382   0.20055   0.02260   0.00000  Uiso   1.00
H186   H     0.73439   0.21354   0.03958   0.00000  Uiso   1.00
H187   H     0.77473   0.18658   0.07361   0.00000  Uiso   1.00
H188   H     0.89646   0.15598   0.42887   0.00000  Uiso   1.00
H189   H     0.99988   0.12614   0.31604   0.00000  Uiso   1.00
H190   H     0.95798   0.15747   0.31966   0.00000  Uiso   1.00
H191   H     0.96122   0.10702   0.28973   0.00000  Uiso   1.00
H192   H     0.92140   0.08508   0.41758   0.00000  Uiso   1.00
H193   H     0.92592   0.06248   0.45976   0.00000  Uiso   1.00
H194   H     0.67288   0.07441   0.43385   0.00000  Uiso   1.00
H195   H     0.98164   0.04089   0.39990   0.00000  Uiso   1.00
H196   H     0.66701   0.09481   0.39133   0.00000  Uiso   1.00
H197   H     0.94902   0.11260   0.02352   0.00000  Uiso   1.00
H198   H     0.68202   0.18508   0.43399   0.00000  Uiso   1.00
H199   H     0.71243   0.16347   0.38583   0.00000  Uiso   1.00
H200   H     0.68604   0.21391   0.35454   0.00000  Uiso   1.00
H201   H     0.97540   0.18245   0.38520   0.00000  Uiso   1.00
H202   H     0.98972   0.23598   0.40250   0.00000  Uiso   1.00
H203   H     0.68280   0.19053   0.21466   0.00000  Uiso   1.00
H204   H     0.87444   0.00284   0.21592   0.00000  Uiso   1.00
H205   H     0.79112   0.33236   0.28468   0.00000  Uiso   1.00
H206   H     0.80843   0.15909   0.10128   0.00000  Uiso   1.00
H207   H     0.92679   0.11559   0.09500   0.00000  Uiso   1.00
H208   H     0.72190   0.22757   0.47980   0.00000  Uiso   1.00
H209   H     0.85377   0.16555   0.40029   0.00000  Uiso   1.00
O210   O     0.83333   0.16667   0.25000   0.00000  Uiso   1.00
O211   O     0.82360   0.12393   0.16625   0.00000  Uiso   1.00
O212   O     0.79354   0.20646   0.33749   0.00000  Uiso   1.00
O213   O     0.87755   0.17493   0.15877   0.00000  Uiso   1.00
O214   O     0.83865   0.16135   0.33749   0.00000  Uiso   1.00
O215   O     0.94641   0.12617   0.45784   0.00000  Uiso   1.00
O216   O     0.73461   0.22416   0.40395   0.00000  Uiso   1.00
O217   O     0.84515   0.08101   0.27821   0.00000  Uiso   1.00
O218   O     0.81247   0.26136   0.26767   0.00000  Uiso   1.00
O219   O     0.74119   0.13251   0.23607   0.00000  Uiso   1.00
O220   O     0.93452   0.19179   0.21806   0.00000  Uiso   1.00
O221   O     0.73656   0.18960   0.27820   0.00000  Uiso   1.00
O222   O     0.92106   0.15277   0.26768   0.00000  Uiso   1.00
O223   O     0.80467   0.06903   0.23607   0.00000  Uiso   1.00
O224   O     0.87104   0.25527   0.21806   0.00000  Uiso   1.00
Zn225  Zn    0.85910   0.14090   0.28278   0.00000  Uiso   1.00
Zn226  Zn    0.80125   0.12378   0.22258   0.00000  Uiso   1.00
Zn227  Zn    0.87833   0.19664   0.21188   0.00000  Uiso   1.00
Zn228  Zn    0.79465   0.20535   0.28277   0.00000  Uiso   1.00
C229   C     0.05297   0.49400   0.25812   0.00000  Uiso   1.00
C230   C     0.21509   0.48703   0.45976   0.00000  Uiso   1.00
C231   C     0.23958   0.47095   0.47896   0.00000  Uiso   1.00
C232   C     0.28093   0.50674   0.24147   0.00000  Uiso   1.00
C233   C     0.22524   0.47016   0.01980   0.00000  Uiso   1.00
C234   C     0.18491   0.48429   0.04152   0.00000  Uiso   1.00
C235   C     0.25137   0.45640   0.03943   0.00000  Uiso   1.00
C236   C     0.23869   0.45762   0.08015   0.00000  Uiso   1.00
C237   C     0.17187   0.48275   0.08265   0.00000  Uiso   1.00
C238   C     0.32650   0.50815   0.23852   0.00000  Uiso   1.00
C239   C     0.00748   0.49073   0.26388   0.00000  Uiso   1.00
C240   C     0.09500   0.54399   0.42185   0.00000  Uiso   1.00
C241   C     0.18087   0.65556   0.23815   0.00000  Uiso   1.00
C242   C     0.15171   0.34551   0.26234   0.00000  Uiso   1.00
C243   C     0.15595   0.38954   0.25899   0.00000  Uiso   1.00
C244   C     0.17687   0.61102   0.24137   0.00000  Uiso   1.00
C245   C     0.18868   0.47848   0.14414   0.00000  Uiso   1.00
C246   C     0.14491   0.52069   0.35621   0.00000  Uiso   1.00
C247   C     0.13308   0.52693   0.39949   0.00000  Uiso   1.00
C248   C     0.19899   0.47076   0.10163   0.00000  Uiso   1.00
C249   C     0.08445   0.54754   0.46285   0.00000  Uiso   1.00
C250   C     0.31316   0.46917   0.29924   0.00000  Uiso   1.00
C251   C     0.15927   0.51298   0.41863   0.00000  Uiso   1.00
C252   C     0.27457   0.41913   0.43820   0.00000  Uiso   1.00
C253   C     0.31850   0.40656   0.41435   0.00000  Uiso   1.00
C254   C     0.03359   0.52577   0.40362   0.00000  Uiso   1.00
C255   C     0.00261   0.54052   0.38527   0.00000  Uiso   1.00
C256   C     0.14872   0.51562   0.45994   0.00000  Uiso   1.00
C257   C     0.11022   0.53261   0.48186   0.00000  Uiso   1.00
C258   C     0.17461   0.50083   0.48000   0.00000  Uiso   1.00
C259   C     0.15979   0.50053   0.02165   0.00000  Uiso   1.00
C260   C     0.12097   0.51770   0.04216   0.00000  Uiso   1.00
C261   C     0.09715   0.53388   0.02260   0.00000  Uiso   1.00
H262   H     0.06772   0.54688   0.03958   0.00000  Uiso   1.00
H263   H     0.10806   0.51991   0.07361   0.00000  Uiso   1.00
H264   H     0.22979   0.48931   0.42887   0.00000  Uiso   1.00
H265   H     0.33321   0.45948   0.31604   0.00000  Uiso   1.00
H266   H     0.29132   0.49080   0.31966   0.00000  Uiso   1.00
H267   H     0.29456   0.44035   0.28973   0.00000  Uiso   1.00
H268   H     0.25473   0.41841   0.41758   0.00000  Uiso   1.00
H269   H     0.25926   0.39581   0.45976   0.00000  Uiso   1.00
H270   H     0.00621   0.40774   0.43385   0.00000  Uiso   1.00
H271   H     0.31498   0.37422   0.39990   0.00000  Uiso   1.00
H272   H     0.00034   0.42814   0.39133   0.00000  Uiso   1.00
H273   H     0.28235   0.44593   0.02352   0.00000  Uiso   1.00
H274   H     0.01536   0.51841   0.43399   0.00000  Uiso   1.00
H275   H     0.04577   0.49680   0.38583   0.00000  Uiso   1.00
H276   H     0.01937   0.54725   0.35454   0.00000  Uiso   1.00
H277   H     0.30874   0.51579   0.38520   0.00000  Uiso   1.00
H278   H     0.32305   0.56931   0.40250   0.00000  Uiso   1.00
H279   H     0.01613   0.52387   0.21466   0.00000  Uiso   1.00
H280   H     0.20778   0.33618   0.21592   0.00000  Uiso   1.00
H281   H     0.12445   0.66569   0.28468   0.00000  Uiso   1.00
H282   H     0.14176   0.49242   0.10128   0.00000  Uiso   1.00
H283   H     0.26012   0.44893   0.09500   0.00000  Uiso   1.00
H284   H     0.05523   0.56091   0.47980   0.00000  Uiso   1.00
H285   H     0.18711   0.49889   0.40029   0.00000  Uiso   1.00
O286   O     0.16667   0.50000   0.25000   0.00000  Uiso   1.00
O287   O     0.15693   0.45726   0.16625   0.00000  Uiso   1.00
O288   O     0.12687   0.53979   0.33749   0.00000  Uiso   1.00
O289   O     0.21088   0.50826   0.15877   0.00000  Uiso   1.00
O290   O     0.17198   0.49468   0.33749   0.00000  Uiso   1.00
O291   O     0.27974   0.45950   0.45784   0.00000  Uiso   1.00
O292   O     0.06794   0.55749   0.40395   0.00000  Uiso   1.00
O293   O     0.17849   0.41434   0.27821   0.00000  Uiso   1.00
O294   O     0.14581   0.59469   0.26767   0.00000  Uiso   1.00
O295   O     0.07452   0.46584   0.23607   0.00000  Uiso   1.00
O296   O     0.26785   0.52512   0.21806   0.00000  Uiso   1.00
O297   O     0.06990   0.52293   0.27820   0.00000  Uiso   1.00
O298   O     0.25440   0.48610   0.26768   0.00000  Uiso   1.00
O299   O     0.13800   0.40236   0.23607   0.00000  Uiso   1.00
O300   O     0.20437   0.58860   0.21806   0.00000  Uiso   1.00
Zn301  Zn    0.19244   0.47423   0.28278   0.00000  Uiso   1.00
Zn302  Zn    0.13459   0.45711   0.22258   0.00000  Uiso   1.00
Zn303  Zn    0.21166   0.52997   0.21188   0.00000  Uiso   1.00
Zn304  Zn    0.12798   0.53868   0.28277   0.00000  Uiso   1.00
C305   C     0.38631   0.49400   0.25812   0.00000  Uiso   1.00
C306   C     0.54842   0.48703   0.45976   0.00000  Uiso   1.00
C307   C     0.57291   0.47095   0.47896   0.00000  Uiso   1.00
C308   C     0.61426   0.50674   0.24147   0.00000  Uiso   1.00
C309   C     0.55857   0.47016   0.01980   0.00000  Uiso   1.00
C310   C     0.51824   0.48429   0.04152   0.00000  Uiso   1.00
C311   C     0.58471   0.45640   0.03943   0.00000  Uiso   1.00
C312   C     0.57202   0.45762   0.08015   0.00000  Uiso   1.00
C313   C     0.50520   0.48275   0.08265   0.00000  Uiso   1.00
C314   C     0.65983   0.50815   0.23852   0.00000  Uiso   1.00
C315   C     0.34082   0.49073   0.26388   0.00000  Uiso   1.00
C316   C     0.42833   0.54399   0.42185   0.00000  Uiso   1.00
C317   C     0.51421   0.65556   0.23815   0.00000  Uiso   1.00
C318   C     0.48505   0.34551   0.26234   0.00000  Uiso   1.00
C319   C     0.48928   0.38954   0.25899   0.00000  Uiso   1.00
C320   C     0.51020   0.61102   0.24137   0.00000  Uiso   1.00
C321   C     0.52201   0.47848   0.14414   0.00000  Uiso   1.00
C322   C     0.47825   0.52069   0.35621   0.00000  Uiso   1.00
C323   C     0.46642   0.52693   0.39949   0.00000  Uiso   1.00
C324   C     0.53232   0.47076   0.10163   0.00000  Uiso   1.00
C325   C     0.41778   0.54754   0.46285   0.00000  Uiso   1.00
C326   C     0.64650   0.46917   0.29924   0.00000  Uiso   1.00
C327   C     0.49261   0.51298   0.41863   0.00000  Uiso   1.00
C328   C     0.60790   0.41913   0.43820   0.00000  Uiso   1.00
C329   C     0.65183   0.40656   0.41435   0.00000  Uiso   1.00
C330   C     0.36693   0.52577   0.40362   0.00000  Uiso   1.00
C331   C     0.33595   0.54052   0.38527   0.00000  Uiso   1.00
C332   C     0.48206   0.51562   0.45994   0.00000  Uiso   1.00
C333   C     0.44356   0.53261   0.48186   0.00000  Uiso   1.00
C334   C     0.50794   0.50083   0.48000   0.00000  Uiso   1.00
C335   C     0.49312   0.50053   0.02165   0.00000  Uiso   1.00
C336   C     0.45431   0.51770   0.04216   0.00000  Uiso   1.00
C337   C     0.43049   0.53388   0.02260   0.00000  Uiso   1.00
H338   H     0.40106   0.54688   0.03958   0.00000  Uiso   1.00
H339   H     0.44140   0.51991   0.07361   0.00000  Uiso   1.00
H340   H     0.56312   0.48931   0.42887   0.00000  Uiso   1.00
H341   H     0.66655   0.45948   0.31604   0.00000  Uiso   1.00
H342   H     0.62465   0.49080   0.31966   0.00000  Uiso   1.00
H343   H     0.62789   0.44035   0.28973   0.00000  Uiso   1.00
H344   H     0.58806   0.41841   0.41758   0.00000  Uiso   1.00
H345   H     0.59259   0.39581   0.45976   0.00000  Uiso   1.00
H346   H     0.33955   0.40774   0.43385   0.00000  Uiso   1.00
H347   H     0.64831   0.37422   0.39990   0.00000  Uiso   1.00
H348   H     0.33367   0.42814   0.39133   0.00000  Uiso   1.00
H349   H     0.61568   0.44593   0.02352   0.00000  Uiso   1.00
H350   H     0.34869   0.51841   0.43399   0.00000  Uiso   1.00
H351   H     0.37910   0.49680   0.38583   0.00000  Uiso   1.00
H352   H     0.35270   0.54725   0.35454   0.00000  Uiso   1.00
H353   H     0.64207   0.51579   0.38520   0.00000  Uiso   1.00
H354   H     0.65639   0.56931   0.40250   0.00000  Uiso   1.00
H355   H     0.34946   0.52387   0.21466   0.00000  Uiso   1.00
H356   H     0.54111   0.33618   0.21592   0.00000  Uiso   1.00
H357   H     0.45778   0.66569   0.28468   0.00000  Uiso   1.00
H358   H     0.47509   0.49242   0.10128   0.00000  Uiso   1.00
H359   H     0.59346   0.44893   0.09500   0.00000  Uiso   1.00
H360   H     0.38856   0.56091   0.47980   0.00000  Uiso   1.00
H361   H     0.52044   0.49889   0.40029   0.00000  Uiso   1.00
O362   O     0.50000   0.50000   0.25000   0.00000  Uiso   1.00
O363   O     0.49027   0.45726   0.16625   0.00000  Uiso   1.00
O364   O     0.46020   0.53979   0.33749   0.00000  Uiso   1.00
O365   O     0.54421   0.50826   0.15877   0.00000  Uiso   1.00
O366   O     0.50532   0.49468   0.33749   0.00000  Uiso   1.00
O367   O     0.61308   0.45950   0.45784   0.00000  Uiso   1.00
O368   O     0.40128   0.55749   0.40395   0.00000  Uiso   1.00
O369   O     0.51182   0.41434   0.27821   0.00000  Uiso   1.00
O370   O     0.47914   0.59469   0.26767   0.00000  Uiso   1.00
O371   O     0.40785   0.46584   0.23607   0.00000  Uiso   1.00
O372   O     0.60119   0.52512   0.21806   0.00000  Uiso   1.00
O373   O     0.40323   0.52293   0.27820   0.00000  Uiso   1.00
O374   O     0.58773   0.48610   0.26768   0.00000  Uiso   1.00
O375   O     0.47133   0.40236   0.23607   0.00000  Uiso   1.00
O376   O     0.53771   0.58860   0.21806   0.00000  Uiso   1.00
Zn377  Zn    0.52577   0.47423   0.28278   0.00000  Uiso   1.00
Zn378  Zn    0.46792   0.45711   0.22258   0.00000  Uiso   1.00
Zn379  Zn    0.54500   0.52997   0.21188   0.00000  Uiso   1.00
Zn380  Zn    0.46131   0.53868   0.28277   0.00000  Uiso   1.00
C381   C     0.71964   0.49400   0.25812   0.00000  Uiso   1.00
C382   C     0.88175   0.48703   0.45976   0.00000  Uiso   1.00
C383   C     0.90624   0.47095   0.47896   0.00000  Uiso   1.00
C384   C     0.94759   0.50674   0.24147   0.00000  Uiso   1.00
C385   C     0.89191   0.47016   0.01980   0.00000  Uiso   1.00
C386   C     0.85157   0.48429   0.04152   0.00000  Uiso   1.00
C387   C     0.91804   0.45640   0.03943   0.00000  Uiso   1.00
C388   C     0.90536   0.45762   0.08015   0.00000  Uiso   1.00
C389   C     0.83853   0.48275   0.08265   0.00000  Uiso   1.00
C390   C     0.99317   0.50815   0.23852   0.00000  Uiso   1.00
C391   C     0.67415   0.49073   0.26388   0.00000  Uiso   1.00
C392   C     0.76166   0.54399   0.42185   0.00000  Uiso   1.00
C393   C     0.84754   0.65556   0.23815   0.00000  Uiso   1.00
C394   C     0.81838   0.34551   0.26234   0.00000  Uiso   1.00
C395   C     0.82261   0.38954   0.25899   0.00000  Uiso   1.00
C396   C     0.84353   0.61102   0.24137   0.00000  Uiso   1.00
C397   C     0.85534   0.47848   0.14414   0.00000  Uiso   1.00
C398   C     0.81158   0.52069   0.35621   0.00000  Uiso   1.00
C399   C     0.79975   0.52693   0.39949   0.00000  Uiso   1.00
C400   C     0.86565   0.47076   0.10163   0.00000  Uiso   1.00
C401   C     0.75112   0.54754   0.46285   0.00000  Uiso   1.00
C402   C     0.97983   0.46917   0.29924   0.00000  Uiso   1.00
C403   C     0.82594   0.51298   0.41863   0.00000  Uiso   1.00
C404   C     0.94123   0.41913   0.43820   0.00000  Uiso   1.00
C405   C     0.98517   0.40656   0.41435   0.00000  Uiso   1.00
C406   C     0.70026   0.52577   0.40362   0.00000  Uiso   1.00
C407   C     0.66928   0.54052   0.38527   0.00000  Uiso   1.00
C408   C     0.81539   0.51562   0.45994   0.00000  Uiso   1.00
C409   C     0.77689   0.53261   0.48186   0.00000  Uiso   1.00
C410   C     0.84128   0.50083   0.48000   0.00000  Uiso   1.00
C411   C     0.82646   0.50053   0.02165   0.00000  Uiso   1.00
C412   C     0.78764   0.51770   0.04216   0.00000  Uiso   1.00
C413   C     0.76382   0.53388   0.02260   0.00000  Uiso   1.00
H414   H     0.73439   0.54688   0.03958   0.00000  Uiso   1.00
H415   H     0.77473   0.51991   0.07361   0.00000  Uiso   1.00
H416   H     0.89646   0.48931   0.42887   0.00000  Uiso   1.00
H417   H     0.99988   0.45948   0.31604   0.00000  Uiso   1.00
H418   H     0.95798   0.49080   0.31966   0.00000  Uiso   1.00
H419   H     0.96122   0.44035   0.28973   0.00000  Uiso   1.00
H420   H     0.92140   0.41841   0.41758   0.00000  Uiso   1.00
H421   H     0.92592   0.39581   0.45976   0.00000  Uiso   1.00
H422   H     0.67288   0.40774   0.43385   0.00000  Uiso   1.00
H423   H     0.98164   0.37422   0.39990   0.00000  Uiso   1.00
H424   H     0.66701   0.42814   0.39133   0.00000  Uiso   1.00
H425   H     0.94902   0.44593   0.02352   0.00000  Uiso   1.00
H426   H     0.68202   0.51841   0.43399   0.00000  Uiso   1.00
H427   H     0.71243   0.49680   0.38583   0.00000  Uiso   1.00
H428   H     0.68604   0.54725   0.35454   0.00000  Uiso   1.00
H429   H     0.97540   0.51579   0.38520   0.00000  Uiso   1.00
H430   H     0.98972   0.56931   0.40250   0.00000  Uiso   1.00
H431   H     0.68280   0.52387   0.21466   0.00000  Uiso   1.00
H432   H     0.87444   0.33618   0.21592   0.00000  Uiso   1.00
H433   H     0.79112   0.66569   0.28468   0.00000  Uiso   1.00
H434   H     0.80843   0.49242   0.10128   0.00000  Uiso   1.00
H435   H     0.92679   0.44893   0.09500   0.00000  Uiso   1.00
H436   H     0.72190   0.56091   0.47980   0.00000  Uiso   1.00
H437   H     0.85377   0.49889   0.40029   0.00000  Uiso   1.00
O438   O     0.83333   0.50000   0.25000   0.00000  Uiso   1.00
O439   O     0.82360   0.45726   0.16625   0.00000  Uiso   1.00
O440   O     0.79354   0.53979   0.33749   0.00000  Uiso   1.00
O441   O     0.87755   0.50826   0.15877   0.00000  Uiso   1.00
O442   O     0.83865   0.49468   0.33749   0.00000  Uiso   1.00
O443   O     0.94641   0.45950   0.45784   0.00000  Uiso   1.00
O444   O     0.73461   0.55749   0.40395   0.00000  Uiso   1.00
O445   O     0.84515   0.41434   0.27821   0.00000  Uiso   1.00
O446   O     0.81247   0.59469   0.26767   0.00000  Uiso   1.00
O447   O     0.74119   0.46584   0.23607   0.00000  Uiso   1.00
O448   O     0.93452   0.52512   0.21806   0.00000  Uiso   1.00
O449   O     0.73656   0.52293   0.27820   0.00000  Uiso   1.00
O450   O     0.92106   0.48610   0.26768   0.00000  Uiso   1.00
O451   O     0.80467   0.40236   0.23607   0.00000  Uiso   1.00
O452   O     0.87104   0.58860   0.21806   0.00000  Uiso   1.00
Zn453  Zn    0.85910   0.47423   0.28278   0.00000  Uiso   1.00
Zn454  Zn    0.80125   0.45711   0.22258   0.00000  Uiso   1.00
Zn455  Zn    0.87833   0.52997   0.21188   0.00000  Uiso   1.00
Zn456  Zn    0.79465   0.53868   0.28277   0.00000  Uiso   1.00
C457   C     0.05297   0.82733   0.25812   0.00000  Uiso   1.00
C458   C     0.21509   0.82036   0.45976   0.00000  Uiso   1.00
C459   C     0.23958   0.80428   0.47896   0.00000  Uiso   1.00
C460   C     0.28093   0.84007   0.24147   0.00000  Uiso   1.00
C461   C     0.22524   0.80350   0.01980   0.00000  Uiso   1.00
C462   C     0.18491   0.81762   0.04152   0.00000  Uiso   1.00
C463   C     0.25137   0.78974   0.03943   0.00000  Uiso   1.00
C464   C     0.23869   0.79095   0.08015   0.00000  Uiso   1.00
C465   C     0.17187   0.81609   0.08265   0.00000  Uiso   1.00
C466   C     0.32650   0.84149   0.23852   0.00000  Uiso   1.00
C467   C     0.00748   0.82406   0.26388   0.00000  Uiso   1.00
C468   C     0.09500   0.87733   0.42185   0.00000  Uiso   1.00
C469   C     0.18087   0.98889   0.23815   0.00000  Uiso   1.00
C470   C     0.15171   0.67885   0.26234   0.00000  Uiso   1.00
C471   C     0.15595   0.72288   0.25899   0.00000  Uiso   1.00
C472   C     0.17687   0.94435   0.24137   0.00000  Uiso   1.00
C473   C     0.18868   0.81181   0.14414   0.00000  Uiso   1.00
C474   C     0.14491   0.85403   0.35621   0.00000  Uiso   1.00
C475   C     0.13308   0.86027   0.39949   0.00000  Uiso   1.00
C476   C     0.19899   0.80410   0.10163   0.00000  Uiso   1.00
C477   C     0.08445   0.88087   0.46285   0.00000  Uiso   1.00
C478   C     0.31316   0.80250   0.29924   0.00000  Uiso   1.00
C479   C     0.15927   0.84632   0.41863   0.00000  Uiso   1.00
C480   C     0.27457   0.75247   0.43820   0.00000  Uiso   1.00
C481   C     0.31850   0.73989   0.41435   0.00000  Uiso   1.00
C482   C     0.03359   0.85910   0.40362   0.00000  Uiso   1.00
C483   C     0.00261   0.87385   0.38527   0.00000  Uiso   1.00
C484   C     0.14872   0.84895   0.45994   0.00000  Uiso   1.00
C485   C     0.11022   0.86594   0.48186   0.00000  Uiso   1.00
C486   C     0.17461   0.83417   0.48000   0.00000  Uiso   1.00
C487   C     0.15979   0.83387   0.02165   0.00000  Uiso   1.00
C488   C     0.12097   0.85104   0.04216   0.00000  Uiso   1.00
C489   C     0.09715   0.86722   0.02260   0.00000  Uiso   1.00
H490   H     0.06772   0.88021   0.03958   0.00000  Uiso   1.00
H491   H     0.10806   0.85325   0.07361   0.00000  Uiso   1.00
H492   H     0.22979   0.82265   0.42887   0.00000  Uiso   1.00
H493   H     0.33321   0.79281   0.31604   0.00000  Uiso   1.00
H494   H     0.29132   0.82414   0.31966   0.00000  Uiso   1.00
H495   H     0.29456   0.77369   0.28973   0.00000  Uiso   1.00
H496   H     0.25473   0.75174   0.41758   0.00000  Uiso   1.00
H497   H     0.25926   0.72915   0.45976   0.00000  Uiso   1.00
H498   H     0.00621   0.74107   0.43385   0.00000  Uiso   1.00
H499   H     0.31498   0.70756   0.39990   0.00000  Uiso   1.00
H500   H     0.00034   0.76148   0.39133   0.00000  Uiso   1.00
H501   H     0.28235   0.77926   0.02352   0.00000  Uiso   1.00
H502   H     0.01536   0.85175   0.43399   0.00000  Uiso   1.00
H503   H     0.04577   0.83014   0.38583   0.00000  Uiso   1.00
H504   H     0.01937   0.88058   0.35454   0.00000  Uiso   1.00
H505   H     0.30874   0.84912   0.38520   0.00000  Uiso   1.00
H506   H     0.32305   0.90265   0.40250   0.00000  Uiso   1.00
H507   H     0.01613   0.85720   0.21466   0.00000  Uiso   1.00
H508   H     0.20778   0.66951   0.21592   0.00000  Uiso   1.00
H509   H     0.12445   0.99902   0.28468   0.00000  Uiso   1.00
H510   H     0.14176   0.82576   0.10128   0.00000  Uiso   1.00
H511   H     0.26012   0.78226   0.09500   0.00000  Uiso   1.00
H512   H     0.05523   0.89424   0.47980   0.00000  Uiso   1.00
H513   H     0.18711   0.83222   0.40029   0.00000  Uiso   1.00
O514   O     0.16667   0.83333   0.25000   0.00000  Uiso   1.00
O515   O     0.15693   0.79060   0.16625   0.00000  Uiso   1.00
O516   O     0.12687   0.87313   0.33749   0.00000  Uiso   1.00
O517   O     0.21088   0.84159   0.15877   0.00000  Uiso   1.00
O518   O     0.17198   0.82802   0.33749   0.00000  Uiso   1.00
O519   O     0.27974   0.79284   0.45784   0.00000  Uiso   1.00
O520   O     0.06794   0.89083   0.40395   0.00000  Uiso   1.00
O521   O     0.17849   0.74768   0.27821   0.00000  Uiso   1.00
O522   O     0.14581   0.92803   0.26767   0.00000  Uiso   1.00
O523   O     0.07452   0.79917   0.23607   0.00000  Uiso   1.00
O524   O     0.26785   0.85845   0.21806   0.00000  Uiso   1.00
O525   O     0.06990   0.85627   0.27820   0.00000  Uiso   1.00
O526   O     0.25440   0.81944   0.26768   0.00000  Uiso   1.00
O527   O     0.13800   0.73570   0.23607   0.00000  Uiso   1.00
O528   O     0.20437   0.92193   0.21806   0.00000  Uiso   1.00
Zn529  Zn    0.19244   0.80756   0.28278   0.00000  Uiso   1.00
Zn530  Zn    0.13459   0.79044   0.22258   0.00000  Uiso   1.00
Zn531  Zn    0.21166   0.86331   0.21188   0.00000  Uiso   1.00
Zn532  Zn    0.12798   0.87202   0.28277   0.00000  Uiso   1.00
C533   C     0.38631   0.82733   0.25812   0.00000  Uiso   1.00
C534   C     0.54842   0.82036   0.45976   0.00000  Uiso   1.00
C535   C     0.57291   0.80428   0.47896   0.00000  Uiso   1.00
C536   C     0.61426   0.84007   0.24147   0.00000  Uiso   1.00
C537   C     0.55857   0.80350   0.01980   0.00000  Uiso   1.00
C538   C     0.51824   0.81762   0.04152   0.00000  Uiso   1.00
C539   C     0.58471   0.78974   0.03943   0.00000  Uiso   1.00
C540   C     0.57202   0.79095   0.08015   0.00000  Uiso   1.00
C541   C     0.50520   0.81609   0.08265   0.00000  Uiso   1.00
C542   C     0.65983   0.84149   0.23852   0.00000  Uiso   1.00
C543   C     0.34082   0.82406   0.26388   0.00000  Uiso   1.00
C544   C     0.42833   0.87733   0.42185   0.00000  Uiso   1.00
C545   C     0.51421   0.98889   0.23815   0.00000  Uiso   1.00
C546   C     0.48505   0.67885   0.26234   0.00000  Uiso   1.00
C547   C     0.48928   0.72288   0.25899   0.00000  Uiso   1.00
C548   C     0.51020   0.94435   0.24137   0.00000  Uiso   1.00
C549   C     0.52201   0.81181   0.14414   0.00000  Uiso   1.00
C550   C     0.47825   0.85403   0.35621   0.00000  Uiso   1.00
C551   C     0.46642   0.86027   0.39949   0.00000  Uiso   1.00
C552   C     0.53232   0.80410   0.10163   0.00000  Uiso   1.00
C553   C     0.41778   0.88087   0.46285   0.00000  Uiso   1.00
C554   C     0.64650   0.80250   0.29924   0.00000  Uiso   1.00
C555   C     0.49261   0.84632   0.41863   0.00000  Uiso   1.00
C556   C     0.60790   0.75247   0.43820   0.00000  Uiso   1.00
C557   C     0.65183   0.73989   0.41435   0.00000  Uiso   1.00
C558   C     0.36693   0.85910   0.40362   0.00000  Uiso   1.00
C559   C     0.33595   0.87385   0.38527   0.00000  Uiso   1.00
C560   C     0.48206   0.84895   0.45994   0.00000  Uiso   1.00
C561   C     0.44356   0.86594   0.48186   0.00000  Uiso   1.00
C562   C     0.50794   0.83417   0.48000   0.00000  Uiso   1.00
C563   C     0.49312   0.83387   0.02165   0.00000  Uiso   1.00
C564   C     0.45431   0.85104   0.04216   0.00000  Uiso   1.00
C565   C     0.43049   0.86722   0.02260   0.00000  Uiso   1.00
H566   H     0.40106   0.88021   0.03958   0.00000  Uiso   1.00
H567   H     0.44140   0.85325   0.07361   0.00000  Uiso   1.00
H568   H     0.56312   0.82265   0.42887   0.00000  Uiso   1.00
H569   H     0.66655   0.79281   0.31604   0.00000  Uiso   1.00
H570   H     0.62465   0.82414   0.31966   0.00000  Uiso   1.00
H571   H     0.62789   0.77369   0.28973   0.00000  Uiso   1.00
H572   H     0.58806   0.75174   0.41758   0.00000  Uiso   1.00
H573   H     0.59259   0.72915   0.45976   0.00000  Uiso   1.00
H574   H     0.33955   0.74107   0.43385   0.00000  Uiso   1.00
H575   H     0.64831   0.70756   0.39990   0.00000  Uiso   1.00
H576   H     0.33367   0.76148   0.39133   0.00000  Uiso   1.00
H577   H     0.61568   0.77926   0.02352   0.00000  Uiso   1.00
H578   H     0.34869   0.85175   0.43399   0.00000  Uiso   1.00
H579   H     0.37910   0.83014   0.38583   0.00000  Uiso   1.00
H580   H     0.35270   0.88058   0.35454   0.00000  Uiso   1.00
H581   H     0.64207   0.84912   0.38520   0.00000  Uiso   1.00
H582   H     0.65639   0.90265   0.40250   0.00000  Uiso   1.00
H583   H     0.34946   0.85720   0.21466   0.00000  Uiso   1.00
H584   H     0.54111   0.66951   0.21592   0.00000  Uiso   1.00
H585   H     0.45778   0.99902   0.28468   0.00000  Uiso   1.00
H586   H     0.47509   0.82576   0.10128   0.00000  Uiso   1.00
H587   H     0.59346   0.78226   0.09500   0.00000  Uiso   1.00
H588   H     0.38856   0.89424   0.47980   0.00000  Uiso   1.00
H589   H     0.52044   0.83222   0.40029   0.00000  Uiso   1.00
O590   O     0.50000   0.83333   0.25000   0.00000  Uiso   1.00
O591   O     0.49027   0.79060   0.16625   0.00000  Uiso   1.00
O592   O     0.46020   0.87313   0.33749   0.00000  Uiso   1.00
O593   O     0.54421   0.84159   0.15877   0.00000  Uiso   1.00
O594   O     0.50532   0.82802   0.33749   0.00000  Uiso   1.00
O595   O     0.61308   0.79284   0.45784   0.00000  Uiso   1.00
O596   O     0.40128   0.89083   0.40395   0.00000  Uiso   1.00
O597   O     0.51182   0.74768   0.27821   0.00000  Uiso   1.00
O598   O     0.47914   0.92803   0.26767   0.00000  Uiso   1.00
O599   O     0.40785   0.79917   0.23607   0.00000  Uiso   1.00
O600   O     0.60119   0.85845   0.21806   0.00000  Uiso   1.00
O601   O     0.40323   0.85627   0.27820   0.00000  Uiso   1.00
O602   O     0.58773   0.81944   0.26768   0.00000  Uiso   1.00
O603   O     0.47133   0.73570   0.23607   0.00000  Uiso   1.00
O604   O     0.53771   0.92193   0.21806   0.00000  Uiso   1.00
Zn605  Zn    0.52577   0.80756   0.28278   0.00000  Uiso   1.00
Zn606  Zn    0.46792   0.79044   0.22258   0.00000  Uiso   1.00
Zn607  Zn    0.54500   0.86331   0.21188   0.00000  Uiso   1.00
Zn608  Zn    0.46131   0.87202   0.28277   0.00000  Uiso   1.00
C609   C     0.71964   0.82733   0.25812   0.00000  Uiso   1.00
C610   C     0.88175   0.82036   0.45976   0.00000  Uiso   1.00
C611   C     0.90624   0.80428   0.47896   0.00000  Uiso   1.00
C612   C     0.94759   0.84007   0.24147   0.00000  Uiso   1.00
C613   C     0.89191   0.80350   0.01980   0.00000  Uiso   1.00
C614   C     0.85157   0.81762   0.04152   0.00000  Uiso   1.00
C615   C     0.91804   0.78974   0.03943   0.00000  Uiso   1.00
C616   C     0.90536   0.79095   0.08015   0.00000  Uiso   1.00
C617   C     0.83853   0.81609   0.08265   0.00000  Uiso   1.00
C618   C     0.99317   0.84149   0.23852   0.00000  Uiso   1.00
C619   C     0.67415   0.82406   0.26388   0.00000  Uiso   1.00
C620   C     0.76166   0.87733   0.42185   0.00000  Uiso   1.00
C621   C     0.84754   0.98889   0.23815   0.00000  Uiso   1.00
C622   C     0.81838   0.67885   0.26234   0.00000  Uiso   1.00
C623   C     0.82261   0.72288   0.25899   0.00000  Uiso   1.00
C624   C     0.84353   0.94435   0.24137   0.00000  Uiso   1.00
C625   C     0.85534   0.81181   0.14414   0.00000  Uiso   1.00
C626   C     0.81158   0.85403   0.35621   0.00000  Uiso   1.00
C627   C     0.79975   0.86027   0.39949   0.00000  Uiso   1.00
C628   C     0.86565   0.80410   0.10163   0.00000  Uiso   1.00
C629   C     0.75112   0.88087   0.46285   0.00000  Uiso   1.00
C630   C     0.97983   0.80250   0.29924   0.00000  Uiso   1.00
C631   C     0.82594   0.84632   0.41863   0.00000  Uiso   1.00
C632   C     0.94123   0.75247   0.43820   0.00000  Uiso   1.00
C633   C     0.98517   0.73989   0.41435   0.00000  Uiso   1.00
C634   C     0.70026   0.85910   0.40362   0.00000  Uiso   1.00
C635   C     0.66928   0.87385   0.38527   0.00000  Uiso   1.00
C636   C     0.81539   0.84895   0.45994   0.00000  Uiso   1.00
C637   C     0.77689   0.86594   0.48186   0.00000  Uiso   1.00
C638   C     0.84128   0.83417   0.48000   0.00000  Uiso   1.00
C639   C     0.82646   0.83387   0.02165   0.00000  Uiso   1.00
C640   C     0.78764   0.85104   0.04216   0.00000  Uiso   1.00
C641   C     0.76382   0.86722   0.02260   0.00000  Uiso   1.00
H642   H     0.73439   0.88021   0.03958   0.00000  Uiso   1.00
H643   H     0.77473   0.85325   0.07361   0.00000  Uiso   1.00
H644   H     0.89646   0.82265   0.42887   0.00000  Uiso   1.00
H645   H     0.99988   0.79281   0.31604   0.00000  Uiso   1.00
H646   H     0.95798   0.82414   0.31966   0.00000  Uiso   1.00
H647   H     0.96122   0.77369   0.28973   0.00000  Uiso   1.00
H648   H     0.92140   0.75174   0.41758   0.00000  Uiso   1.00
H649   H     0.92592   0.72915   0.45976   0.00000  Uiso   1.00
H650   H     0.67288   0.74107   0.43385   0.00000  Uiso   1.00
H651   H     0.98164   0.70756   0.39990   0.00000  Uiso   1.00
H652   H     0.66701   0.76148   0.39133   0.00000  Uiso   1.00
H653   H     0.94902   0.77926   0.02352   0.00000  Uiso   1.00
H654   H     0.68202   0.85175   0.43399   0.00000  Uiso   1.00
H655   H     0.71243   0.83014   0.38583   0.00000  Uiso   1.00
H656   H     0.68604   0.88058   0.35454   0.00000  Uiso   1.00
H657   H     0.97540   0.84912   0.38520   0.00000  Uiso   1.00
H658   H     0.98972   0.90265   0.40250   0.00000  Uiso   1.00
H659   H     0.68280   0.85720   0.21466   0.00000  Uiso   1.00
H660   H     0.87444   0.66951   0.21592   0.00000  Uiso   1.00
H661   H     0.79112   0.99902   0.28468   0.00000  Uiso   1.00
H662   H     0.80843   0.82576   0.10128   0.00000  Uiso   1.00
H663   H     0.92679   0.78226   0.09500   0.00000  Uiso   1.00
H664   H     0.72190   0.89424   0.47980   0.00000  Uiso   1.00
H665   H     0.85377   0.83222   0.40029   0.00000  Uiso   1.00
O666   O     0.83333   0.83333   0.25000   0.00000  Uiso   1.00
O667   O     0.82360   0.79060   0.16625   0.00000  Uiso   1.00
O668   O     0.79354   0.87313   0.33749   0.00000  Uiso   1.00
O669   O     0.87755   0.84159   0.15877   0.00000  Uiso   1.00
O670   O     0.83865   0.82802   0.33749   0.00000  Uiso   1.00
O671   O     0.94641   0.79284   0.45784   0.00000  Uiso   1.00
O672   O     0.73461   0.89083   0.40395   0.00000  Uiso   1.00
O673   O     0.84515   0.74768   0.27821   0.00000  Uiso   1.00
O674   O     0.81247   0.92803   0.26767   0.00000  Uiso   1.00
O675   O     0.74119   0.79917   0.23607   0.00000  Uiso   1.00
O676   O     0.93452   0.85845   0.21806   0.00000  Uiso   1.00
O677   O     0.73656   0.85627   0.27820   0.00000  Uiso   1.00
O678   O     0.92106   0.81944   0.26768   0.00000  Uiso   1.00
O679   O     0.80467   0.73570   0.23607   0.00000  Uiso   1.00
O680   O     0.87104   0.92193   0.21806   0.00000  Uiso   1.00
Zn681  Zn    0.85910   0.80756   0.28278   0.00000  Uiso   1.00
Zn682  Zn    0.80125   0.79044   0.22258   0.00000  Uiso   1.00
Zn683  Zn    0.87833   0.86331   0.21188   0.00000  Uiso   1.00
Zn684  Zn    0.79465   0.87202   0.28277   0.00000  Uiso   1.00
C685   C     0.05297   0.16066   0.75812   0.00000  Uiso   1.00
C686   C     0.21509   0.15369   0.95976   0.00000  Uiso   1.00
C687   C     0.23958   0.13762   0.97896   0.00000  Uiso   1.00
C688   C     0.28093   0.17341   0.74147   0.00000  Uiso   1.00
C689   C     0.22524   0.13683   0.51980   0.00000  Uiso   1.00
C690   C     0.18491   0.15095   0.54152   0.00000  Uiso   1.00
C691   C     0.25137   0.12307   0.53943   0.00000  Uiso   1.00
C692   C     0.23869   0.12428   0.58015   0.00000  Uiso   1.00
C693   C     0.17187   0.14942   0.58265   0.00000  Uiso   1.00
C694   C     0.32650   0.17482   0.73852   0.00000  Uiso   1.00
C695   C     0.00748   0.15740   0.76388   0.00000  Uiso   1.00
C696   C     0.09500   0.21066   0.92185   0.00000  Uiso   1.00
C697   C     0.18087   0.32222   0.73815   0.00000  Uiso   1.00
C698   C     0.15171   0.01218   0.76234   0.00000  Uiso   1.00
C699   C     0.15595   0.05621   0.75899   0.00000  Uiso   1.00
C700   C     0.17687   0.27768   0.74137   0.00000  Uiso   1.00
C701   C     0.18868   0.14515   0.64414   0.00000  Uiso   1.00
C702   C     0.14491   0.18736   0.85621   0.00000  Uiso   1.00
C703   C     0.13308   0.19360   0.89949   0.00000  Uiso   1.00
C704   C     0.19899   0.13743   0.60163   0.00000  Uiso   1.00
C705   C     0.08445   0.21420   0.96285   0.00000  Uiso   1.00
C706   C     0.31316   0.13584   0.79924   0.00000  Uiso   1.00
C707   C     0.15927   0.17965   0.91863   0.00000  Uiso   1.00
C708   C     0.27457   0.08580   0.93820   0.00000  Uiso   1.00
C709   C     0.31850   0.07322   0.91435   0.00000  Uiso   1.00
C710   C     0.03359   0.19244   0.90362   0.00000  Uiso   1.00
C711   C     0.00261   0.20719   0.88527   0.00000  Uiso   1.00
C712   C     0.14872   0.18229   0.95994   0.00000  Uiso   1.00
C713   C     0.11022   0.19928   0.98186   0.00000  Uiso   1.00
C714   C     0.17461   0.16750   0.98000   0.00000  Uiso   1.00
C715   C     0.15979   0.16720   0.52165   0.00000  Uiso   1.00
C716   C     0.12097   0.18437   0.54216   0.00000  Uiso   1.00
C717   C     0.09715   0.20055   0.52260   0.00000  Uiso   1.00
H718   H     0.06772   0.21354   0.53958   0.00000  Uiso   1.00
H719   H     0.10806   0.18658   0.57361   0.00000  Uiso   1.00
H720   H     0.22979   0.15598   0.92887   0.00000  Uiso   1.00
H721   H     0.33321   0.12614   0.81604   0.00000  Uiso   1.00
H722   H     0.29132   0.15747   0.81966   0.00000  Uiso   1.00
H723   H     0.29456   0.10702   0.78973   0.00000  Uiso   1.00
H724   H     0.25473   0.08508   0.91758   0.00000  Uiso   1.00
H725   H     0.25926   0.06248   0.95976   0.00000  Uiso   1.00
H726   H     0.00621   0.07441   0.93385   0.00000  Uiso   1.00
H727   H     0.31498   0.04089   0.89990   0.00000  Uiso   1.00
H728   H     0.00034   0.09481   0.89133   0.00000  Uiso   1.00
H729   H     0.28235   0.11260   0.52352   0.00000  Uiso   1.00
H730   H     0.01536   0.18508   0.93399   0.00000  Uiso   1.00
H731   H     0.04577   0.16347   0.88583   0.00000  Uiso   1.00
H732   H     0.01937   0.21391   0.85454   0.00000  Uiso   1.00
H733   H     0.30874   0.18245   0.88520   0.00000  Uiso   1.00
H734   H     0.32305   0.23598   0.90250   0.00000  Uiso   1.00
H735   H     0.01613   0.19053   0.71466   0.00000  Uiso   1.00
H736   H     0.20778   0.00284   0.71592   0.00000  Uiso   1.00
H737   H     0.12445   0.33236   0.78468   0.00000  Uiso   1.00
H738   H     0.14176   0.15909   0.60128   0.00000  Uiso   1.00
H739   H     0.26012   0.11559   0.59500   0.00000  Uiso   1.00
H740   H     0.05523   0.22757   0.97980   0.00000  Uiso   1.00
H741   H     0.18711   0.16555   0.90029   0.00000  Uiso   1.00
O742   O     0.16667   0.16667   0.75000   0.00000  Uiso   1.00
O743   O     0.15693   0.12393   0.66625   0.00000  Uiso   1.00
O744   O     0.12687   0.20646   0.83749   0.00000  Uiso   1.00
O745   O     0.21088   0.17493   0.65877   0.00000  Uiso   1.00
O746   O     0.17198   0.16135   0.83749   0.00000  Uiso   1.00
O747   O     0.27974   0.12617   0.95784   0.00000  Uiso   1.00
O748   O     0.06794   0.22416   0.90395   0.00000  Uiso   1.00
O749   O     0.17849   0.08101   0.77821   0.00000  Uiso   1.00
O750   O     0.14581   0.26136   0.76767   0.00000  Uiso   1.00
O751   O     0.07452   0.13251   0.73607   0.00000  Uiso   1.00
O752   O     0.26785   0.19179   0.71806   0.00000  Uiso   1.00
O753   O     0.06990   0.18960   0.77820   0.00000  Uiso   1.00
O754   O     0.25440   0.15277   0.76768   0.00000  Uiso   1.00
O755   O     0.13800   0.06903   0.73607   0.00000  Uiso   1.00
O756   O     0.20437   0.25527   0.71806   0.00000  Uiso   1.00
Zn757  Zn    0.19244   0.14090   0.78278   0.00000  Uiso   1.00
Zn758  Zn    0.13459   0.12378   0.72258   0.00000  Uiso   1.00
Zn759  Zn    0.21166   0.19664   0.71188   0.00000  Uiso   1.00
Zn760  Zn    0.12798   0.20535   0.78277   0.00000  Uiso   1.00
C761   C     0.38631   0.16066   0.75812   0.00000  Uiso   1.00
C762   C     0.54842   0.15369   0.95976   0.00000  Uiso   1.00
C763   C     0.57291   0.13762   0.97896   0.00000  Uiso   1.00
C764   C     0.61426   0.17341   0.74147   0.00000  Uiso   1.00
C765   C     0.55857   0.13683   0.51980   0.00000  Uiso   1.00
C766   C     0.51824   0.15095   0.54152   0.00000  Uiso   1.00
C767   C     0.58471   0.12307   0.53943   0.00000  Uiso   1.00
C768   C     0.57202   0.12428   0.58015   0.00000  Uiso   1.00
C769   C     0.50520   0.14942   0.58265   0.00000  Uiso   1.00
C770   C     0.65983   0.17482   0.73852   0.00000  Uiso   1.00
C771   C     0.34082   0.15740   0.76388   0.00000  Uiso   1.00
C772   C     0.42833   0.21066   0.92185   0.00000  Uiso   1.00
C773   C     0.51421   0.32222   0.73815   0.00000  Uiso   1.00
C774   C     0.48505   0.01218   0.76234   0.00000  Uiso   1.00
C775   C     0.48928   0.05621   0.75899   0.00000  Uiso   1.00
C776   C     0.51020   0.27768   0.74137   0.00000  Uiso   1.00
C777   C     0.52201   0.14515   0.64414   0.00000  Uiso   1.00
C778   C     0.47825   0.18736   0.85621   0.00000  Uiso   1.00
C779   C     0.46642   0.19360   0.89949   0.00000  Uiso   1.00
C780   C     0.53232   0.13743   0.60163   0.00000  Uiso   1.00
C781   C     0.41778   0.21420   0.96285   0.00000  Uiso   1.00
C782   C     0.64650   0.13584   0.79924   0.00000  Uiso   1.00
C783   C     0.49261   0.17965   0.91863   0.00000  Uiso   1.00
C784   C     0.60790   0.08580   0.93820   0.00000  Uiso   1.00
C785   C     0.65183   0.07322   0.91435   0.00000  Uiso   1.00
C786   C     0.36693   0.19244   0.90362   0.00000  Uiso   1.00
C787   C     0.33595   0.20719   0.88527   0.00000  Uiso   1.00
C788   C     0.48206   0.18229   0.95994   0.00000  Uiso   1.00
C789   C     0.44356   0.19928   0.98186   0.00000  Uiso   1.00
C790   C     0.50794   0.16750   0.98000   0.00000  Uiso   1.00
C791   C     0.49312   0.16720   0.52165   0.00000  Uiso   1.00
C792   C     0.45431   0.18437   0.54216   0.00000  Uiso   1.00
C793   C     0.43049   0.20055   0.52260   0.00000  Uiso   1.00
H794   H     0.40106   0.21354   0.53958   0.00000  Uiso   1.00
H795   H     0.44140   0.18658   0.57361   0.00000  Uiso   1.00
H796   H     0.56312   0.15598   0.92887   0.00000  Uiso   1.00
H797   H     0.66655   0.12614   0.81604   0.00000  Uiso   1.00
H798   H     0.62465   0.15747   0.81966   0.00000  Uiso   1.00
H799   H     0.62789   0.10702   0.78973   0.00000  Uiso   1.00
H800   H     0.58806   0.08508   0.91758   0.00000  Uiso   1.00
H801   H     0.59259   0.06248   0.95976   0.00000  Uiso   1.00
H802   H     0.33955   0.07441   0.93385   0.00000  Uiso   1.00
H803   H     0.64831   0.04089   0.89990   0.00000  Uiso   1.00
H804   H     0.33367   0.09481   0.89133   0.00000  Uiso   1.00
H805   H     0.61568   0.11260   0.52352   0.00000  Uiso   1.00
H806   H     0.34869   0.18508   0.93399   0.00000  Uiso   1.00
H807   H     0.37910   0.16347   0.88583   0.00000  Uiso   1.00
H808   H     0.35270   0.21391   0.85454   0.00000  Uiso   1.00
H809   H     0.64207   0.18245   0.88520   0.00000  Uiso   1.00
H810   H     0.65639   0.23598   0.90250   0.00000  Uiso   1.00
H811   H     0.34946   0.19053   0.71466   0.00000  Uiso   1.00
H812   H     0.54111   0.00284   0.71592   0.00000  Uiso   1.00
H813   H     0.45778   0.33236   0.78468   0.00000  Uiso   1.00
H814   H     0.47509   0.15909   0.60128   0.00000  Uiso   1.00
H815   H     0.59346   0.11559   0.59500   0.00000  Uiso   1.00
H816   H     0.38856   0.22757   0.97980   0.00000  Uiso   1.00
H817   H     0.52044   0.16555   0.90029   0.00000  Uiso   1.00
O818   O     0.50000   0.16667   0.75000   0.00000  Uiso   1.00
O819   O     0.49027   0.12393   0.66625   0.00000  Uiso   1.00
O820   O     0.46020   0.20646   0.83749   0.00000  Uiso   1.00
O821   O     0.54421   0.17493   0.65877   0.00000  Uiso   1.00
O822   O     0.50532   0.16135   0.83749   0.00000  Uiso   1.00
O823   O     0.61308   0.12617   0.95784   0.00000  Uiso   1.00
O824   O     0.40128   0.22416   0.90395   0.00000  Uiso   1.00
O825   O     0.51182   0.08101   0.77821   0.00000  Uiso   1.00
O826   O     0.47914   0.26136   0.76767   0.00000  Uiso   1.00
O827   O     0.40785   0.13251   0.73607   0.00000  Uiso   1.00
O828   O     0.60119   0.19179   0.71806   0.00000  Uiso   1.00
O829   O     0.40323   0.18960   0.77820   0.00000  Uiso   1.00
O830   O     0.58773   0.15277   0.76768   0.00000  Uiso   1.00
O831   O     0.47133   0.06903   0.73607   0.00000  Uiso   1.00
O832   O     0.53771   0.25527   0.71806   0.00000  Uiso   1.00
Zn833  Zn    0.52577   0.14090   0.78278   0.00000  Uiso   1.00
Zn834  Zn    0.46792   0.12378   0.72258   0.00000  Uiso   1.00
Zn835  Zn    0.54500   0.19664   0.71188   0.00000  Uiso   1.00
Zn836  Zn    0.46131   0.20535   0.78277   0.00000  Uiso   1.00
C837   C     0.71964   0.16066   0.75812   0.00000  Uiso   1.00
C838   C     0.88175   0.15369   0.95976   0.00000  Uiso   1.00
C839   C     0.90624   0.13762   0.97896   0.00000  Uiso   1.00
C840   C     0.94759   0.17341   0.74147   0.00000  Uiso   1.00
C841   C     0.89191   0.13683   0.51980   0.00000  Uiso   1.00
C842   C     0.85157   0.15095   0.54152   0.00000  Uiso   1.00
C843   C     0.91804   0.12307   0.53943   0.00000  Uiso   1.00
C844   C     0.90536   0.12428   0.58015   0.00000  Uiso   1.00
C845   C     0.83853   0.14942   0.58265   0.00000  Uiso   1.00
C846   C     0.99317   0.17482   0.73852   0.00000  Uiso   1.00
C847   C     0.67415   0.15740   0.76388   0.00000  Uiso   1.00
C848   C     0.76166   0.21066   0.92185   0.00000  Uiso   1.00
C849   C     0.84754   0.32222   0.73815   0.00000  Uiso   1.00
C850   C     0.81838   0.01218   0.76234   0.00000  Uiso   1.00
C851   C     0.82261   0.05621   0.75899   0.00000  Uiso   1.00
C852   C     0.84353   0.27768   0.74137   0.00000  Uiso   1.00
C853   C     0.85534   0.14515   0.64414   0.00000  Uiso   1.00
C854   C     0.81158   0.18736   0.85621   0.00000  Uiso   1.00
C855   C     0.79975   0.19360   0.89949   0.00000  Uiso   1.00
C856   C     0.86565   0.13743   0.60163   0.00000  Uiso   1.00
C857   C     0.75112   0.21420   0.96285   0.00000  Uiso   1.00
C858   C     0.97983   0.13584   0.79924   0.00000  Uiso   1.00
C859   C     0.82594   0.17965   0.91863   0.00000  Uiso   1.00
C860   C     0.94123   0.08580   0.93820   0.00000  Uiso   1.00
C861   C     0.98517   0.07322   0.91435   0.00000  Uiso   1.00
C862   C     0.70026   0.19244   0.90362   0.00000  Uiso   1.00
C863   C     0.66928   0.20719   0.88527   0.00000  Uiso   1.00
C864   C     0.81539   0.18229   0.95994   0.00000  Uiso   1.00
C865   C     0.77689   0.19928   0.98186   0.00000  Uiso   1.00
C866   C     0.84128   0.16750   0.98000   0.00000  Uiso   1.00
C867   C     0.82646   0.16720   0.52165   0.00000  Uiso   1.00
C868   C     0.78764   0.18437   0.54216   0.00000  Uiso   1.00
C869   C     0.76382   0.20055   0.52260   0.00000  Uiso   1.00
H870   H     0.73439   0.21354   0.53958   0.00000  Uiso   1.00
H871   H     0.77473   0.18658   0.57361   0.00000  Uiso   1.00
H872   H     0.89646   0.15598   0.92887   0.00000  Uiso   1.00
H873   H     0.99988   0.12614   0.81604   0.00000  Uiso   1.00
H874   H     0.95798   0.15747   0.81966   0.00000  Uiso   1.00
H875   H     0.96122   0.10702   0.78973   0.00000  Uiso   1.00
H876   H     0.92140   0.08508   0.91758   0.00000  Uiso   1.00
H877   H     0.92592   0.06248   0.95976   0.00000  Uiso   1.00
H878   H     0.67288   0.07441   0.93385   0.00000  Uiso   1.00
H879   H     0.98164   0.04089   0.89990   0.00000  Uiso   1.00
H880   H     0.66701   0.09481   0.89133   0.00000  Uiso   1.00
H881   H     0.94902   0.11260   0.52352   0.00000  Uiso   1.00
H882   H     0.68202   0.18508   0.93399   0.00000  Uiso   1.00
H883   H     0.71243   0.16347   0.88583   0.00000  Uiso   1.00
H884   H     0.68604   0.21391   0.85454   0.00000  Uiso   1.00
H885   H     0.97540   0.18245   0.88520   0.00000  Uiso   1.00
H886   H     0.98972   0.23598   0.90250   0.00000  Uiso   1.00
H887   H     0.68280   0.19053   0.71466   0.00000  Uiso   1.00
H888   H     0.87444   0.00284   0.71592   0.00000  Uiso   1.00
H889   H     0.79112   0.33236   0.78468   0.00000  Uiso   1.00
H890   H     0.80843   0.15909   0.60128   0.00000  Uiso   1.00
H891   H     0.92679   0.11559   0.59500   0.00000  Uiso   1.00
H892   H     0.72190   0.22757   0.97980   0.00000  Uiso   1.00
H893   H     0.85377   0.16555   0.90029   0.00000  Uiso   1.00
O894   O     0.83333   0.16667   0.75000   0.00000  Uiso   1.00
O895   O     0.82360   0.12393   0.66625   0.00000  Uiso   1.00
O896   O     0.79354   0.20646   0.83749   0.00000  Uiso   1.00
O897   O     0.87755   0.17493   0.65877   0.00000  Uiso   1.00
O898   O     0.83865   0.16135   0.83749   0.00000  Uiso   1.00
O899   O     0.94641   0.12617   0.95784   0.00000  Uiso   1.00
O900   O     0.73461   0.22416   0.90395   0.00000  Uiso   1.00
O901   O     0.84515   0.08101   0.77821   0.00000  Uiso   1.00
O902   O     0.81247   0.26136   0.76767   0.00000  Uiso   1.00
O903   O     0.74119   0.13251   0.73607   0.00000  Uiso   1.00
O904   O     0.93452   0.19179   0.71806   0.00000  Uiso   1.00
O905   O     0.73656   0.18960   0.77820   0.00000  Uiso   1.00
O906   O     0.92106   0.15277   0.76768   0.00000  Uiso   1.00
O907   O     0.80467   0.06903   0.73607   0.00000  Uiso   1.00
O908   O     0.87104   0.25527   0.71806   0.00000  Uiso   1.00
Zn909  Zn    0.85910   0.14090   0.78278   0.00000  Uiso   1.00
Zn910  Zn    0.80125   0.12378   0.72258   0.00000  Uiso   1.00
Zn911  Zn    0.87833   0.19664   0.71188   0.00000  Uiso   1.00
Zn912  Zn    0.79465   0.20535   0.78277   0.00000  Uiso   1.00
C913   C     0.05297   0.49400   0.75812   0.00000  Uiso   1.00
C914   C     0.21509   0.48703   0.95976   0.00000  Uiso   1.00
C915   C     0.23958   0.47095   0.97896   0.00000  Uiso   1.00
C916   C     0.28093   0.50674   0.74147   0.00000  Uiso   1.00
C917   C     0.22524   0.47016   0.51980   0.00000  Uiso   1.00
C918   C     0.18491   0.48429   0.54152   0.00000  Uiso   1.00
C919   C     0.25137   0.45640   0.53943   0.00000  Uiso   1.00
C920   C     0.23869   0.45762   0.58015   0.00000  Uiso   1.00
C921   C     0.17187   0.48275   0.58265   0.00000  Uiso   1.00
C922   C     0.32650   0.50815   0.73852   0.00000  Uiso   1.00
C923   C     0.00748   0.49073   0.76388   0.00000  Uiso   1.00
C924   C     0.09500   0.54399   0.92185   0.00000  Uiso   1.00
C925   C     0.18087   0.65556   0.73815   0.00000  Uiso   1.00
C926   C     0.15171   0.34551   0.76234   0.00000  Uiso   1.00
C927   C     0.15595   0.38954   0.75899   0.00000  Uiso   1.00
C928   C     0.17687   0.61102   0.74137   0.00000  Uiso   1.00
C929   C     0.18868   0.47848   0.64414   0.00000  Uiso   1.00
C930   C     0.14491   0.52069   0.85621   0.00000  Uiso   1.00
C931   C     0.13308   0.52693   0.89949   0.00000  Uiso   1.00
C932   C     0.19899   0.47076   0.60163   0.00000  Uiso   1.00
C933   C     0.08445   0.54754   0.96285   0.00000  Uiso   1.00
C934   C     0.31316   0.46917   0.79924   0.00000  Uiso   1.00
C935   C     0.15927   0.51298   0.91863   0.00000  Uiso   1.00
C936   C     0.27457   0.41913   0.93820   0.00000  Uiso   1.00
C937   C     0.31850   0.40656   0.91435   0.00000  Uiso   1.00
C938   C     0.03359   0.52577   0.90362   0.00000  Uiso   1.00
C939   C     0.00261   0.54052   0.88527   0.00000  Uiso   1.00
C940   C     0.14872   0.51562   0.95994   0.00000  Uiso   1.00
C941   C     0.11022   0.53261   0.98186   0.00000  Uiso   1.00
C942   C     0.17461   0.50083   0.98000   0.00000  Uiso   1.00
C943   C     0.15979   0.50053   0.52165   0.00000  Uiso   1.00
C944   C     0.12097   0.51770   0.54216   0.00000  Uiso   1.00
C945   C     0.09715   0.53388   0.52260   0.00000  Uiso   1.00
H946   H     0.06772   0.54688   0.53958   0.00000  Uiso   1.00
H947   H     0.10806   0.51991   0.57361   0.00000  Uiso   1.00
H948   H     0.22979   0.48931   0.92887   0.00000  Uiso   1.00
H949   H     0.33321   0.45948   0.81604   0.00000  Uiso   1.00
H950   H     0.29132   0.49080   0.81966   0.00000  Uiso   1.00
H951   H     0.29456   0.44035   0.78973   0.00000  Uiso   1.00
H952   H     0.25473   0.41841   0.91758   0.00000  Uiso   1.00
H953   H     0.25926   0.39581   0.95976   0.00000  Uiso   1.00
H954   H     0.00621   0.40774   0.93385   0.00000  Uiso   1.00
H955   H     0.31498   0.37422   0.89990   0.00000  Uiso   1.00
H956   H     0.00034   0.42814   0.89133   0.00000  Uiso   1.00
H957   H     0.28235   0.44593   0.52352   0.00000  Uiso   1.00
H958   H     0.01536   0.51841   0.93399   0.00000  Uiso   1.00
H959   H     0.04577   0.49680   0.88583   0.00000  Uiso   1.00
H960   H     0.01937   0.54725   0.85454   0.00000  Uiso   1.00
H961   H     0.30874   0.51579   0.88520   0.00000  Uiso   1.00
H962   H     0.32305   0.56931   0.90250   0.00000  Uiso   1.00
H963   H     0.01613   0.52387   0.71466   0.00000  Uiso   1.00
H964   H     0.20778   0.33618   0.71592   0.00000  Uiso   1.00
H965   H     0.12445   0.66569   0.78468   0.00000  Uiso   1.00
H966   H     0.14176   0.49242   0.60128   0.00000  Uiso   1.00
H967   H     0.26012   0.44893   0.59500   0.00000  Uiso   1.00
H968   H     0.05523   0.56091   0.97980   0.00000  Uiso   1.00
H969   H     0.18711   0.49889   0.90029   0.00000  Uiso   1.00
O970   O     0.16667   0.50000   0.75000   0.00000  Uiso   1.00
O971   O     0.15693   0.45726   0.66625   0.00000  Uiso   1.00
O972   O     0.12687   0.53979   0.83749   0.00000  Uiso   1.00
O973   O     0.21088   0.50826   0.65877   0.00000  Uiso   1.00
O974   O     0.17198   0.49468   0.83749   0.00000  Uiso   1.00
O975   O     0.27974   0.45950   0.95784   0.00000  Uiso   1.00
O976   O     0.06794   0.55749   0.90395   0.00000  Uiso   1.00
O977   O     0.17849   0.41434   0.77821   0.00000  Uiso   1.00
O978   O     0.14581   0.59469   0.76767   0.00000  Uiso   1.00
O979   O     0.07452   0.46584   0.73607   0.00000  Uiso   1.00
O980   O     0.26785   0.52512   0.71806   0.00000  Uiso   1.00
O981   O     0.06990   0.52293   0.77820   0.00000  Uiso   1.00
O982   O     0.25440   0.48610   0.76768   0.00000  Uiso   1.00
O983   O     0.13800   0.40236   0.73607   0.00000  Uiso   1.00
O984   O     0.20437   0.58860   0.71806   0.00000  Uiso   1.00
Zn985  Zn    0.19244   0.47423   0.78278   0.00000  Uiso   1.00
Zn986  Zn    0.13459   0.45711   0.72258   0.00000  Uiso   1.00
Zn987  Zn    0.21166   0.52997   0.71188   0.00000  Uiso   1.00
Zn988  Zn    0.12798   0.53868   0.78277   0.00000  Uiso   1.00
C989   C     0.38631   0.49400   0.75812   0.00000  Uiso   1.00
C990   C     0.54842   0.48703   0.95976   0.00000  Uiso   1.00
C991   C     0.57291   0.47095   0.97896   0.00000  Uiso   1.00
C992   C     0.61426   0.50674   0.74147   0.00000  Uiso   1.00
C993   C     0.55857   0.47016   0.51980   0.00000  Uiso   1.00
C994   C     0.51824   0.48429   0.54152   0.00000  Uiso   1.00
C995   C     0.58471   0.45640   0.53943   0.00000  Uiso   1.00
C996   C     0.57202   0.45762   0.58015   0.00000  Uiso   1.00
C997   C     0.50520   0.48275   0.58265   0.00000  Uiso   1.00
C998   C     0.65983   0.50815   0.73852   0.00000  Uiso   1.00
C999   C     0.34082   0.49073   0.76388   0.00000  Uiso   1.00
C1000  C     0.42833   0.54399   0.92185   0.00000  Uiso   1.00
C1001  C     0.51421   0.65556   0.73815   0.00000  Uiso   1.00
C1002  C     0.48505   0.34551   0.76234   0.00000  Uiso   1.00
C1003  C     0.48928   0.38954   0.75899   0.00000  Uiso   1.00
C1004  C     0.51020   0.61102   0.74137   0.00000  Uiso   1.00
C1005  C     0.52201   0.47848   0.64414   0.00000  Uiso   1.00
C1006  C     0.47825   0.52069   0.85621   0.00000  Uiso   1.00
C1007  C     0.46642   0.52693   0.89949   0.00000  Uiso   1.00
C1008  C     0.53232   0.47076   0.60163   0.00000  Uiso   1.00
C1009  C     0.41778   0.54754   0.96285   0.00000  Uiso   1.00
C1010  C     0.64650   0.46917   0.79924   0.00000  Uiso   1.00
C1011  C     0.49261   0.51298   0.91863   0.00000  Uiso   1.00
C1012  C     0.60790   0.41913   0.93820   0.00000  Uiso   1.00
C1013  C     0.65183   0.40656   0.91435   0.00000  Uiso   1.00
C1014  C     0.36693   0.52577   0.90362   0.00000  Uiso   1.00
C1015  C     0.33595   0.54052   0.88527   0.00000  Uiso   1.00
C1016  C     0.48206   0.51562   0.95994   0.00000  Uiso   1.00
C1017  C     0.44356   0.53261   0.98186   0.00000  Uiso   1.00
C1018  C     0.50794   0.50083   0.98000   0.00000  Uiso   1.00
C1019  C     0.49312   0.50053   0.52165   0.00000  Uiso   1.00
C1020  C     0.45431   0.51770   0.54216   0.00000  Uiso   1.00
C1021  C     0.43049   0.53388   0.52260   0.00000  Uiso   1.00
H1022  H     0.40106   0.54688   0.53958   0.00000  Uiso   1.00
H1023  H     0.44140   0.51991   0.57361   0.00000  Uiso   1.00
H1024  H     0.56312   0.48931   0.92887   0.00000  Uiso   1.00
H1025  H     0.66655   0.45948   0.81604   0.00000  Uiso   1.00
H1026  H     0.62465   0.49080   0.81966   0.00000  Uiso   1.00
H1027  H     0.62789   0.44035   0.78973   0.00000  Uiso   1.00
H1028  H     0.58806   0.41841   0.91758   0.00000  Uiso   1.00
H1029  H     0.59259   0.39581   0.95976   0.00000  Uiso   1.00
H1030  H     0.33955   0.40774   0.93385   0.00000  Uiso   1.00
H1031  H     0.64831   0.37422   0.89990   0.00000  Uiso   1.00
H1032  H     0.33367   0.42814   0.89133   0.00000  Uiso   1.00
H1033  H     0.61568   0.44593   0.52352   0.00000  Uiso   1.00
H1034  H     0.34869   0.51841   0.93399   0.00000  Uiso   1.00
H1035  H     0.37910   0.49680   0.88583   0.00000  Uiso   1.00
H1036  H     0.35270   0.54725   0.85454   0.00000  Uiso   1.00
H1037  H     0.64207   0.51579   0.88520   0.00000  Uiso   1.00
H1038  H     0.65639   0.56931   0.90250   0.00000  Uiso   1.00
H1039  H     0.34946   0.52387   0.71466   0.00000  Uiso   1.00
H1040  H     0.54111   0.33618   0.71592   0.00000  Uiso   1.00
H1041  H     0.45778   0.66569   0.78468   0.00000  Uiso   1.00
H1042  H     0.47509   0.49242   0.60128   0.00000  Uiso   1.00
H1043  H     0.59346   0.44893   0.59500   0.00000  Uiso   1.00
H1044  H     0.38856   0.56091   0.97980   0.00000  Uiso   1.00
H1045  H     0.52044   0.49889   0.90029   0.00000  Uiso   1.00
O1046  O     0.50000   0.50000   0.75000   0.00000  Uiso   1.00
O1047  O     0.49027   0.45726   0.66625   0.00000  Uiso   1.00
O1048  O     0.46020   0.53979   0.83749   0.00000  Uiso   1.00
O1049  O     0.54421   0.50826   0.65877   0.00000  Uiso   1.00
O1050  O     0.50532   0.49468   0.83749   0.00000  Uiso   1.00
O1051  O     0.61308   0.45950   0.95784   0.00000  Uiso   1.00
O1052  O     0.40128   0.55749   0.90395   0.00000  Uiso   1.00
O1053  O     0.51182   0.41434   0.77821   0.00000  Uiso   1.00
O1054  O     0.47914   0.59469   0.76767   0.00000  Uiso   1.00
O1055  O     0.40785   0.46584   0.73607   0.00000  Uiso   1.00
O1056  O     0.60119   0.52512   0.71806   0.00000  Uiso   1.00
O1057  O     0.40323   0.52293   0.77820   0.00000  Uiso   1.00
O1058  O     0.58773   0.48610   0.76768   0.00000  Uiso   1.00
O1059  O     0.47133   0.40236   0.73607   0.00000  Uiso   1.00
O1060  O     0.53771   0.58860   0.71806   0.00000  Uiso   1.00
Zn1061 Zn    0.52577   0.47423   0.78278   0.00000  Uiso   1.00
Zn1062 Zn    0.46792   0.45711   0.72258   0.00000  Uiso   1.00
Zn1063 Zn    0.54500   0.52997   0.71188   0.00000  Uiso   1.00
Zn1064 Zn    0.46131   0.53868   0.78277   0.00000  Uiso   1.00
C1065  C     0.71964   0.49400   0.75812   0.00000  Uiso   1.00
C1066  C     0.88175   0.48703   0.95976   0.00000  Uiso   1.00
C1067  C     0.90624   0.47095   0.97896   0.00000  Uiso   1.00
C1068  C     0.94759   0.50674   0.74147   0.00000  Uiso   1.00
C1069  C     0.89191   0.47016   0.51980   0.00000  Uiso   1.00
C1070  C     0.85157   0.48429   0.54152   0.00000  Uiso   1.00
C1071  C     0.91804   0.45640   0.53943   0.00000  Uiso   1.00
C1072  C     0.90536   0.45762   0.58015   0.00000  Uiso   1.00
C1073  C     0.83853   0.48275   0.58265   0.00000  Uiso   1.00
C1074  C     0.99317   0.50815   0.73852   0.00000  Uiso   1.00
C1075  C     0.67415   0.49073   0.76388   0.00000  Uiso   1.00
C1076  C     0.76166   0.54399   0.92185   0.00000  Uiso   1.00
C1077  C     0.84754   0.65556   0.73815   0.00000  Uiso   1.00
C1078  C     0.81838   0.34551   0.76234   0.00000  Uiso   1.00
C1079  C     0.82261   0.38954   0.75899   0.00000  Uiso   1.00
C1080  C     0.84353   0.61102   0.74137   0.00000  Uiso   1.00
C1081  C     0.85534   0.47848   0.64414   0.00000  Uiso   1.00
C1082  C     0.81158   0.52069   0.85621   0.00000  Uiso   1.00
C1083  C     0.79975   0.52693   0.89949   0.00000  Uiso   1.00
C1084  C     0.86565   0.47076   0.60163   0.00000  Uiso   1.00
C1085  C     0.75112   0.54754   0.96285   0.00000  Uiso   1.00
C1086  C     0.97983   0.46917   0.79924   0.00000  Uiso   1.00
C1087  C     0.82594   0.51298   0.91863   0.00000  Uiso   1.00
C1088  C     0.94123   0.41913   0.93820   0.00000  Uiso   1.00
C1089  C     0.98517   0.40656   0.91435   0.00000  Uiso   1.00
C1090  C     0.70026   0.52577   0.90362   0.00000  Uiso   1.00
C1091  C     0.66928   0.54052   0.88527   0.00000  Uiso   1.00
C1092  C     0.81539   0.51562   0.95994   0.00000  Uiso   1.00
C1093  C     0.77689   0.53261   0.98186   0.00000  Uiso   1.00
C1094  C     0.84128   0.50083   0.98000   0.00000  Uiso   1.00
C1095  C     0.82646   0.50053   0.52165   0.00000  Uiso   1.00
C1096  C     0.78764   0.51770   0.54216   0.00000  Uiso   1.00
C1097  C     0.76382   0.53388   0.52260   0.00000  Uiso   1.00
H1098  H     0.73439   0.54688   0.53958   0.00000  Uiso   1.00
H1099  H     0.77473   0.51991   0.57361   0.00000  Uiso   1.00
H1100  H     0.89646   0.48931   0.92887   0.00000  Uiso   1.00
H1101  H     0.99988   0.45948   0.81604   0.00000  Uiso   1.00
H1102  H     0.95798   0.49080   0.81966   0.00000  Uiso   1.00
H1103  H     0.96122   0.44035   0.78973   0.00000  Uiso   1.00
H1104  H     0.92140   0.41841   0.91758   0.00000  Uiso   1.00
H1105  H     0.92592   0.39581   0.95976   0.00000  Uiso   1.00
H1106  H     0.67288   0.40774   0.93385   0.00000  Uiso   1.00
H1107  H     0.98164   0.37422   0.89990   0.00000  Uiso   1.00
H1108  H     0.66701   0.42814   0.89133   0.00000  Uiso   1.00
H1109  H     0.94902   0.44593   0.52352   0.00000  Uiso   1.00
H1110  H     0.68202   0.51841   0.93399   0.00000  Uiso   1.00
H1111  H     0.71243   0.49680   0.88583   0.00000  Uiso   1.00
H1112  H     0.68604   0.54725   0.85454   0.00000  Uiso   1.00
H1113  H     0.97540   0.51579   0.88520   0.00000  Uiso   1.00
H1114  H     0.98972   0.56931   0.90250   0.00000  Uiso   1.00
H1115  H     0.68280   0.52387   0.71466   0.00000  Uiso   1.00
H1116  H     0.87444   0.33618   0.71592   0.00000  Uiso   1.00
H1117  H     0.79112   0.66569   0.78468   0.00000  Uiso   1.00
H1118  H     0.80843   0.49242   0.60128   0.00000  Uiso   1.00
H1119  H     0.92679   0.44893   0.59500   0.00000  Uiso   1.00
H1120  H     0.72190   0.56091   0.97980   0.00000  Uiso   1.00
H1121  H     0.85377   0.49889   0.90029   0.00000  Uiso   1.00
O1122  O     0.83333   0.50000   0.75000   0.00000  Uiso   1.00
O1123  O     0.82360   0.45726   0.66625   0.00000  Uiso   1.00
O1124  O     0.79354   0.53979   0.83749   0.00000  Uiso   1.00
O1125  O     0.87755   0.50826   0.65877   0.00000  Uiso   1.00
O1126  O     0.83865   0.49468   0.83749   0.00000  Uiso   1.00
O1127  O     0.94641   0.45950   0.95784   0.00000  Uiso   1.00
O1128  O     0.73461   0.55749   0.90395   0.00000  Uiso   1.00
O1129  O     0.84515   0.41434   0.77821   0.00000  Uiso   1.00
O1130  O     0.81247   0.59469   0.76767   0.00000  Uiso   1.00
O1131  O     0.74119   0.46584   0.73607   0.00000  Uiso   1.00
O1132  O     0.93452   0.52512   0.71806   0.00000  Uiso   1.00
O1133  O     0.73656   0.52293   0.77820   0.00000  Uiso   1.00
O1134  O     0.92106   0.48610   0.76768   0.00000  Uiso   1.00
O1135  O     0.80467   0.40236   0.73607   0.00000  Uiso   1.00
O1136  O     0.87104   0.58860   0.71806   0.00000  Uiso   1.00
Zn1137 Zn    0.85910   0.47423   0.78278   0.00000  Uiso   1.00
Zn1138 Zn    0.80125   0.45711   0.72258   0.00000  Uiso   1.00
Zn1139 Zn    0.87833   0.52997   0.71188   0.00000  Uiso   1.00
Zn1140 Zn    0.79465   0.53868   0.78277   0.00000  Uiso   1.00
C1141  C     0.05297   0.82733   0.75812   0.00000  Uiso   1.00
C1142  C     0.21509   0.82036   0.95976   0.00000  Uiso   1.00
C1143  C     0.23958   0.80428   0.97896   0.00000  Uiso   1.00
C1144  C     0.28093   0.84007   0.74147   0.00000  Uiso   1.00
C1145  C     0.22524   0.80350   0.51980   0.00000  Uiso   1.00
C1146  C     0.18491   0.81762   0.54152   0.00000  Uiso   1.00
C1147  C     0.25137   0.78974   0.53943   0.00000  Uiso   1.00
C1148  C     0.23869   0.79095   0.58015   0.00000  Uiso   1.00
C1149  C     0.17187   0.81609   0.58265   0.00000  Uiso   1.00
C1150  C     0.32650   0.84149   0.73852   0.00000  Uiso   1.00
C1151  C     0.00748   0.82406   0.76388   0.00000  Uiso   1.00
C1152  C     0.09500   0.87733   0.92185   0.00000  Uiso   1.00
C1153  C     0.18087   0.98889   0.73815   0.00000  Uiso   1.00
C1154  C     0.15171   0.67885   0.76234   0.00000  Uiso   1.00
C1155  C     0.15595   0.72288   0.75899   0.00000  Uiso   1.00
C1156  C     0.17687   0.94435   0.74137   0.00000  Uiso   1.00
C1157  C     0.18868   0.81181   0.64414   0.00000  Uiso   1.00
C1158  C     0.14491   0.85403   0.85621   0.00000  Uiso   1.00
C1159  C     0.13308   0.86027   0.89949   0.00000  Uiso   1.00
C1160  C     0.19899   0.80410   0.60163   0.00000  Uiso   1.00
C1161  C     0.08445   0.88087   0.96285   0.00000  Uiso   1.00
C1162  C     0.31316   0.80250   0.79924   0.00000  Uiso   1.00
C1163  C     0.15927   0.84632   0.91863   0.00000  Uiso   1.00
C1164  C     0.27457   0.75247   0.93820   0.00000  Uiso   1.00
C1165  C     0.31850   0.73989   0.91435   0.00000  Uiso   1.00
C1166  C     0.03359   0.85910   0.90362   0.00000  Uiso   1.00
C1167  C     0.00261   0.87385   0.88527   0.00000  Uiso   1.00
C1168  C     0.14872   0.84895   0.95994   0.00000  Uiso   1.00
C1169  C     0.11022   0.86594   0.98186   0.00000  Uiso   1.00
C1170  C     0.17461   0.83417   0.98000   0.00000  Uiso   1.00
C1171  C     0.15979   0.83387   0.52165   0.00000  Uiso   1.00
C1172  C     0.12097   0.85104   0.54216   0.00000  Uiso   1.00
C1173  C     0.09715   0.86722   0.52260   0.00000  Uiso   1.00
H1174  H     0.06772   0.88021   0.53958   0.00000  Uiso   1.00
H1175  H     0.10806   0.85325   0.57361   0.00000  Uiso   1.00
H1176  H     0.22979   0.82265   0.92887   0.00000  Uiso   1.00
H1177  H     0.33321   0.79281   0.81604   0.00000  Uiso   1.00
H1178  H     0.29132   0.82414   0.81966   0.00000  Uiso   1.00
H1179  H     0.29456   0.77369   0.78973   0.00000  Uiso   1.00
H1180  H     0.25473   0.75174   0.91758   0.00000  Uiso   1.00
H1181  H     0.25926   0.72915   0.95976   0.00000  Uiso   1.00
H1182  H     0.00621   0.74107   0.93385   0.00000  Uiso   1.00
H1183  H     0.31498   0.70756   0.89990   0.00000  Uiso   1.00
H1184  H     0.00034   0.76148   0.89133   0.00000  Uiso   1.00
H1185  H     0.28235   0.77926   0.52352   0.00000  Uiso   1.00
H1186  H     0.01536   0.85175   0.93399   0.00000  Uiso   1.00
H1187  H     0.04577   0.83014   0.88583   0.00000  Uiso   1.00
H1188  H     0.01937   0.88058   0.85454   0.00000  Uiso   1.00
H1189  H     0.30874   0.84912   0.88520   0.00000  Uiso   1.00
H1190  H     0.32305   0.90265   0.90250   0.00000  Uiso   1.00
H1191  H     0.01613   0.85720   0.71466   0.00000  Uiso   1.00
H1192  H     0.20778   0.66951   0.71592   0.00000  Uiso   1.00
H1193  H     0.12445   0.99902   0.78468   0.00000  Uiso   1.00
H1194  H     0.14176   0.82576   0.60128   0.00000  Uiso   1.00
H1195  H     0.26012   0.78226   0.59500   0.00000  Uiso   1.00
H1196  H     0.05523   0.89424   0.97980   0.00000  Uiso   1.00
H1197  H     0.18711   0.83222   0.90029   0.00000  Uiso   1.00
O1198  O     0.16667   0.83333   0.75000   0.00000  Uiso   1.00
O1199  O     0.15693   0.79060   0.66625   0.00000  Uiso   1.00
O1200  O     0.12687   0.87313   0.83749   0.00000  Uiso   1.00
O1201  O     0.21088   0.84159   0.65877   0.00000  Uiso   1.00
O1202  O     0.17198   0.82802   0.83749   0.00000  Uiso   1.00
O1203  O     0.27974   0.79284   0.95784   0.00000  Uiso   1.00
O1204  O     0.06794   0.89083   0.90395   0.00000  Uiso   1.00
O1205  O     0.17849   0.74768   0.77821   0.00000  Uiso   1.00
O1206  O     0.14581   0.92803   0.76767   0.00000  Uiso   1.00
O1207  O     0.07452   0.79917   0.73607   0.00000  Uiso   1.00
O1208  O     0.26785   0.85845   0.71806   0.00000  Uiso   1.00
O1209  O     0.06990   0.85627   0.77820   0.00000  Uiso   1.00
O1210  O     0.25440   0.81944   0.76768   0.00000  Uiso   1.00
O1211  O     0.13800   0.73570   0.73607   0.00000  Uiso   1.00
O1212  O     0.20437   0.92193   0.71806   0.00000  Uiso   1.00
Zn1213 Zn    0.19244   0.80756   0.78278   0.00000  Uiso   1.00
Zn1214 Zn    0.13459   0.79044   0.72258   0.00000  Uiso   1.00
Zn1215 Zn    0.21166   0.86331   0.71188   0.00000  Uiso   1.00
Zn1216 Zn    0.12798   0.87202   0.78277   0.00000  Uiso   1.00
C1217  C     0.38631   0.82733   0.75812   0.00000  Uiso   1.00
C1218  C     0.54842   0.82036   0.95976   0.00000  Uiso   1.00
C1219  C     0.57291   0.80428   0.97896   0.00000  Uiso   1.00
C1220  C     0.61426   0.84007   0.74147   0.00000  Uiso   1.00
C1221  C     0.55857   0.80350   0.51980   0.00000  Uiso   1.00
C1222  C     0.51824   0.81762   0.54152   0.00000  Uiso   1.00
C1223  C     0.58471   0.78974   0.53943   0.00000  Uiso   1.00
C1224  C     0.57202   0.79095   0.58015   0.00000  Uiso   1.00
C1225  C     0.50520   0.81609   0.58265   0.00000  Uiso   1.00
C1226  C     0.65983   0.84149   0.73852   0.00000  Uiso   1.00
C1227  C     0.34082   0.82406   0.76388   0.00000  Uiso   1.00
C1228  C     0.42833   0.87733   0.92185   0.00000  Uiso   1.00
C1229  C     0.51421   0.98889   0.73815   0.00000  Uiso   1.00
C1230  C     0.48505   0.67885   0.76234   0.00000  Uiso   1.00
C1231  C     0.48928   0.72288   0.75899   0.00000  Uiso   1.00
C1232  C     0.51020   0.94435   0.74137   0.00000  Uiso   1.00
C1233  C     0.52201   0.81181   0.64414   0.00000  Uiso   1.00
C1234  C     0.47825   0.85403   0.85621   0.00000  Uiso   1.00
C1235  C     0.46642   0.86027   0.89949   0.00000  Uiso   1.00
C1236  C     0.53232   0.80410   0.60163   0.00000  Uiso   1.00
C1237  C     0.41778   0.88087   0.96285   0.00000  Uiso   1.00
C1238  C     0.64650   0.80250   0.79924   0.00000  Uiso   1.00
C1239  C     0.49261   0.84632   0.91863   0.00000  Uiso   1.00
C1240  C     0.60790   0.75247   0.93820   0.00000  Uiso   1.00
C1241  C     0.65183   0.73989   0.91435   0.00000  Uiso   1.00
C1242  C     0.36693   0.85910   0.90362   0.00000  Uiso   1.00
C1243  C     0.33595   0.87385   0.88527   0.00000  Uiso   1.00
C1244  C     0.48206   0.84895   0.95994   0.00000  Uiso   1.00
C1245  C     0.44356   0.86594   0.98186   0.00000  Uiso   1.00
C1246  C     0.50794   0.83417   0.98000   0.00000  Uiso   1.00
C1247  C     0.49312   0.83387   0.52165   0.00000  Uiso   1.00
C1248  C     0.45431   0.85104   0.54216   0.00000  Uiso   1.00
C1249  C     0.43049   0.86722   0.52260   0.00000  Uiso   1.00
H1250  H     0.40106   0.88021   0.53958   0.00000  Uiso   1.00
H1251  H     0.44140   0.85325   0.57361   0.00000  Uiso   1.00
H1252  H     0.56312   0.82265   0.92887   0.00000  Uiso   1.00
H1253  H     0.66655   0.79281   0.81604   0.00000  Uiso   1.00
H1254  H     0.62465   0.82414   0.81966   0.00000  Uiso   1.00
H1255  H     0.62789   0.77369   0.78973   0.00000  Uiso   1.00
H1256  H     0.58806   0.75174   0.91758   0.00000  Uiso   1.00
H1257  H     0.59259   0.72915   0.95976   0.00000  Uiso   1.00
H1258  H     0.33955   0.74107   0.93385   0.00000  Uiso   1.00
H1259  H     0.64831   0.70756   0.89990   0.00000  Uiso   1.00
H1260  H     0.33367   0.76148   0.89133   0.00000  Uiso   1.00
H1261  H     0.61568   0.77926   0.52352   0.00000  Uiso   1.00
H1262  H     0.34869   0.85175   0.93399   0.00000  Uiso   1.00
H1263  H     0.37910   0.83014   0.88583   0.00000  Uiso   1.00
H1264  H     0.35270   0.88058   0.85454   0.00000  Uiso   1.00
H1265  H     0.64207   0.84912   0.88520   0.00000  Uiso   1.00
H1266  H     0.65639   0.90265   0.90250   0.00000  Uiso   1.00
H1267  H     0.34946   0.85720   0.71466   0.00000  Uiso   1.00
H1268  H     0.54111   0.66951   0.71592   0.00000  Uiso   1.00
H1269  H     0.45778   0.99902   0.78468   0.00000  Uiso   1.00
H1270  H     0.47509   0.82576   0.60128   0.00000  Uiso   1.00
H1271  H     0.59346   0.78226   0.59500   0.00000  Uiso   1.00
H1272  H     0.38856   0.89424   0.97980   0.00000  Uiso   1.00
H1273  H     0.52044   0.83222   0.90029   0.00000  Uiso   1.00
O1274  O     0.50000   0.83333   0.75000   0.00000  Uiso   1.00
O1275  O     0.49027   0.79060   0.66625   0.00000  Uiso   1.00
O1276  O     0.46020   0.87313   0.83749   0.00000  Uiso   1.00
O1277  O     0.54421   0.84159   0.65877   0.00000  Uiso   1.00
O1278  O     0.50532   0.82802   0.83749   0.00000  Uiso   1.00
O1279  O     0.61308   0.79284   0.95784   0.00000  Uiso   1.00
O1280  O     0.40128   0.89083   0.90395   0.00000  Uiso   1.00
O1281  O     0.51182   0.74768   0.77821   0.00000  Uiso   1.00
O1282  O     0.47914   0.92803   0.76767   0.00000  Uiso   1.00
O1283  O     0.40785   0.79917   0.73607   0.00000  Uiso   1.00
O1284  O     0.60119   0.85845   0.71806   0.00000  Uiso   1.00
O1285  O     0.40323   0.85627   0.77820   0.00000  Uiso   1.00
O1286  O     0.58773   0.81944   0.76768   0.00000  Uiso   1.00
O1287  O     0.47133   0.73570   0.73607   0.00000  Uiso   1.00
O1288  O     0.53771   0.92193   0.71806   0.00000  Uiso   1.00
Zn1289 Zn    0.52577   0.80756   0.78278   0.00000  Uiso   1.00
Zn1290 Zn    0.46792   0.79044   0.72258   0.00000  Uiso   1.00
Zn1291 Zn    0.54500   0.86331   0.71188   0.00000  Uiso   1.00
Zn1292 Zn    0.46131   0.87202   0.78277   0.00000  Uiso   1.00
C1293  C     0.71964   0.82733   0.75812   0.00000  Uiso   1.00
C1294  C     0.88175   0.82036   0.95976   0.00000  Uiso   1.00
C1295  C     0.90624   0.80428   0.97896   0.00000  Uiso   1.00
C1296  C     0.94759   0.84007   0.74147   0.00000  Uiso   1.00
C1297  C     0.89191   0.80350   0.51980   0.00000  Uiso   1.00
C1298  C     0.85157   0.81762   0.54152   0.00000  Uiso   1.00
C1299  C     0.91804   0.78974   0.53943   0.00000  Uiso   1.00
C1300  C     0.90536   0.79095   0.58015   0.00000  Uiso   1.00
C1301  C     0.83853   0.81609   0.58265   0.00000  Uiso   1.00
C1302  C     0.99317   0.84149   0.73852   0.00000  Uiso   1.00
C1303  C     0.67415   0.82406   0.76388   0.00000  Uiso   1.00
C1304  C     0.76166   0.87733   0.92185   0.00000  Uiso   1.00
C1305  C     0.84754   0.98889   0.73815   0.00000  Uiso   1.00
C1306  C     0.81838   0.67885   0.76234   0.00000  Uiso   1.00
C1307  C     0.82261   0.72288   0.75899   0.00000  Uiso   1.00
C1308  C     0.84353   0.94435   0.74137   0.00000  Uiso   1.00
C1309  C     0.85534   0.81181   0.64414   0.00000  Uiso   1.00
C1310  C     0.81158   0.85403   0.85621   0.00000  Uiso   1.00
C1311  C     0.79975   0.86027   0.89949   0.00000  Uiso   1.00
C1312  C     0.86565   0.80410   0.60163   0.00000  Uiso   1.00
C1313  C     0.75112   0.88087   0.96285   0.00000  Uiso   1.00
C1314  C     0.97983   0.80250   0.79924   0.00000  Uiso   1.00
C1315  C     0.82594   0.84632   0.91863   0.00000  Uiso   1.00
C1316  C     0.94123   0.75247   0.93820   0.00000  Uiso   1.00
C1317  C     0.98517   0.73989   0.91435   0.00000  Uiso   1.00
C1318  C     0.70026   0.85910   0.90362   0.00000  Uiso   1.00
C1319  C     0.66928   0.87385   0.88527   0.00000  Uiso   1.00
C1320  C     0.81539   0.84895   0.95994   0.00000  Uiso   1.00
C1321  C     0.77689   0.86594   0.98186   0.00000  Uiso   1.00
C1322  C     0.84128   0.83417   0.98000   0.00000  Uiso   1.00
C1323  C     0.82646   0.83387   0.52165   0.00000  Uiso   1.00
C1324  C     0.78764   0.85104   0.54216   0.00000  Uiso   1.00
C1325  C     0.76382   0.86722   0.52260   0.00000  Uiso   1.00
H1326  H     0.73439   0.88021   0.53958   0.00000  Uiso   1.00
H1327  H     0.77473   0.85325   0.57361   0.00000  Uiso   1.00
H1328  H     0.89646   0.82265   0.92887   0.00000  Uiso   1.00
H1329  H     0.99988   0.79281   0.81604   0.00000  Uiso   1.00
H1330  H     0.95798   0.82414   0.81966   0.00000  Uiso   1.00
H1331  H     0.96122   0.77369   0.78973   0.00000  Uiso   1.00
H1332  H     0.92140   0.75174   0.91758   0.00000  Uiso   1.00
H1333  H     0.92592   0.72915   0.95976   0.00000  Uiso   1.00
H1334  H     0.67288   0.74107   0.93385   0.00000  Uiso   1.00
H1335  H     0.98164   0.70756   0.89990   0.00000  Uiso   1.00
H1336  H     0.66701   0.76148   0.89133   0.00000  Uiso   1.00
H1337  H     0.94902   0.77926   0.52352   0.00000  Uiso   1.00
H1338  H     0.68202   0.85175   0.93399   0.00000  Uiso   1.00
H1339  H     0.71243   0.83014   0.88583   0.00000  Uiso   1.00
H1340  H     0.68604   0.88058   0.85454   0.00000  Uiso   1.00
H1341  H     0.97540   0.84912   0.88520   0.00000  Uiso   1.00
H1342  H     0.98972   0.90265   0.90250   0.00000  Uiso   1.00
H1343  H     0.68280   0.85720   0.71466   0.00000  Uiso   1.00
H1344  H     0.87444   0.66951   0.71592   0.00000  Uiso   1.00
H1345  H     0.79112   0.99902   0.78468   0.00000  Uiso   1.00
H1346  H     0.80843   0.82576   0.60128   0.00000  Uiso   1.00
H1347  H     0.92679   0.78226   0.59500   0.00000  Uiso   1.00
H1348  H     0.72190   0.89424   0.97980   0.00000  Uiso   1.00
H1349  H     0.85377   0.83222   0.90029   0.00000  Uiso   1.00
O1350  O     0.83333   0.83333   0.75000   0.00000  Uiso   1.00
O1351  O     0.82360   0.79060   0.66625   0.00000  Uiso   1.00
O1352  O     0.79354   0.87313   0.83749   0.00000  Uiso   1.00
O1353  O     0.87755   0.84159   0.65877   0.00000  Uiso   1.00
O1354  O     0.83865   0.82802   0.83749   0.00000  Uiso   1.00
O1355  O     0.94641   0.79284   0.95784   0.00000  Uiso   1.00
O1356  O     0.73461   0.89083   0.90395   0.00000  Uiso   1.00
O1357  O     0.84515   0.74768   0.77821   0.00000  Uiso   1.00
O1358  O     0.81247   0.92803   0.76767   0.00000  Uiso   1.00
O1359  O     0.74119   0.79917   0.73607   0.00000  Uiso   1.00
O1360  O     0.93452   0.85845   0.71806   0.00000  Uiso   1.00
O1361  O     0.73656   0.85627   0.77820   0.00000  Uiso   1.00
O1362  O     0.92106   0.81944   0.76768   0.00000  Uiso   1.00
O1363  O     0.80467   0.73570   0.73607   0.00000  Uiso   1.00
O1364  O     0.87104   0.92193   0.71806   0.00000  Uiso   1.00
Zn1365 Zn    0.85910   0.80756   0.78278   0.00000  Uiso   1.00
Zn1366 Zn    0.80125   0.79044   0.72258   0.00000  Uiso   1.00
Zn1367 Zn    0.87833   0.86331   0.71188   0.00000  Uiso   1.00
Zn1368 Zn    0.79465   0.87202   0.78277   0.00000  Uiso   1.00
loop_
_geom_bond_atom_site_label_1
_geom_bond_atom_site_label_2
_geom_bond_distance
_geom_bond_site_symmetry_2
_ccdc_geom_bond_type
C1     C11     1.433   .     S
C1     O69     1.267   .     A
C1     O67     1.270   .     A
C2     H36     1.076   .     S
C2     C30     1.413   .     A
C2     C3      1.391   .     A
C3     O63     1.384   .     S
C3     C689    1.399   .     S
C4     O70     1.267   .     A
C4     O68     1.291   .     A
C4     C10     1.459   .     S
C5     C7      1.407   .     A
C5     C6      1.424   .     A
C5     C687    1.399   1_554 S
C6     C9      1.412   .     A
C6     C31     1.427   .     A
C7     C8      1.388   .     A
C7     H45     1.083   .     S
C8     C20     1.394   .     A
C8     H55     1.084   .     S
C9     C20     1.390   .     A
C9     H54     1.076   .     S
C10    C87     1.354   .     S
C10    H127    1.088   .     S
C11    C162    1.354   1_455 S
C11    C174    1.515   1_455 S
C12    O64     1.383   .     S
C12    C21     1.397   .     A
C12    C19     1.411   .     A
C13    C16     1.450   .     S
C13    C242    1.331   .     S
C13    H280    1.088   .     S
C14    C15     1.434   .     S
C14    C469    1.331   1_545 S
C14    H509    1.086   1_545 S
C15    O71     1.281   .     A
C15    O65     1.281   .     A
C16    O72     1.271   .     A
C16    O66     1.271   .     A
C17    C20     1.451   .     S
C17    O61     1.273   .     A
C17    O59     1.280   .     A
C18    C19     1.474   .     S
C18    O62     1.287   .     A
C18    O60     1.279   .     A
C19    C23     1.398   .     A
C21    C29     1.400   .     A
C21    H56     1.084   .     S
C22    H38     1.110   .     S
C22    H37     1.112   .     S
C22    H39     1.110   .     S
C22    C87     1.515   .     S
C23    C28     1.408   .     A
C23    H57     1.075   .     S
C24    H40     1.114   .     S
C24    H41     1.115   .     S
C24    C25     1.521   .     S
C24    O63     1.412   .     S
C25    H43     1.110   .     S
C25    H118    1.111   .     S
C25    H120    1.110   .     S
C26    C27     1.520   .     S
C26    O64     1.413   .     S
C26    H47     1.114   .     S
C26    H46     1.114   .     S
C27    H48     1.110   .     S
C27    H201    1.110   1_455 S
C27    H202    1.111   1_455 S
C28    C29     1.416   .     A
C28    C30     1.427   .     A
C29    C717    1.389   .     S
C30    C715    1.426   .     S
C31    C32     1.416   .     A
C31    C714    1.426   1_554 S
C32    H35     1.075   .     S
C32    C33     1.385   .     A
C33    H34     1.085   .     S
C33    C713    1.389   1_554 S
H42    C177    1.111   1_455 S
H44    C177    1.110   1_455 S
H49    C103    1.110   .     S
H50    C103    1.111   .     S
H51    C162    1.088   1_455 S
H52    C469    1.088   1_545 S
H53    C242    1.086   .     S
O58    Zn76    1.932   .     S
O58    Zn75    1.934   .     S
O58    Zn74    1.954   .     S
O58    Zn73    1.962   .     S
O59    Zn74    1.931   .     S
O60    Zn76    1.943   .     S
O61    Zn75    1.940   .     S
O62    Zn73    1.928   .     S
O65    Zn73    1.927   .     S
O66    Zn76    1.928   .     S
O67    Zn74    1.935   .     S
O68    Zn75    1.948   .     S
O69    Zn76    1.946   .     S
O70    Zn73    1.934   .     S
O71    Zn74    1.931   .     S
O72    Zn75    1.927   .     S
C77    C87     1.433   .     S
C77    O145    1.267   .     A
C77    O143    1.270   .     A
C78    H112    1.076   .     S
C78    C106    1.413   .     A
C78    C79     1.391   .     A
C79    O139    1.384   .     S
C79    C765    1.399   .     S
C80    O146    1.267   .     A
C80    O144    1.291   .     A
C80    C86     1.459   .     S
C81    C83     1.407   .     A
C81    C82     1.424   .     A
C81    C763    1.399   1_554 S
C82    C85     1.412   .     A
C82    C107    1.427   .     A
C83    C84     1.388   .     A
C83    H121    1.083   .     S
C84    C96     1.394   .     A
C84    H131    1.084   .     S
C85    C96     1.390   .     A
C85    H130    1.076   .     S
C86    C163    1.354   .     S
C86    H203    1.088   .     S
C88    O140    1.383   .     S
C88    C97     1.397   .     A
C88    C95     1.411   .     A
C89    C92     1.450   .     S
C89    C318    1.331   .     S
C89    H356    1.088   .     S
C90    C91     1.434   .     S
C90    C545    1.331   1_545 S
C90    H585    1.086   1_545 S
C91    O147    1.281   .     A
C91    O141    1.281   .     A
C92    O148    1.271   .     A
C92    O142    1.271   .     A
C93    C96     1.451   .     S
C93    O137    1.273   .     A
C93    O135    1.280   .     A
C94    C95     1.474   .     S
C94    O138    1.287   .     A
C94    O136    1.279   .     A
C95    C99     1.398   .     A
C97    C105    1.400   .     A
C97    H132    1.084   .     S
C98    H114    1.110   .     S
C98    H113    1.112   .     S
C98    H115    1.110   .     S
C98    C163    1.515   .     S
C99    C104    1.408   .     A
C99    H133    1.075   .     S
C100   H116    1.114   .     S
C100   H117    1.115   .     S
C100   C101    1.521   .     S
C100   O139    1.412   .     S
C101   H119    1.110   .     S
C101   H194    1.111   .     S
C101   H196    1.110   .     S
C102   C103    1.520   .     S
C102   O140    1.413   .     S
C102   H123    1.114   .     S
C102   H122    1.114   .     S
C103   H124    1.110   .     S
C104   C105    1.416   .     A
C104   C106    1.427   .     A
C105   C793    1.389   .     S
C106   C791    1.426   .     S
C107   C108    1.416   .     A
C107   C790    1.426   1_554 S
C108   H111    1.075   .     S
C108   C109    1.385   .     A
C109   H110    1.085   .     S
C109   C789    1.389   1_554 S
H125   C179    1.110   .     S
H126   C179    1.111   .     S
H128   C545    1.088   1_545 S
H129   C318    1.086   .     S
O134   Zn152   1.932   .     S
O134   Zn151   1.934   .     S
O134   Zn150   1.954   .     S
O134   Zn149   1.962   .     S
O135   Zn150   1.931   .     S
O136   Zn152   1.943   .     S
O137   Zn151   1.940   .     S
O138   Zn149   1.928   .     S
O141   Zn149   1.927   .     S
O142   Zn152   1.928   .     S
O143   Zn150   1.935   .     S
O144   Zn151   1.948   .     S
O145   Zn152   1.946   .     S
O146   Zn149   1.934   .     S
O147   Zn150   1.931   .     S
O148   Zn151   1.927   .     S
C153   C163    1.433   .     S
C153   O221    1.267   .     A
C153   O219    1.270   .     A
C154   H188    1.076   .     S
C154   C182    1.413   .     A
C154   C155    1.391   .     A
C155   O215    1.384   .     S
C155   C841    1.399   .     S
C156   O222    1.267   .     A
C156   O220    1.291   .     A
C156   C162    1.459   .     S
C157   C159    1.407   .     A
C157   C158    1.424   .     A
C157   C839    1.399   1_554 S
C158   C161    1.412   .     A
C158   C183    1.427   .     A
C159   C160    1.388   .     A
C159   H197    1.083   .     S
C160   C172    1.394   .     A
C160   H207    1.084   .     S
C161   C172    1.390   .     A
C161   H206    1.076   .     S
C162   C11     1.354   1_655 S
C162   H51     1.088   1_655 S
C164   O216    1.383   .     S
C164   C173    1.397   .     A
C164   C171    1.411   .     A
C165   C168    1.450   .     S
C165   C394    1.331   .     S
C165   H432    1.088   .     S
C166   C167    1.434   .     S
C166   C621    1.331   1_545 S
C166   H661    1.086   1_545 S
C167   O223    1.281   .     A
C167   O217    1.281   .     A
C168   O224    1.271   .     A
C168   O218    1.271   .     A
C169   C172    1.451   .     S
C169   O213    1.273   .     A
C169   O211    1.280   .     A
C170   C171    1.474   .     S
C170   O214    1.287   .     A
C170   O212    1.279   .     A
C171   C175    1.398   .     A
C173   C181    1.400   .     A
C173   H208    1.084   .     S
C174   H190    1.110   .     S
C174   H189    1.112   .     S
C174   H191    1.110   .     S
C174   C11     1.515   1_655 S
C175   C180    1.408   .     A
C175   H209    1.075   .     S
C176   H192    1.114   .     S
C176   H193    1.115   .     S
C176   C177    1.521   .     S
C176   O215    1.412   .     S
C177   H195    1.110   .     S
C177   H42     1.111   1_655 S
C177   H44     1.110   1_655 S
C178   C179    1.520   .     S
C178   O216    1.413   .     S
C178   H199    1.114   .     S
C178   H198    1.114   .     S
C179   H200    1.110   .     S
C180   C181    1.416   .     A
C180   C182    1.427   .     A
C181   C869    1.389   .     S
C182   C867    1.426   .     S
C183   C184    1.416   .     A
C183   C866    1.426   1_554 S
C184   H187    1.075   .     S
C184   C185    1.385   .     A
C185   H186    1.085   .     S
C185   C865    1.389   1_554 S
H201   C27     1.110   1_655 S
H202   C27     1.111   1_655 S
H204   C621    1.088   1_545 S
H205   C394    1.086   .     S
O210   Zn228   1.932   .     S
O210   Zn227   1.934   .     S
O210   Zn226   1.954   .     S
O210   Zn225   1.962   .     S
O211   Zn226   1.931   .     S
O212   Zn228   1.943   .     S
O213   Zn227   1.940   .     S
O214   Zn225   1.928   .     S
O217   Zn225   1.927   .     S
O218   Zn228   1.928   .     S
O219   Zn226   1.935   .     S
O220   Zn227   1.948   .     S
O221   Zn228   1.946   .     S
O222   Zn225   1.934   .     S
O223   Zn226   1.931   .     S
O224   Zn227   1.927   .     S
C229   C239    1.433   .     S
C229   O297    1.267   .     A
C229   O295    1.270   .     A
C230   H264    1.076   .     S
C230   C258    1.413   .     A
C230   C231    1.391   .     A
C231   O291    1.384   .     S
C231   C917    1.399   .     S
C232   O298    1.267   .     A
C232   O296    1.291   .     A
C232   C238    1.459   .     S
C233   C235    1.407   .     A
C233   C234    1.424   .     A
C233   C915    1.399   1_554 S
C234   C237    1.412   .     A
C234   C259    1.427   .     A
C235   C236    1.388   .     A
C235   H273    1.083   .     S
C236   C248    1.394   .     A
C236   H283    1.084   .     S
C237   C248    1.390   .     A
C237   H282    1.076   .     S
C238   C315    1.354   .     S
C238   H355    1.088   .     S
C239   C390    1.354   1_455 S
C239   C402    1.515   1_455 S
C240   O292    1.383   .     S
C240   C249    1.397   .     A
C240   C247    1.411   .     A
C241   C244    1.450   .     S
C241   C470    1.331   .     S
C241   H508    1.088   .     S
C242   C243    1.434   .     S
C243   O299    1.281   .     A
C243   O293    1.281   .     A
C244   O300    1.271   .     A
C244   O294    1.271   .     A
C245   C248    1.451   .     S
C245   O289    1.273   .     A
C245   O287    1.280   .     A
C246   C247    1.474   .     S
C246   O290    1.287   .     A
C246   O288    1.279   .     A
C247   C251    1.398   .     A
C249   C257    1.400   .     A
C249   H284    1.084   .     S
C250   H266    1.110   .     S
C250   H265    1.112   .     S
C250   H267    1.110   .     S
C250   C315    1.515   .     S
C251   C256    1.408   .     A
C251   H285    1.075   .     S
C252   H268    1.114   .     S
C252   H269    1.115   .     S
C252   C253    1.521   .     S
C252   O291    1.412   .     S
C253   H271    1.110   .     S
C253   H346    1.111   .     S
C253   H348    1.110   .     S
C254   C255    1.520   .     S
C254   O292    1.413   .     S
C254   H275    1.114   .     S
C254   H274    1.114   .     S
C255   H276    1.110   .     S
C255   H429    1.110   1_455 S
C255   H430    1.111   1_455 S
C256   C257    1.416   .     A
C256   C258    1.427   .     A
C257   C945    1.389   .     S
C258   C943    1.426   .     S
C259   C260    1.416   .     A
C259   C942    1.426   1_554 S
C260   H263    1.075   .     S
C260   C261    1.385   .     A
C261   H262    1.085   .     S
C261   C941    1.389   1_554 S
H270   C405    1.111   1_455 S
H272   C405    1.110   1_455 S
H277   C331    1.110   .     S
H278   C331    1.111   .     S
H279   C390    1.088   1_455 S
H281   C470    1.086   .     S
O286   Zn304   1.932   .     S
O286   Zn303   1.934   .     S
O286   Zn302   1.954   .     S
O286   Zn301   1.962   .     S
O287   Zn302   1.931   .     S
O288   Zn304   1.943   .     S
O289   Zn303   1.940   .     S
O290   Zn301   1.928   .     S
O293   Zn301   1.927   .     S
O294   Zn304   1.928   .     S
O295   Zn302   1.935   .     S
O296   Zn303   1.948   .     S
O297   Zn304   1.946   .     S
O298   Zn301   1.934   .     S
O299   Zn302   1.931   .     S
O300   Zn303   1.927   .     S
C305   C315    1.433   .     S
C305   O373    1.267   .     A
C305   O371    1.270   .     A
C306   H340    1.076   .     S
C306   C334    1.413   .     A
C306   C307    1.391   .     A
C307   O367    1.384   .     S
C307   C993    1.399   .     S
C308   O374    1.267   .     A
C308   O372    1.291   .     A
C308   C314    1.459   .     S
C309   C311    1.407   .     A
C309   C310    1.424   .     A
C309   C991    1.399   1_554 S
C310   C313    1.412   .     A
C310   C335    1.427   .     A
C311   C312    1.388   .     A
C311   H349    1.083   .     S
C312   C324    1.394   .     A
C312   H359    1.084   .     S
C313   C324    1.390   .     A
C313   H358    1.076   .     S
C314   C391    1.354   .     S
C314   H431    1.088   .     S
C316   O368    1.383   .     S
C316   C325    1.397   .     A
C316   C323    1.411   .     A
C317   C320    1.450   .     S
C317   C546    1.331   .     S
C317   H584    1.088   .     S
C318   C319    1.434   .     S
C319   O375    1.281   .     A
C319   O369    1.281   .     A
C320   O376    1.271   .     A
C320   O370    1.271   .     A
C321   C324    1.451   .     S
C321   O365    1.273   .     A
C321   O363    1.280   .     A
C322   C323    1.474   .     S
C322   O366    1.287   .     A
C322   O364    1.279   .     A
C323   C327    1.398   .     A
C325   C333    1.400   .     A
C325   H360    1.084   .     S
C326   H342    1.110   .     S
C326   H341    1.112   .     S
C326   H343    1.110   .     S
C326   C391    1.515   .     S
C327   C332    1.408   .     A
C327   H361    1.075   .     S
C328   H344    1.114   .     S
C328   H345    1.115   .     S
C328   C329    1.521   .     S
C328   O367    1.412   .     S
C329   H347    1.110   .     S
C329   H422    1.111   .     S
C329   H424    1.110   .     S
C330   C331    1.520   .     S
C330   O368    1.413   .     S
C330   H351    1.114   .     S
C330   H350    1.114   .     S
C331   H352    1.110   .     S
C332   C333    1.416   .     A
C332   C334    1.427   .     A
C333   C1021   1.389   .     S
C334   C1019   1.426   .     S
C335   C336    1.416   .     A
C335   C1018   1.426   1_554 S
C336   H339    1.075   .     S
C336   C337    1.385   .     A
C337   H338    1.085   .     S
C337   C1017   1.389   1_554 S
H353   C407    1.110   .     S
H354   C407    1.111   .     S
H357   C546    1.086   .     S
O362   Zn380   1.932   .     S
O362   Zn379   1.934   .     S
O362   Zn378   1.954   .     S
O362   Zn377   1.962   .     S
O363   Zn378   1.931   .     S
O364   Zn380   1.943   .     S
O365   Zn379   1.940   .     S
O366   Zn377   1.928   .     S
O369   Zn377   1.927   .     S
O370   Zn380   1.928   .     S
O371   Zn378   1.935   .     S
O372   Zn379   1.948   .     S
O373   Zn380   1.946   .     S
O374   Zn377   1.934   .     S
O375   Zn378   1.931   .     S
O376   Zn379   1.927   .     S
C381   C391    1.433   .     S
C381   O449    1.267   .     A
C381   O447    1.270   .     A
C382   H416    1.076   .     S
C382   C410    1.413   .     A
C382   C383    1.391   .     A
C383   O443    1.384   .     S
C383   C1069   1.399   .     S
C384   O450    1.267   .     A
C384   O448    1.291   .     A
C384   C390    1.459   .     S
C385   C387    1.407   .     A
C385   C386    1.424   .     A
C385   C1067   1.399   1_554 S
C386   C389    1.412   .     A
C386   C411    1.427   .     A
C387   C388    1.388   .     A
C387   H425    1.083   .     S
C388   C400    1.394   .     A
C388   H435    1.084   .     S
C389   C400    1.390   .     A
C389   H434    1.076   .     S
C390   C239    1.354   1_655 S
C390   H279    1.088   1_655 S
C392   O444    1.383   .     S
C392   C401    1.397   .     A
C392   C399    1.411   .     A
C393   C396    1.450   .     S
C393   C622    1.331   .     S
C393   H660    1.088   .     S
C394   C395    1.434   .     S
C395   O451    1.281   .     A
C395   O445    1.281   .     A
C396   O452    1.271   .     A
C396   O446    1.271   .     A
C397   C400    1.451   .     S
C397   O441    1.273   .     A
C397   O439    1.280   .     A
C398   C399    1.474   .     S
C398   O442    1.287   .     A
C398   O440    1.279   .     A
C399   C403    1.398   .     A
C401   C409    1.400   .     A
C401   H436    1.084   .     S
C402   H418    1.110   .     S
C402   H417    1.112   .     S
C402   H419    1.110   .     S
C402   C239    1.515   1_655 S
C403   C408    1.408   .     A
C403   H437    1.075   .     S
C404   H420    1.114   .     S
C404   H421    1.115   .     S
C404   C405    1.521   .     S
C404   O443    1.412   .     S
C405   H423    1.110   .     S
C405   H270    1.111   1_655 S
C405   H272    1.110   1_655 S
C406   C407    1.520   .     S
C406   O444    1.413   .     S
C406   H427    1.114   .     S
C406   H426    1.114   .     S
C407   H428    1.110   .     S
C408   C409    1.416   .     A
C408   C410    1.427   .     A
C409   C1097   1.389   .     S
C410   C1095   1.426   .     S
C411   C412    1.416   .     A
C411   C1094   1.426   1_554 S
C412   H415    1.075   .     S
C412   C413    1.385   .     A
C413   H414    1.085   .     S
C413   C1093   1.389   1_554 S
H429   C255    1.110   1_655 S
H430   C255    1.111   1_655 S
H433   C622    1.086   .     S
O438   Zn456   1.932   .     S
O438   Zn455   1.934   .     S
O438   Zn454   1.954   .     S
O438   Zn453   1.962   .     S
O439   Zn454   1.931   .     S
O440   Zn456   1.943   .     S
O441   Zn455   1.940   .     S
O442   Zn453   1.928   .     S
O445   Zn453   1.927   .     S
O446   Zn456   1.928   .     S
O447   Zn454   1.935   .     S
O448   Zn455   1.948   .     S
O449   Zn456   1.946   .     S
O450   Zn453   1.934   .     S
O451   Zn454   1.931   .     S
O452   Zn455   1.927   .     S
C457   C467    1.433   .     S
C457   O525    1.267   .     A
C457   O523    1.270   .     A
C458   H492    1.076   .     S
C458   C486    1.413   .     A
C458   C459    1.391   .     A
C459   O519    1.384   .     S
C459   C1145   1.399   .     S
C460   O526    1.267   .     A
C460   O524    1.291   .     A
C460   C466    1.459   .     S
C461   C463    1.407   .     A
C461   C462    1.424   .     A
C461   C1143   1.399   1_554 S
C462   C465    1.412   .     A
C462   C487    1.427   .     A
C463   C464    1.388   .     A
C463   H501    1.083   .     S
C464   C476    1.394   .     A
C464   H511    1.084   .     S
C465   C476    1.390   .     A
C465   H510    1.076   .     S
C466   C543    1.354   .     S
C466   H583    1.088   .     S
C467   C618    1.354   1_455 S
C467   C630    1.515   1_455 S
C468   O520    1.383   .     S
C468   C477    1.397   .     A
C468   C475    1.411   .     A
C469   C472    1.450   .     S
C469   C14     1.331   1_565 S
C469   H52     1.088   1_565 S
C470   C471    1.434   .     S
C471   O527    1.281   .     A
C471   O521    1.281   .     A
C472   O528    1.271   .     A
C472   O522    1.271   .     A
C473   C476    1.451   .     S
C473   O517    1.273   .     A
C473   O515    1.280   .     A
C474   C475    1.474   .     S
C474   O518    1.287   .     A
C474   O516    1.279   .     A
C475   C479    1.398   .     A
C477   C485    1.400   .     A
C477   H512    1.084   .     S
C478   H494    1.110   .     S
C478   H493    1.112   .     S
C478   H495    1.110   .     S
C478   C543    1.515   .     S
C479   C484    1.408   .     A
C479   H513    1.075   .     S
C480   H496    1.114   .     S
C480   H497    1.115   .     S
C480   C481    1.521   .     S
C480   O519    1.412   .     S
C481   H499    1.110   .     S
C481   H574    1.111   .     S
C481   H576    1.110   .     S
C482   C483    1.520   .     S
C482   O520    1.413   .     S
C482   H503    1.114   .     S
C482   H502    1.114   .     S
C483   H504    1.110   .     S
C483   H657    1.110   1_455 S
C483   H658    1.111   1_455 S
C484   C485    1.416   .     A
C484   C486    1.427   .     A
C485   C1173   1.389   .     S
C486   C1171   1.426   .     S
C487   C488    1.416   .     A
C487   C1170   1.426   1_554 S
C488   H491    1.075   .     S
C488   C489    1.385   .     A
C489   H490    1.085   .     S
C489   C1169   1.389   1_554 S
H498   C633    1.111   1_455 S
H500   C633    1.110   1_455 S
H505   C559    1.110   .     S
H506   C559    1.111   .     S
H507   C618    1.088   1_455 S
H509   C14     1.086   1_565 S
O514   Zn532   1.932   .     S
O514   Zn531   1.934   .     S
O514   Zn530   1.954   .     S
O514   Zn529   1.962   .     S
O515   Zn530   1.931   .     S
O516   Zn532   1.943   .     S
O517   Zn531   1.940   .     S
O518   Zn529   1.928   .     S
O521   Zn529   1.927   .     S
O522   Zn532   1.928   .     S
O523   Zn530   1.935   .     S
O524   Zn531   1.948   .     S
O525   Zn532   1.946   .     S
O526   Zn529   1.934   .     S
O527   Zn530   1.931   .     S
O528   Zn531   1.927   .     S
C533   C543    1.433   .     S
C533   O601    1.267   .     A
C533   O599    1.270   .     A
C534   H568    1.076   .     S
C534   C562    1.413   .     A
C534   C535    1.391   .     A
C535   O595    1.384   .     S
C535   C1221   1.399   .     S
C536   O602    1.267   .     A
C536   O600    1.291   .     A
C536   C542    1.459   .     S
C537   C539    1.407   .     A
C537   C538    1.424   .     A
C537   C1219   1.399   1_554 S
C538   C541    1.412   .     A
C538   C563    1.427   .     A
C539   C540    1.388   .     A
C539   H577    1.083   .     S
C540   C552    1.394   .     A
C540   H587    1.084   .     S
C541   C552    1.390   .     A
C541   H586    1.076   .     S
C542   C619    1.354   .     S
C542   H659    1.088   .     S
C544   O596    1.383   .     S
C544   C553    1.397   .     A
C544   C551    1.411   .     A
C545   C548    1.450   .     S
C545   C90     1.331   1_565 S
C545   H128    1.088   1_565 S
C546   C547    1.434   .     S
C547   O603    1.281   .     A
C547   O597    1.281   .     A
C548   O604    1.271   .     A
C548   O598    1.271   .     A
C549   C552    1.451   .     S
C549   O593    1.273   .     A
C549   O591    1.280   .     A
C550   C551    1.474   .     S
C550   O594    1.287   .     A
C550   O592    1.279   .     A
C551   C555    1.398   .     A
C553   C561    1.400   .     A
C553   H588    1.084   .     S
C554   H570    1.110   .     S
C554   H569    1.112   .     S
C554   H571    1.110   .     S
C554   C619    1.515   .     S
C555   C560    1.408   .     A
C555   H589    1.075   .     S
C556   H572    1.114   .     S
C556   H573    1.115   .     S
C556   C557    1.521   .     S
C556   O595    1.412   .     S
C557   H575    1.110   .     S
C557   H650    1.111   .     S
C557   H652    1.110   .     S
C558   C559    1.520   .     S
C558   O596    1.413   .     S
C558   H579    1.114   .     S
C558   H578    1.114   .     S
C559   H580    1.110   .     S
C560   C561    1.416   .     A
C560   C562    1.427   .     A
C561   C1249   1.389   .     S
C562   C1247   1.426   .     S
C563   C564    1.416   .     A
C563   C1246   1.426   1_554 S
C564   H567    1.075   .     S
C564   C565    1.385   .     A
C565   H566    1.085   .     S
C565   C1245   1.389   1_554 S
H581   C635    1.110   .     S
H582   C635    1.111   .     S
H585   C90     1.086   1_565 S
O590   Zn608   1.932   .     S
O590   Zn607   1.934   .     S
O590   Zn606   1.954   .     S
O590   Zn605   1.962   .     S
O591   Zn606   1.931   .     S
O592   Zn608   1.943   .     S
O593   Zn607   1.940   .     S
O594   Zn605   1.928   .     S
O597   Zn605   1.927   .     S
O598   Zn608   1.928   .     S
O599   Zn606   1.935   .     S
O600   Zn607   1.948   .     S
O601   Zn608   1.946   .     S
O602   Zn605   1.934   .     S
O603   Zn606   1.931   .     S
O604   Zn607   1.927   .     S
C609   C619    1.433   .     S
C609   O677    1.267   .     A
C609   O675    1.270   .     A
C610   H644    1.076   .     S
C610   C638    1.413   .     A
C610   C611    1.391   .     A
C611   O671    1.384   .     S
C611   C1297   1.399   .     S
C612   O678    1.267   .     A
C612   O676    1.291   .     A
C612   C618    1.459   .     S
C613   C615    1.407   .     A
C613   C614    1.424   .     A
C613   C1295   1.399   1_554 S
C614   C617    1.412   .     A
C614   C639    1.427   .     A
C615   C616    1.388   .     A
C615   H653    1.083   .     S
C616   C628    1.394   .     A
C616   H663    1.084   .     S
C617   C628    1.390   .     A
C617   H662    1.076   .     S
C618   C467    1.354   1_655 S
C618   H507    1.088   1_655 S
C620   O672    1.383   .     S
C620   C629    1.397   .     A
C620   C627    1.411   .     A
C621   C624    1.450   .     S
C621   C166    1.331   1_565 S
C621   H204    1.088   1_565 S
C622   C623    1.434   .     S
C623   O679    1.281   .     A
C623   O673    1.281   .     A
C624   O680    1.271   .     A
C624   O674    1.271   .     A
C625   C628    1.451   .     S
C625   O669    1.273   .     A
C625   O667    1.280   .     A
C626   C627    1.474   .     S
C626   O670    1.287   .     A
C626   O668    1.279   .     A
C627   C631    1.398   .     A
C629   C637    1.400   .     A
C629   H664    1.084   .     S
C630   H646    1.110   .     S
C630   H645    1.112   .     S
C630   H647    1.110   .     S
C630   C467    1.515   1_655 S
C631   C636    1.408   .     A
C631   H665    1.075   .     S
C632   H648    1.114   .     S
C632   H649    1.115   .     S
C632   C633    1.521   .     S
C632   O671    1.412   .     S
C633   H651    1.110   .     S
C633   H498    1.111   1_655 S
C633   H500    1.110   1_655 S
C634   C635    1.520   .     S
C634   O672    1.413   .     S
C634   H655    1.114   .     S
C634   H654    1.114   .     S
C635   H656    1.110   .     S
C636   C637    1.416   .     A
C636   C638    1.427   .     A
C637   C1325   1.389   .     S
C638   C1323   1.426   .     S
C639   C640    1.416   .     A
C639   C1322   1.426   1_554 S
C640   H643    1.075   .     S
C640   C641    1.385   .     A
C641   H642    1.085   .     S
C641   C1321   1.389   1_554 S
H657   C483    1.110   1_655 S
H658   C483    1.111   1_655 S
H661   C166    1.086   1_565 S
O666   Zn684   1.932   .     S
O666   Zn683   1.934   .     S
O666   Zn682   1.954   .     S
O666   Zn681   1.962   .     S
O667   Zn682   1.931   .     S
O668   Zn684   1.943   .     S
O669   Zn683   1.940   .     S
O670   Zn681   1.928   .     S
O673   Zn681   1.927   .     S
O674   Zn684   1.928   .     S
O675   Zn682   1.935   .     S
O676   Zn683   1.948   .     S
O677   Zn684   1.946   .     S
O678   Zn681   1.934   .     S
O679   Zn682   1.931   .     S
O680   Zn683   1.927   .     S
C685   C695    1.433   .     S
C685   O753    1.267   .     A
C685   O751    1.270   .     A
C686   H720    1.076   .     S
C686   C714    1.413   .     A
C686   C687    1.391   .     A
C687   O747    1.384   .     S
C687   C5      1.399   1_556 S
C688   O754    1.267   .     A
C688   O752    1.291   .     A
C688   C694    1.459   .     S
C689   C691    1.407   .     A
C689   C690    1.424   .     A
C690   C693    1.412   .     A
C690   C715    1.427   .     A
C691   C692    1.388   .     A
C691   H729    1.083   .     S
C692   C704    1.394   .     A
C692   H739    1.084   .     S
C693   C704    1.390   .     A
C693   H738    1.076   .     S
C694   C771    1.354   .     S
C694   H811    1.088   .     S
C695   C846    1.354   1_455 S
C695   C858    1.515   1_455 S
C696   O748    1.383   .     S
C696   C705    1.397   .     A
C696   C703    1.411   .     A
C697   C700    1.450   .     S
C697   C926    1.331   .     S
C697   H964    1.088   .     S
C698   C699    1.434   .     S
C698   C1153   1.331   1_545 S
C698   H1193   1.086   1_545 S
C699   O755    1.281   .     A
C699   O749    1.281   .     A
C700   O756    1.271   .     A
C700   O750    1.271   .     A
C701   C704    1.451   .     S
C701   O745    1.273   .     A
C701   O743    1.280   .     A
C702   C703    1.474   .     S
C702   O746    1.287   .     A
C702   O744    1.279   .     A
C703   C707    1.398   .     A
C705   C713    1.400   .     A
C705   H740    1.084   .     S
C706   H722    1.110   .     S
C706   H721    1.112   .     S
C706   H723    1.110   .     S
C706   C771    1.515   .     S
C707   C712    1.408   .     A
C707   H741    1.075   .     S
C708   H724    1.114   .     S
C708   H725    1.115   .     S
C708   C709    1.521   .     S
C708   O747    1.412   .     S
C709   H727    1.110   .     S
C709   H802    1.111   .     S
C709   H804    1.110   .     S
C710   C711    1.520   .     S
C710   O748    1.413   .     S
C710   H731    1.114   .     S
C710   H730    1.114   .     S
C711   H732    1.110   .     S
C711   H885    1.110   1_455 S
C711   H886    1.111   1_455 S
C712   C713    1.416   .     A
C712   C714    1.427   .     A
C713   C33     1.389   1_556 S
C714   C31     1.426   1_556 S
C715   C716    1.416   .     A
C716   H719    1.075   .     S
C716   C717    1.385   .     A
C717   H718    1.085   .     S
H726   C861    1.111   1_455 S
H728   C861    1.110   1_455 S
H733   C787    1.110   .     S
H734   C787    1.111   .     S
H735   C846    1.088   1_455 S
H736   C1153   1.088   1_545 S
H737   C926    1.086   .     S
O742   Zn760   1.932   .     S
O742   Zn759   1.934   .     S
O742   Zn758   1.954   .     S
O742   Zn757   1.962   .     S
O743   Zn758   1.931   .     S
O744   Zn760   1.943   .     S
O745   Zn759   1.940   .     S
O746   Zn757   1.928   .     S
O749   Zn757   1.927   .     S
O750   Zn760   1.928   .     S
O751   Zn758   1.935   .     S
O752   Zn759   1.948   .     S
O753   Zn760   1.946   .     S
O754   Zn757   1.934   .     S
O755   Zn758   1.931   .     S
O756   Zn759   1.927   .     S
C761   C771    1.433   .     S
C761   O829    1.267   .     A
C761   O827    1.270   .     A
C762   H796    1.076   .     S
C762   C790    1.413   .     A
C762   C763    1.391   .     A
C763   O823    1.384   .     S
C763   C81     1.399   1_556 S
C764   O830    1.267   .     A
C764   O828    1.291   .     A
C764   C770    1.459   .     S
C765   C767    1.407   .     A
C765   C766    1.424   .     A
C766   C769    1.412   .     A
C766   C791    1.427   .     A
C767   C768    1.388   .     A
C767   H805    1.083   .     S
C768   C780    1.394   .     A
C768   H815    1.084   .     S
C769   C780    1.390   .     A
C769   H814    1.076   .     S
C770   C847    1.354   .     S
C770   H887    1.088   .     S
C772   O824    1.383   .     S
C772   C781    1.397   .     A
C772   C779    1.411   .     A
C773   C776    1.450   .     S
C773   C1002   1.331   .     S
C773   H1040   1.088   .     S
C774   C775    1.434   .     S
C774   C1229   1.331   1_545 S
C774   H1269   1.086   1_545 S
C775   O831    1.281   .     A
C775   O825    1.281   .     A
C776   O832    1.271   .     A
C776   O826    1.271   .     A
C777   C780    1.451   .     S
C777   O821    1.273   .     A
C777   O819    1.280   .     A
C778   C779    1.474   .     S
C778   O822    1.287   .     A
C778   O820    1.279   .     A
C779   C783    1.398   .     A
C781   C789    1.400   .     A
C781   H816    1.084   .     S
C782   H798    1.110   .     S
C782   H797    1.112   .     S
C782   H799    1.110   .     S
C782   C847    1.515   .     S
C783   C788    1.408   .     A
C783   H817    1.075   .     S
C784   H800    1.114   .     S
C784   H801    1.115   .     S
C784   C785    1.521   .     S
C784   O823    1.412   .     S
C785   H803    1.110   .     S
C785   H878    1.111   .     S
C785   H880    1.110   .     S
C786   C787    1.520   .     S
C786   O824    1.413   .     S
C786   H807    1.114   .     S
C786   H806    1.114   .     S
C787   H808    1.110   .     S
C788   C789    1.416   .     A
C788   C790    1.427   .     A
C789   C109    1.389   1_556 S
C790   C107    1.426   1_556 S
C791   C792    1.416   .     A
C792   H795    1.075   .     S
C792   C793    1.385   .     A
C793   H794    1.085   .     S
H809   C863    1.110   .     S
H810   C863    1.111   .     S
H812   C1229   1.088   1_545 S
H813   C1002   1.086   .     S
O818   Zn836   1.932   .     S
O818   Zn835   1.934   .     S
O818   Zn834   1.954   .     S
O818   Zn833   1.962   .     S
O819   Zn834   1.931   .     S
O820   Zn836   1.943   .     S
O821   Zn835   1.940   .     S
O822   Zn833   1.928   .     S
O825   Zn833   1.927   .     S
O826   Zn836   1.928   .     S
O827   Zn834   1.935   .     S
O828   Zn835   1.948   .     S
O829   Zn836   1.946   .     S
O830   Zn833   1.934   .     S
O831   Zn834   1.931   .     S
O832   Zn835   1.927   .     S
C837   C847    1.433   .     S
C837   O905    1.267   .     A
C837   O903    1.270   .     A
C838   H872    1.076   .     S
C838   C866    1.413   .     A
C838   C839    1.391   .     A
C839   O899    1.384   .     S
C839   C157    1.399   1_556 S
C840   O906    1.267   .     A
C840   O904    1.291   .     A
C840   C846    1.459   .     S
C841   C843    1.407   .     A
C841   C842    1.424   .     A
C842   C845    1.412   .     A
C842   C867    1.427   .     A
C843   C844    1.388   .     A
C843   H881    1.083   .     S
C844   C856    1.394   .     A
C844   H891    1.084   .     S
C845   C856    1.390   .     A
C845   H890    1.076   .     S
C846   C695    1.354   1_655 S
C846   H735    1.088   1_655 S
C848   O900    1.383   .     S
C848   C857    1.397   .     A
C848   C855    1.411   .     A
C849   C852    1.450   .     S
C849   C1078   1.331   .     S
C849   H1116   1.088   .     S
C850   C851    1.434   .     S
C850   C1305   1.331   1_545 S
C850   H1345   1.086   1_545 S
C851   O907    1.281   .     A
C851   O901    1.281   .     A
C852   O908    1.271   .     A
C852   O902    1.271   .     A
C853   C856    1.451   .     S
C853   O897    1.273   .     A
C853   O895    1.280   .     A
C854   C855    1.474   .     S
C854   O898    1.287   .     A
C854   O896    1.279   .     A
C855   C859    1.398   .     A
C857   C865    1.400   .     A
C857   H892    1.084   .     S
C858   H874    1.110   .     S
C858   H873    1.112   .     S
C858   H875    1.110   .     S
C858   C695    1.515   1_655 S
C859   C864    1.408   .     A
C859   H893    1.075   .     S
C860   H876    1.114   .     S
C860   H877    1.115   .     S
C860   C861    1.521   .     S
C860   O899    1.412   .     S
C861   H879    1.110   .     S
C861   H726    1.111   1_655 S
C861   H728    1.110   1_655 S
C862   C863    1.520   .     S
C862   O900    1.413   .     S
C862   H883    1.114   .     S
C862   H882    1.114   .     S
C863   H884    1.110   .     S
C864   C865    1.416   .     A
C864   C866    1.427   .     A
C865   C185    1.389   1_556 S
C866   C183    1.426   1_556 S
C867   C868    1.416   .     A
C868   H871    1.075   .     S
C868   C869    1.385   .     A
C869   H870    1.085   .     S
H885   C711    1.110   1_655 S
H886   C711    1.111   1_655 S
H888   C1305   1.088   1_545 S
H889   C1078   1.086   .     S
O894   Zn912   1.932   .     S
O894   Zn911   1.934   .     S
O894   Zn910   1.954   .     S
O894   Zn909   1.962   .     S
O895   Zn910   1.931   .     S
O896   Zn912   1.943   .     S
O897   Zn911   1.940   .     S
O898   Zn909   1.928   .     S
O901   Zn909   1.927   .     S
O902   Zn912   1.928   .     S
O903   Zn910   1.935   .     S
O904   Zn911   1.948   .     S
O905   Zn912   1.946   .     S
O906   Zn909   1.934   .     S
O907   Zn910   1.931   .     S
O908   Zn911   1.927   .     S
C913   C923    1.433   .     S
C913   O981    1.267   .     A
C913   O979    1.270   .     A
C914   H948    1.076   .     S
C914   C942    1.413   .     A
C914   C915    1.391   .     A
C915   O975    1.384   .     S
C915   C233    1.399   1_556 S
C916   O982    1.267   .     A
C916   O980    1.291   .     A
C916   C922    1.459   .     S
C917   C919    1.407   .     A
C917   C918    1.424   .     A
C918   C921    1.412   .     A
C918   C943    1.427   .     A
C919   C920    1.388   .     A
C919   H957    1.083   .     S
C920   C932    1.394   .     A
C920   H967    1.084   .     S
C921   C932    1.390   .     A
C921   H966    1.076   .     S
C922   C999    1.354   .     S
C922   H1039   1.088   .     S
C923   C1074   1.354   1_455 S
C923   C1086   1.515   1_455 S
C924   O976    1.383   .     S
C924   C933    1.397   .     A
C924   C931    1.411   .     A
C925   C928    1.450   .     S
C925   C1154   1.331   .     S
C925   H1192   1.088   .     S
C926   C927    1.434   .     S
C927   O983    1.281   .     A
C927   O977    1.281   .     A
C928   O984    1.271   .     A
C928   O978    1.271   .     A
C929   C932    1.451   .     S
C929   O973    1.273   .     A
C929   O971    1.280   .     A
C930   C931    1.474   .     S
C930   O974    1.287   .     A
C930   O972    1.279   .     A
C931   C935    1.398   .     A
C933   C941    1.400   .     A
C933   H968    1.084   .     S
C934   H950    1.110   .     S
C934   H949    1.112   .     S
C934   H951    1.110   .     S
C934   C999    1.515   .     S
C935   C940    1.408   .     A
C935   H969    1.075   .     S
C936   H952    1.114   .     S
C936   H953    1.115   .     S
C936   C937    1.521   .     S
C936   O975    1.412   .     S
C937   H955    1.110   .     S
C937   H1030   1.111   .     S
C937   H1032   1.110   .     S
C938   C939    1.520   .     S
C938   O976    1.413   .     S
C938   H959    1.114   .     S
C938   H958    1.114   .     S
C939   H960    1.110   .     S
C939   H1113   1.110   1_455 S
C939   H1114   1.111   1_455 S
C940   C941    1.416   .     A
C940   C942    1.427   .     A
C941   C261    1.389   1_556 S
C942   C259    1.426   1_556 S
C943   C944    1.416   .     A
C944   H947    1.075   .     S
C944   C945    1.385   .     A
C945   H946    1.085   .     S
H954   C1089   1.111   1_455 S
H956   C1089   1.110   1_455 S
H961   C1015   1.110   .     S
H962   C1015   1.111   .     S
H963   C1074   1.088   1_455 S
H965   C1154   1.086   .     S
O970   Zn988   1.932   .     S
O970   Zn987   1.934   .     S
O970   Zn986   1.954   .     S
O970   Zn985   1.962   .     S
O971   Zn986   1.931   .     S
O972   Zn988   1.943   .     S
O973   Zn987   1.940   .     S
O974   Zn985   1.928   .     S
O977   Zn985   1.927   .     S
O978   Zn988   1.928   .     S
O979   Zn986   1.935   .     S
O980   Zn987   1.948   .     S
O981   Zn988   1.946   .     S
O982   Zn985   1.934   .     S
O983   Zn986   1.931   .     S
O984   Zn987   1.927   .     S
C989   C999    1.433   .     S
C989   O1057   1.267   .     A
C989   O1055   1.270   .     A
C990   H1024   1.076   .     S
C990   C1018   1.413   .     A
C990   C991    1.391   .     A
C991   O1051   1.384   .     S
C991   C309    1.399   1_556 S
C992   O1058   1.267   .     A
C992   O1056   1.291   .     A
C992   C998    1.459   .     S
C993   C995    1.407   .     A
C993   C994    1.424   .     A
C994   C997    1.412   .     A
C994   C1019   1.427   .     A
C995   C996    1.388   .     A
C995   H1033   1.083   .     S
C996   C1008   1.394   .     A
C996   H1043   1.084   .     S
C997   C1008   1.390   .     A
C997   H1042   1.076   .     S
C998   C1075   1.354   .     S
C998   H1115   1.088   .     S
C1000  O1052   1.383   .     S
C1000  C1009   1.397   .     A
C1000  C1007   1.411   .     A
C1001  C1004   1.450   .     S
C1001  C1230   1.331   .     S
C1001  H1268   1.088   .     S
C1002  C1003   1.434   .     S
C1003  O1059   1.281   .     A
C1003  O1053   1.281   .     A
C1004  O1060   1.271   .     A
C1004  O1054   1.271   .     A
C1005  C1008   1.451   .     S
C1005  O1049   1.273   .     A
C1005  O1047   1.280   .     A
C1006  C1007   1.474   .     S
C1006  O1050   1.287   .     A
C1006  O1048   1.279   .     A
C1007  C1011   1.398   .     A
C1009  C1017   1.400   .     A
C1009  H1044   1.084   .     S
C1010  H1026   1.110   .     S
C1010  H1025   1.112   .     S
C1010  H1027   1.110   .     S
C1010  C1075   1.515   .     S
C1011  C1016   1.408   .     A
C1011  H1045   1.075   .     S
C1012  H1028   1.114   .     S
C1012  H1029   1.115   .     S
C1012  C1013   1.521   .     S
C1012  O1051   1.412   .     S
C1013  H1031   1.110   .     S
C1013  H1106   1.111   .     S
C1013  H1108   1.110   .     S
C1014  C1015   1.520   .     S
C1014  O1052   1.413   .     S
C1014  H1035   1.114   .     S
C1014  H1034   1.114   .     S
C1015  H1036   1.110   .     S
C1016  C1017   1.416   .     A
C1016  C1018   1.427   .     A
C1017  C337    1.389   1_556 S
C1018  C335    1.426   1_556 S
C1019  C1020   1.416   .     A
C1020  H1023   1.075   .     S
C1020  C1021   1.385   .     A
C1021  H1022   1.085   .     S
H1037  C1091   1.110   .     S
H1038  C1091   1.111   .     S
H1041  C1230   1.086   .     S
O1046  Zn1064  1.932   .     S
O1046  Zn1063  1.934   .     S
O1046  Zn1062  1.954   .     S
O1046  Zn1061  1.962   .     S
O1047  Zn1062  1.931   .     S
O1048  Zn1064  1.943   .     S
O1049  Zn1063  1.940   .     S
O1050  Zn1061  1.928   .     S
O1053  Zn1061  1.927   .     S
O1054  Zn1064  1.928   .     S
O1055  Zn1062  1.935   .     S
O1056  Zn1063  1.948   .     S
O1057  Zn1064  1.946   .     S
O1058  Zn1061  1.934   .     S
O1059  Zn1062  1.931   .     S
O1060  Zn1063  1.927   .     S
C1065  C1075   1.433   .     S
C1065  O1133   1.267   .     A
C1065  O1131   1.270   .     A
C1066  H1100   1.076   .     S
C1066  C1094   1.413   .     A
C1066  C1067   1.391   .     A
C1067  O1127   1.384   .     S
C1067  C385    1.399   1_556 S
C1068  O1134   1.267   .     A
C1068  O1132   1.291   .     A
C1068  C1074   1.459   .     S
C1069  C1071   1.407   .     A
C1069  C1070   1.424   .     A
C1070  C1073   1.412   .     A
C1070  C1095   1.427   .     A
C1071  C1072   1.388   .     A
C1071  H1109   1.083   .     S
C1072  C1084   1.394   .     A
C1072  H1119   1.084   .     S
C1073  C1084   1.390   .     A
C1073  H1118   1.076   .     S
C1074  C923    1.354   1_655 S
C1074  H963    1.088   1_655 S
C1076  O1128   1.383   .     S
C1076  C1085   1.397   .     A
C1076  C1083   1.411   .     A
C1077  C1080   1.450   .     S
C1077  C1306   1.331   .     S
C1077  H1344   1.088   .     S
C1078  C1079   1.434   .     S
C1079  O1135   1.281   .     A
C1079  O1129   1.281   .     A
C1080  O1136   1.271   .     A
C1080  O1130   1.271   .     A
C1081  C1084   1.451   .     S
C1081  O1125   1.273   .     A
C1081  O1123   1.280   .     A
C1082  C1083   1.474   .     S
C1082  O1126   1.287   .     A
C1082  O1124   1.279   .     A
C1083  C1087   1.398   .     A
C1085  C1093   1.400   .     A
C1085  H1120   1.084   .     S
C1086  H1102   1.110   .     S
C1086  H1101   1.112   .     S
C1086  H1103   1.110   .     S
C1086  C923    1.515   1_655 S
C1087  C1092   1.408   .     A
C1087  H1121   1.075   .     S
C1088  H1104   1.114   .     S
C1088  H1105   1.115   .     S
C1088  C1089   1.521   .     S
C1088  O1127   1.412   .     S
C1089  H1107   1.110   .     S
C1089  H954    1.111   1_655 S
C1089  H956    1.110   1_655 S
C1090  C1091   1.520   .     S
C1090  O1128   1.413   .     S
C1090  H1111   1.114   .     S
C1090  H1110   1.114   .     S
C1091  H1112   1.110   .     S
C1092  C1093   1.416   .     A
C1092  C1094   1.427   .     A
C1093  C413    1.389   1_556 S
C1094  C411    1.426   1_556 S
C1095  C1096   1.416   .     A
C1096  H1099   1.075   .     S
C1096  C1097   1.385   .     A
C1097  H1098   1.085   .     S
H1113  C939    1.110   1_655 S
H1114  C939    1.111   1_655 S
H1117  C1306   1.086   .     S
O1122  Zn1140  1.932   .     S
O1122  Zn1139  1.934   .     S
O1122  Zn1138  1.954   .     S
O1122  Zn1137  1.962   .     S
O1123  Zn1138  1.931   .     S
O1124  Zn1140  1.943   .     S
O1125  Zn1139  1.940   .     S
O1126  Zn1137  1.928   .     S
O1129  Zn1137  1.927   .     S
O1130  Zn1140  1.928   .     S
O1131  Zn1138  1.935   .     S
O1132  Zn1139  1.948   .     S
O1133  Zn1140  1.946   .     S
O1134  Zn1137  1.934   .     S
O1135  Zn1138  1.931   .     S
O1136  Zn1139  1.927   .     S
C1141  C1151   1.433   .     S
C1141  O1209   1.267   .     A
C1141  O1207   1.270   .     A
C1142  H1176   1.076   .     S
C1142  C1170   1.413   .     A
C1142  C1143   1.391   .     A
C1143  O1203   1.384   .     S
C1143  C461    1.399   1_556 S
C1144  O1210   1.267   .     A
C1144  O1208   1.291   .     A
C1144  C1150   1.459   .     S
C1145  C1147   1.407   .     A
C1145  C1146   1.424   .     A
C1146  C1149   1.412   .     A
C1146  C1171   1.427   .     A
C1147  C1148   1.388   .     A
C1147  H1185   1.083   .     S
C1148  C1160   1.394   .     A
C1148  H1195   1.084   .     S
C1149  C1160   1.390   .     A
C1149  H1194   1.076   .     S
C1150  C1227   1.354   .     S
C1150  H1267   1.088   .     S
C1151  C1302   1.354   1_455 S
C1151  C1314   1.515   1_455 S
C1152  O1204   1.383   .     S
C1152  C1161   1.397   .     A
C1152  C1159   1.411   .     A
C1153  C1156   1.450   .     S
C1153  C698    1.331   1_565 S
C1153  H736    1.088   1_565 S
C1154  C1155   1.434   .     S
C1155  O1211   1.281   .     A
C1155  O1205   1.281   .     A
C1156  O1212   1.271   .     A
C1156  O1206   1.271   .     A
C1157  C1160   1.451   .     S
C1157  O1201   1.273   .     A
C1157  O1199   1.280   .     A
C1158  C1159   1.474   .     S
C1158  O1202   1.287   .     A
C1158  O1200   1.279   .     A
C1159  C1163   1.398   .     A
C1161  C1169   1.400   .     A
C1161  H1196   1.084   .     S
C1162  H1178   1.110   .     S
C1162  H1177   1.112   .     S
C1162  H1179   1.110   .     S
C1162  C1227   1.515   .     S
C1163  C1168   1.408   .     A
C1163  H1197   1.075   .     S
C1164  H1180   1.114   .     S
C1164  H1181   1.115   .     S
C1164  C1165   1.521   .     S
C1164  O1203   1.412   .     S
C1165  H1183   1.110   .     S
C1165  H1258   1.111   .     S
C1165  H1260   1.110   .     S
C1166  C1167   1.520   .     S
C1166  O1204   1.413   .     S
C1166  H1187   1.114   .     S
C1166  H1186   1.114   .     S
C1167  H1188   1.110   .     S
C1167  H1341   1.110   1_455 S
C1167  H1342   1.111   1_455 S
C1168  C1169   1.416   .     A
C1168  C1170   1.427   .     A
C1169  C489    1.389   1_556 S
C1170  C487    1.426   1_556 S
C1171  C1172   1.416   .     A
C1172  H1175   1.075   .     S
C1172  C1173   1.385   .     A
C1173  H1174   1.085   .     S
H1182  C1317   1.111   1_455 S
H1184  C1317   1.110   1_455 S
H1189  C1243   1.110   .     S
H1190  C1243   1.111   .     S
H1191  C1302   1.088   1_455 S
H1193  C698    1.086   1_565 S
O1198  Zn1216  1.932   .     S
O1198  Zn1215  1.934   .     S
O1198  Zn1214  1.954   .     S
O1198  Zn1213  1.962   .     S
O1199  Zn1214  1.931   .     S
O1200  Zn1216  1.943   .     S
O1201  Zn1215  1.940   .     S
O1202  Zn1213  1.928   .     S
O1205  Zn1213  1.927   .     S
O1206  Zn1216  1.928   .     S
O1207  Zn1214  1.935   .     S
O1208  Zn1215  1.948   .     S
O1209  Zn1216  1.946   .     S
O1210  Zn1213  1.934   .     S
O1211  Zn1214  1.931   .     S
O1212  Zn1215  1.927   .     S
C1217  C1227   1.433   .     S
C1217  O1285   1.267   .     A
C1217  O1283   1.270   .     A
C1218  H1252   1.076   .     S
C1218  C1246   1.413   .     A
C1218  C1219   1.391   .     A
C1219  O1279   1.384   .     S
C1219  C537    1.399   1_556 S
C1220  O1286   1.267   .     A
C1220  O1284   1.291   .     A
C1220  C1226   1.459   .     S
C1221  C1223   1.407   .     A
C1221  C1222   1.424   .     A
C1222  C1225   1.412   .     A
C1222  C1247   1.427   .     A
C1223  C1224   1.388   .     A
C1223  H1261   1.083   .     S
C1224  C1236   1.394   .     A
C1224  H1271   1.084   .     S
C1225  C1236   1.390   .     A
C1225  H1270   1.076   .     S
C1226  C1303   1.354   .     S
C1226  H1343   1.088   .     S
C1228  O1280   1.383   .     S
C1228  C1237   1.397   .     A
C1228  C1235   1.411   .     A
C1229  C1232   1.450   .     S
C1229  C774    1.331   1_565 S
C1229  H812    1.088   1_565 S
C1230  C1231   1.434   .     S
C1231  O1287   1.281   .     A
C1231  O1281   1.281   .     A
C1232  O1288   1.271   .     A
C1232  O1282   1.271   .     A
C1233  C1236   1.451   .     S
C1233  O1277   1.273   .     A
C1233  O1275   1.280   .     A
C1234  C1235   1.474   .     S
C1234  O1278   1.287   .     A
C1234  O1276   1.279   .     A
C1235  C1239   1.398   .     A
C1237  C1245   1.400   .     A
C1237  H1272   1.084   .     S
C1238  H1254   1.110   .     S
C1238  H1253   1.112   .     S
C1238  H1255   1.110   .     S
C1238  C1303   1.515   .     S
C1239  C1244   1.408   .     A
C1239  H1273   1.075   .     S
C1240  H1256   1.114   .     S
C1240  H1257   1.115   .     S
C1240  C1241   1.521   .     S
C1240  O1279   1.412   .     S
C1241  H1259   1.110   .     S
C1241  H1334   1.111   .     S
C1241  H1336   1.110   .     S
C1242  C1243   1.520   .     S
C1242  O1280   1.413   .     S
C1242  H1263   1.114   .     S
C1242  H1262   1.114   .     S
C1243  H1264   1.110   .     S
C1244  C1245   1.416   .     A
C1244  C1246   1.427   .     A
C1245  C565    1.389   1_556 S
C1246  C563    1.426   1_556 S
C1247  C1248   1.416   .     A
C1248  H1251   1.075   .     S
C1248  C1249   1.385   .     A
C1249  H1250   1.085   .     S
H1265  C1319   1.110   .     S
H1266  C1319   1.111   .     S
H1269  C774    1.086   1_565 S
O1274  Zn1292  1.932   .     S
O1274  Zn1291  1.934   .     S
O1274  Zn1290  1.954   .     S
O1274  Zn1289  1.962   .     S
O1275  Zn1290  1.931   .     S
O1276  Zn1292  1.943   .     S
O1277  Zn1291  1.940   .     S
O1278  Zn1289  1.928   .     S
O1281  Zn1289  1.927   .     S
O1282  Zn1292  1.928   .     S
O1283  Zn1290  1.935   .     S
O1284  Zn1291  1.948   .     S
O1285  Zn1292  1.946   .     S
O1286  Zn1289  1.934   .     S
O1287  Zn1290  1.931   .     S
O1288  Zn1291  1.927   .     S
C1293  C1303   1.433   .     S
C1293  O1361   1.267   .     A
C1293  O1359   1.270   .     A
C1294  H1328   1.076   .     S
C1294  C1322   1.413   .     A
C1294  C1295   1.391   .     A
C1295  O1355   1.384   .     S
C1295  C613    1.399   1_556 S
C1296  O1362   1.267   .     A
C1296  O1360   1.291   .     A
C1296  C1302   1.459   .     S
C1297  C1299   1.407   .     A
C1297  C1298   1.424   .     A
C1298  C1301   1.412   .     A
C1298  C1323   1.427   .     A
C1299  C1300   1.388   .     A
C1299  H1337   1.083   .     S
C1300  C1312   1.394   .     A
C1300  H1347   1.084   .     S
C1301  C1312   1.390   .     A
C1301  H1346   1.076   .     S
C1302  C1151   1.354   1_655 S
C1302  H1191   1.088   1_655 S
C1304  O1356   1.383   .     S
C1304  C1313   1.397   .     A
C1304  C1311   1.411   .     A
C1305  C1308   1.450   .     S
C1305  C850    1.331   1_565 S
C1305  H888    1.088   1_565 S
C1306  C1307   1.434   .     S
C1307  O1363   1.281   .     A
C1307  O1357   1.281   .     A
C1308  O1364   1.271   .     A
C1308  O1358   1.271   .     A
C1309  C1312   1.451   .     S
C1309  O1353   1.273   .     A
C1309  O1351   1.280   .     A
C1310  C1311   1.474   .     S
C1310  O1354   1.287   .     A
C1310  O1352   1.279   .     A
C1311  C1315   1.398   .     A
C1313  C1321   1.400   .     A
C1313  H1348   1.084   .     S
C1314  H1330   1.110   .     S
C1314  H1329   1.112   .     S
C1314  H1331   1.110   .     S
C1314  C1151   1.515   1_655 S
C1315  C1320   1.408   .     A
C1315  H1349   1.075   .     S
C1316  H1332   1.114   .     S
C1316  H1333   1.115   .     S
C1316  C1317   1.521   .     S
C1316  O1355   1.412   .     S
C1317  H1335   1.110   .     S
C1317  H1182   1.111   1_655 S
C1317  H1184   1.110   1_655 S
C1318  C1319   1.520   .     S
C1318  O1356   1.413   .     S
C1318  H1339   1.114   .     S
C1318  H1338   1.114   .     S
C1319  H1340   1.110   .     S
C1320  C1321   1.416   .     A
C1320  C1322   1.427   .     A
C1321  C641    1.389   1_556 S
C1322  C639    1.426   1_556 S
C1323  C1324   1.416   .     A
C1324  H1327   1.075   .     S
C1324  C1325   1.385   .     A
C1325  H1326   1.085   .     S
H1341  C1167   1.110   1_655 S
H1342  C1167   1.111   1_655 S
H1345  C850    1.086   1_565 S
O1350  Zn1368  1.932   .     S
O1350  Zn1367  1.934   .     S
O1350  Zn1366  1.954   .     S
O1350  Zn1365  1.962   .     S
O1351  Zn1366  1.931   .     S
O1352  Zn1368  1.943   .     S
O1353  Zn1367  1.940   .     S
O1354  Zn1365  1.928   .     S
O1357  Zn1365  1.927   .     S
O1358  Zn1368  1.928   .     S
O1359  Zn1366  1.935   .     S
O1360  Zn1367  1.948   .     S
O1361  Zn1368  1.946   .     S
O1362  Zn1365  1.934   .     S
O1363  Zn1366  1.931   .     S
O1364  Zn1367  1.927   .     S
