data_str_m1_o1_o2_pcu_sym.35
_audit_creation_date              2020-01-03
_audit_creation_method            'Materials Studio'
_symmetry_space_group_name_H-M    'P1'
_symmetry_Int_Tables_number       1
_symmetry_cell_setting            triclinic
loop_
_symmetry_equiv_pos_as_xyz
  x,y,z
_cell_length_a                    36.6649
_cell_length_b                    36.6649
_cell_length_c                    34.5535
_cell_angle_alpha                 90.0000
_cell_angle_beta                  90.0000
_cell_angle_gamma                 90.0094
loop_
_atom_site_label
_atom_site_type_symbol
_atom_site_fract_x
_atom_site_fract_y
_atom_site_fract_z
_atom_site_U_iso_or_equiv
_atom_site_adp_type
_atom_site_occupancy
C1     C     0.21909   0.48822   0.04186   0.00000  Uiso   1.00
C2     C     0.03151   0.23995   0.45822   0.00000  Uiso   1.00
C3     C     0.34808   0.40192   0.75000   0.00000  Uiso   1.00
C4     C     0.40193   0.15193   0.24999   0.00000  Uiso   1.00
C5     C     0.09807   0.34808   0.74999   0.00000  Uiso   1.00
C6     C     0.34808   0.40193   0.25000   0.00000  Uiso   1.00
C7     C     0.15193   0.09808   0.75000   0.00000  Uiso   1.00
C8     C     0.09808   0.15193   0.75000   0.00000  Uiso   1.00
C9     C     0.40193   0.34808   0.25000   0.00000  Uiso   1.00
C10    C     0.15193   0.40193   0.74999   0.00000  Uiso   1.00
C11    C     0.34807   0.09808   0.24999   0.00000  Uiso   1.00
C12    C     0.40192   0.34808   0.75000   0.00000  Uiso   1.00
C13    C     0.23822   0.46909   0.54186   0.00000  Uiso   1.00
C14    C     0.09808   0.15192   0.25000   0.00000  Uiso   1.00
C15    C     0.34808   0.09807   0.74999   0.00000  Uiso   1.00
C16    C     0.15193   0.40193   0.24999   0.00000  Uiso   1.00
C17    C     0.25000   0.00000   0.10247   0.00000  Uiso   1.00
C18    C     0.25000   0.00000   0.89758   0.00000  Uiso   1.00
C19    C     0.00000   0.25000   0.10247   0.00000  Uiso   1.00
C20    C     0.00000   0.25000   0.89758   0.00000  Uiso   1.00
C21    C     0.00000   0.25000   0.60247   0.00000  Uiso   1.00
C22    C     0.00000   0.25000   0.39758   0.00000  Uiso   1.00
C23    C     0.25000   0.00000   0.60247   0.00000  Uiso   1.00
C24    C     0.23995   0.03151   0.45822   0.00000  Uiso   1.00
C25    C     0.25000   0.00000   0.39758   0.00000  Uiso   1.00
C26    C     0.15827   0.39654   0.17853   0.00000  Uiso   1.00
C27    C     0.34169   0.10350   0.82143   0.00000  Uiso   1.00
C28    C     0.04996   0.10476   0.25857   0.00000  Uiso   1.00
C29    C     0.45004   0.39524   0.74145   0.00000  Uiso   1.00
C30    C     0.34173   0.10346   0.17853   0.00000  Uiso   1.00
C31    C     0.15831   0.39650   0.82143   0.00000  Uiso   1.00
C32    C     0.45004   0.39524   0.25857   0.00000  Uiso   1.00
C33    C     0.04996   0.10476   0.74145   0.00000  Uiso   1.00
C34    C     0.10476   0.04996   0.74145   0.00000  Uiso   1.00
C35    C     0.03091   0.26178   0.54186   0.00000  Uiso   1.00
C36    C     0.39524   0.45004   0.25857   0.00000  Uiso   1.00
C37    C     0.10350   0.34169   0.82143   0.00000  Uiso   1.00
C38    C     0.39654   0.15827   0.17853   0.00000  Uiso   1.00
C39    C     0.39524   0.45004   0.74145   0.00000  Uiso   1.00
C40    C     0.10476   0.04996   0.25857   0.00000  Uiso   1.00
C41    C     0.39650   0.15831   0.82143   0.00000  Uiso   1.00
C42    C     0.10346   0.34173   0.17853   0.00000  Uiso   1.00
C43    C     0.40827   0.14654   0.67853   0.00000  Uiso   1.00
C44    C     0.09169   0.35350   0.32143   0.00000  Uiso   1.00
C45    C     0.29996   0.35476   0.75857   0.00000  Uiso   1.00
C46    C     0.46849   0.26005   0.45822   0.00000  Uiso   1.00
C47    C     0.20004   0.14524   0.24145   0.00000  Uiso   1.00
C48    C     0.09173   0.35346   0.67853   0.00000  Uiso   1.00
C49    C     0.40831   0.14650   0.32143   0.00000  Uiso   1.00
C50    C     0.20004   0.14524   0.75857   0.00000  Uiso   1.00
C51    C     0.29996   0.35476   0.24145   0.00000  Uiso   1.00
C52    C     0.35476   0.29996   0.24145   0.00000  Uiso   1.00
C53    C     0.14524   0.20004   0.75857   0.00000  Uiso   1.00
C54    C     0.35350   0.09169   0.32143   0.00000  Uiso   1.00
C55    C     0.14654   0.40827   0.67853   0.00000  Uiso   1.00
C56    C     0.14524   0.20004   0.24145   0.00000  Uiso   1.00
C57    C     0.26178   0.03091   0.54186   0.00000  Uiso   1.00
C58    C     0.35476   0.29996   0.75857   0.00000  Uiso   1.00
C59    C     0.14650   0.40831   0.32143   0.00000  Uiso   1.00
C60    C     0.35346   0.09173   0.67853   0.00000  Uiso   1.00
C61    C     0.26005   0.46849   0.45822   0.00000  Uiso   1.00
C62    C     0.21900   0.48848   0.08212   0.00000  Uiso   1.00
C63    C     0.28158   0.49020   0.91796   0.00000  Uiso   1.00
C64    C     0.48848   0.21900   0.08212   0.00000  Uiso   1.00
C65    C     0.28151   0.48995   0.95822   0.00000  Uiso   1.00
C66    C     0.49020   0.28158   0.91796   0.00000  Uiso   1.00
C67    C     0.28100   0.01152   0.08212   0.00000  Uiso   1.00
C68    C     0.21842   0.00980   0.91796   0.00000  Uiso   1.00
C69    C     0.01152   0.28100   0.08212   0.00000  Uiso   1.00
C70    C     0.00980   0.21842   0.91796   0.00000  Uiso   1.00
C71    C     0.46900   0.23848   0.58212   0.00000  Uiso   1.00
C72    C     0.03158   0.24020   0.41796   0.00000  Uiso   1.00
C73    C     0.23848   0.46900   0.58212   0.00000  Uiso   1.00
C74    C     0.24020   0.03158   0.41796   0.00000  Uiso   1.00
C75    C     0.03100   0.26152   0.58212   0.00000  Uiso   1.00
C76    C     0.48822   0.21909   0.04186   0.00000  Uiso   1.00
C77    C     0.46842   0.25980   0.41796   0.00000  Uiso   1.00
C78    C     0.26152   0.03100   0.58212   0.00000  Uiso   1.00
C79    C     0.25980   0.46842   0.41796   0.00000  Uiso   1.00
C80    C     0.25000   0.00000   0.02136   0.00000  Uiso   1.00
C81    C     0.25000   0.00000   0.97872   0.00000  Uiso   1.00
C82    C     0.00000   0.25000   0.02136   0.00000  Uiso   1.00
C83    C     0.00000   0.25000   0.97872   0.00000  Uiso   1.00
C84    C     0.00000   0.25000   0.52136   0.00000  Uiso   1.00
C85    C     0.00000   0.25000   0.47872   0.00000  Uiso   1.00
C86    C     0.25000   0.00000   0.52136   0.00000  Uiso   1.00
C87    C     0.48995   0.28151   0.95822   0.00000  Uiso   1.00
C88    C     0.25000   0.00000   0.47872   0.00000  Uiso   1.00
C89    C     0.25000   0.00000   0.35522   0.00000  Uiso   1.00
C90    C     0.25000   0.00000   0.64480   0.00000  Uiso   1.00
C91    C     0.00000   0.25000   0.35522   0.00000  Uiso   1.00
C92    C     0.00000   0.25000   0.64480   0.00000  Uiso   1.00
C93    C     0.00000   0.25000   0.85522   0.00000  Uiso   1.00
C94    C     0.00000   0.25000   0.14480   0.00000  Uiso   1.00
C95    C     0.25000   0.00000   0.85522   0.00000  Uiso   1.00
C96    C     0.25000   0.00000   0.14480   0.00000  Uiso   1.00
C97    C     0.18002   0.06998   0.25000   0.00000  Uiso   1.00
C98    C     0.28091   0.01178   0.04186   0.00000  Uiso   1.00
C99    C     0.31998   0.43002   0.75000   0.00000  Uiso   1.00
C100   C     0.43002   0.18003   0.24999   0.00000  Uiso   1.00
C101   C     0.06997   0.31998   0.74999   0.00000  Uiso   1.00
C102   C     0.31998   0.43002   0.25000   0.00000  Uiso   1.00
C103   C     0.18002   0.06998   0.75000   0.00000  Uiso   1.00
C104   C     0.06998   0.31997   0.24999   0.00000  Uiso   1.00
C105   C     0.43003   0.18002   0.74999   0.00000  Uiso   1.00
C106   C     0.18002   0.43003   0.74999   0.00000  Uiso   1.00
C107   C     0.31997   0.06998   0.24999   0.00000  Uiso   1.00
C108   C     0.43002   0.31998   0.75000   0.00000  Uiso   1.00
C109   C     0.21849   0.01005   0.95822   0.00000  Uiso   1.00
C110   C     0.06998   0.18002   0.25000   0.00000  Uiso   1.00
C111   C     0.31998   0.06997   0.74999   0.00000  Uiso   1.00
C112   C     0.18003   0.43002   0.24999   0.00000  Uiso   1.00
C113   C     0.06998   0.18002   0.75000   0.00000  Uiso   1.00
C114   C     0.43002   0.31998   0.25000   0.00000  Uiso   1.00
C115   C     0.14095   0.38605   0.21468   0.00000  Uiso   1.00
C116   C     0.35904   0.11396   0.78529   0.00000  Uiso   1.00
C117   C     0.08797   0.11496   0.25355   0.00000  Uiso   1.00
C118   C     0.41203   0.38504   0.74646   0.00000  Uiso   1.00
C119   C     0.35905   0.11395   0.21468   0.00000  Uiso   1.00
C120   C     0.01178   0.28091   0.04186   0.00000  Uiso   1.00
C121   C     0.14096   0.38604   0.78529   0.00000  Uiso   1.00
C122   C     0.41204   0.38504   0.25355   0.00000  Uiso   1.00
C123   C     0.08797   0.11496   0.74646   0.00000  Uiso   1.00
C124   C     0.11496   0.08797   0.74646   0.00000  Uiso   1.00
C125   C     0.38504   0.41204   0.25355   0.00000  Uiso   1.00
C126   C     0.11396   0.35904   0.78529   0.00000  Uiso   1.00
C127   C     0.38605   0.14095   0.21468   0.00000  Uiso   1.00
C128   C     0.38504   0.41203   0.74646   0.00000  Uiso   1.00
C129   C     0.11496   0.08796   0.25355   0.00000  Uiso   1.00
C130   C     0.38604   0.14096   0.78529   0.00000  Uiso   1.00
C131   C     0.01005   0.21849   0.95822   0.00000  Uiso   1.00
C132   C     0.11395   0.35905   0.21468   0.00000  Uiso   1.00
C133   C     0.39095   0.13605   0.71468   0.00000  Uiso   1.00
C134   C     0.10904   0.36396   0.28529   0.00000  Uiso   1.00
C135   C     0.33797   0.36496   0.75355   0.00000  Uiso   1.00
C136   C     0.16203   0.13504   0.24646   0.00000  Uiso   1.00
C137   C     0.10905   0.36395   0.71468   0.00000  Uiso   1.00
C138   C     0.39096   0.13604   0.28529   0.00000  Uiso   1.00
C139   C     0.16204   0.13504   0.75355   0.00000  Uiso   1.00
C140   C     0.33797   0.36496   0.24646   0.00000  Uiso   1.00
C141   C     0.36496   0.33797   0.24646   0.00000  Uiso   1.00
C142   C     0.46909   0.23822   0.54186   0.00000  Uiso   1.00
C143   C     0.13504   0.16204   0.75355   0.00000  Uiso   1.00
C144   C     0.36396   0.10904   0.28529   0.00000  Uiso   1.00
C145   C     0.13605   0.39095   0.71468   0.00000  Uiso   1.00
C146   C     0.13504   0.16203   0.24646   0.00000  Uiso   1.00
C147   C     0.36496   0.33797   0.75355   0.00000  Uiso   1.00
C148   C     0.13604   0.39096   0.28529   0.00000  Uiso   1.00
C149   C     0.36395   0.10905   0.71468   0.00000  Uiso   1.00
C150   C     0.09808   0.34807   0.24999   0.00000  Uiso   1.00
C151   C     0.40193   0.15193   0.74999   0.00000  Uiso   1.00
C152   C     0.15192   0.09808   0.25000   0.00000  Uiso   1.00
H153   H     0.19513   0.47837   0.02680   0.00000  Uiso   1.00
H154   H     0.05597   0.23145   0.47327   0.00000  Uiso   1.00
H155   H     0.22837   0.44513   0.52680   0.00000  Uiso   1.00
H156   H     0.23145   0.05597   0.47327   0.00000  Uiso   1.00
H157   H     0.05487   0.27163   0.52680   0.00000  Uiso   1.00
H158   H     0.44403   0.26855   0.47327   0.00000  Uiso   1.00
H159   H     0.27163   0.05487   0.52680   0.00000  Uiso   1.00
H160   H     0.26856   0.44403   0.47327   0.00000  Uiso   1.00
H161   H     0.19489   0.47916   0.09731   0.00000  Uiso   1.00
H162   H     0.30618   0.48225   0.90279   0.00000  Uiso   1.00
H163   H     0.47916   0.19489   0.09731   0.00000  Uiso   1.00
H164   H     0.30597   0.48145   0.97327   0.00000  Uiso   1.00
H165   H     0.48225   0.30618   0.90279   0.00000  Uiso   1.00
H166   H     0.30511   0.02084   0.09731   0.00000  Uiso   1.00
H167   H     0.19382   0.01775   0.90279   0.00000  Uiso   1.00
H168   H     0.02084   0.30511   0.09731   0.00000  Uiso   1.00
H169   H     0.01775   0.19382   0.90279   0.00000  Uiso   1.00
H170   H     0.44489   0.22916   0.59731   0.00000  Uiso   1.00
H171   H     0.05618   0.23225   0.40279   0.00000  Uiso   1.00
H172   H     0.22916   0.44489   0.59731   0.00000  Uiso   1.00
H173   H     0.23225   0.05618   0.40279   0.00000  Uiso   1.00
H174   H     0.05511   0.27084   0.59731   0.00000  Uiso   1.00
H175   H     0.47837   0.19513   0.02680   0.00000  Uiso   1.00
H176   H     0.44382   0.26775   0.40279   0.00000  Uiso   1.00
H177   H     0.27084   0.05511   0.59731   0.00000  Uiso   1.00
H178   H     0.26775   0.44382   0.40279   0.00000  Uiso   1.00
H179   H     0.48145   0.30597   0.97327   0.00000  Uiso   1.00
H180   H     0.30487   0.02163   0.02680   0.00000  Uiso   1.00
H181   H     0.19403   0.01855   0.97327   0.00000  Uiso   1.00
H182   H     0.02163   0.30487   0.02680   0.00000  Uiso   1.00
H183   H     0.01855   0.19403   0.97327   0.00000  Uiso   1.00
H184   H     0.44513   0.22837   0.52680   0.00000  Uiso   1.00
N185   N     0.17208   0.40491   0.14974   0.00000  Uiso   1.00
N186   N     0.40335   0.48032   0.26257   0.00000  Uiso   1.00
N187   N     0.09516   0.32786   0.85022   0.00000  Uiso   1.00
N188   N     0.40491   0.17208   0.14974   0.00000  Uiso   1.00
N189   N     0.40335   0.48032   0.73745   0.00000  Uiso   1.00
N190   N     0.09665   0.01968   0.26257   0.00000  Uiso   1.00
N191   N     0.40484   0.17214   0.85022   0.00000  Uiso   1.00
N192   N     0.09509   0.32792   0.14974   0.00000  Uiso   1.00
N193   N     0.42208   0.15491   0.64974   0.00000  Uiso   1.00
N194   N     0.07787   0.34516   0.35022   0.00000  Uiso   1.00
N195   N     0.26968   0.34665   0.76257   0.00000  Uiso   1.00
N196   N     0.32786   0.09516   0.85022   0.00000  Uiso   1.00
N197   N     0.23032   0.15335   0.23745   0.00000  Uiso   1.00
N198   N     0.07792   0.34509   0.64974   0.00000  Uiso   1.00
N199   N     0.42214   0.15484   0.35022   0.00000  Uiso   1.00
N200   N     0.23032   0.15335   0.76257   0.00000  Uiso   1.00
N201   N     0.26968   0.34665   0.23745   0.00000  Uiso   1.00
N202   N     0.34665   0.26968   0.23745   0.00000  Uiso   1.00
N203   N     0.15335   0.23032   0.76257   0.00000  Uiso   1.00
N204   N     0.34516   0.07787   0.35022   0.00000  Uiso   1.00
N205   N     0.15491   0.42208   0.64974   0.00000  Uiso   1.00
N206   N     0.15335   0.23032   0.23745   0.00000  Uiso   1.00
N207   N     0.01968   0.09665   0.26257   0.00000  Uiso   1.00
N208   N     0.34665   0.26968   0.76257   0.00000  Uiso   1.00
N209   N     0.15484   0.42213   0.35022   0.00000  Uiso   1.00
N210   N     0.34509   0.07792   0.64974   0.00000  Uiso   1.00
N211   N     0.48032   0.40335   0.73745   0.00000  Uiso   1.00
N212   N     0.32792   0.09509   0.14974   0.00000  Uiso   1.00
N213   N     0.17214   0.40484   0.85022   0.00000  Uiso   1.00
N214   N     0.48032   0.40335   0.26257   0.00000  Uiso   1.00
N215   N     0.01968   0.09665   0.73745   0.00000  Uiso   1.00
N216   N     0.09665   0.01968   0.73745   0.00000  Uiso   1.00
O217   O     0.25000   0.00000   0.25000   0.00000  Uiso   1.00
O218   O     0.25000   0.46964   0.66317   0.00000  Uiso   1.00
O219   O     0.46964   0.25000   0.33683   0.00000  Uiso   1.00
O220   O     0.03036   0.25000   0.66317   0.00000  Uiso   1.00
O221   O     0.00000   0.21964   0.83683   0.00000  Uiso   1.00
O222   O     0.00000   0.28036   0.16317   0.00000  Uiso   1.00
O223   O     0.28036   0.00000   0.83683   0.00000  Uiso   1.00
O224   O     0.21964   0.00000   0.16317   0.00000  Uiso   1.00
O225   O     0.00000   0.28036   0.83683   0.00000  Uiso   1.00
O226   O     0.00000   0.21964   0.16317   0.00000  Uiso   1.00
O227   O     0.21964   0.00000   0.83683   0.00000  Uiso   1.00
O228   O     0.25000   0.00000   0.75000   0.00000  Uiso   1.00
O229   O     0.28036   0.00000   0.16317   0.00000  Uiso   1.00
O230   O     0.20726   0.07307   0.27282   0.00000  Uiso   1.00
O231   O     0.29275   0.42693   0.72718   0.00000  Uiso   1.00
O232   O     0.42693   0.20726   0.27282   0.00000  Uiso   1.00
O233   O     0.07307   0.29275   0.72718   0.00000  Uiso   1.00
O234   O     0.29275   0.42693   0.27282   0.00000  Uiso   1.00
O235   O     0.20726   0.07307   0.72718   0.00000  Uiso   1.00
O236   O     0.07307   0.29275   0.27282   0.00000  Uiso   1.00
O237   O     0.42693   0.20726   0.72718   0.00000  Uiso   1.00
O238   O     0.20726   0.42693   0.72718   0.00000  Uiso   1.00
O239   O     0.00000   0.25000   0.25000   0.00000  Uiso   1.00
O240   O     0.29275   0.07307   0.27282   0.00000  Uiso   1.00
O241   O     0.42693   0.29275   0.72718   0.00000  Uiso   1.00
O242   O     0.07307   0.20726   0.27282   0.00000  Uiso   1.00
O243   O     0.29275   0.07307   0.72718   0.00000  Uiso   1.00
O244   O     0.20726   0.42693   0.27282   0.00000  Uiso   1.00
O245   O     0.07307   0.20726   0.72718   0.00000  Uiso   1.00
O246   O     0.42693   0.29275   0.27282   0.00000  Uiso   1.00
O247   O     0.45726   0.32307   0.77282   0.00000  Uiso   1.00
O248   O     0.04275   0.17693   0.22718   0.00000  Uiso   1.00
O249   O     0.17693   0.45726   0.77282   0.00000  Uiso   1.00
O250   O     0.00000   0.25000   0.75000   0.00000  Uiso   1.00
O251   O     0.32307   0.04275   0.22718   0.00000  Uiso   1.00
O252   O     0.04275   0.17693   0.77282   0.00000  Uiso   1.00
O253   O     0.45726   0.32307   0.22718   0.00000  Uiso   1.00
O254   O     0.32307   0.04275   0.77282   0.00000  Uiso   1.00
O255   O     0.17693   0.45726   0.22718   0.00000  Uiso   1.00
O256   O     0.45726   0.17693   0.22718   0.00000  Uiso   1.00
O257   O     0.04275   0.32307   0.77282   0.00000  Uiso   1.00
O258   O     0.17693   0.04275   0.22718   0.00000  Uiso   1.00
O259   O     0.32307   0.45726   0.77282   0.00000  Uiso   1.00
O260   O     0.04275   0.32307   0.22718   0.00000  Uiso   1.00
O261   O     0.25000   0.46964   0.33683   0.00000  Uiso   1.00
O262   O     0.45726   0.17693   0.77282   0.00000  Uiso   1.00
O263   O     0.32307   0.45726   0.22718   0.00000  Uiso   1.00
O264   O     0.17693   0.04275   0.77282   0.00000  Uiso   1.00
O265   O     0.25000   0.03036   0.66317   0.00000  Uiso   1.00
O266   O     0.03036   0.25000   0.33683   0.00000  Uiso   1.00
O267   O     0.46964   0.25000   0.66317   0.00000  Uiso   1.00
O268   O     0.25000   0.03036   0.33683   0.00000  Uiso   1.00
Zn269  Zn    0.20660   0.00000   0.21760   0.00000  Uiso   1.00
Zn270  Zn    0.04340   0.25000   0.28240   0.00000  Uiso   1.00
Zn271  Zn    0.25000   0.45660   0.71760   0.00000  Uiso   1.00
Zn272  Zn    0.25000   0.04340   0.28240   0.00000  Uiso   1.00
Zn273  Zn    0.04340   0.25000   0.71760   0.00000  Uiso   1.00
Zn274  Zn    0.45660   0.25000   0.28240   0.00000  Uiso   1.00
Zn275  Zn    0.25000   0.04340   0.71760   0.00000  Uiso   1.00
Zn276  Zn    0.25000   0.45660   0.28240   0.00000  Uiso   1.00
Zn277  Zn    0.29340   0.00000   0.78240   0.00000  Uiso   1.00
Zn278  Zn    0.00000   0.20660   0.21760   0.00000  Uiso   1.00
Zn279  Zn    0.00000   0.29340   0.78240   0.00000  Uiso   1.00
Zn280  Zn    0.29340   0.00000   0.21760   0.00000  Uiso   1.00
Zn281  Zn    0.20660   0.00000   0.78240   0.00000  Uiso   1.00
Zn282  Zn    0.00000   0.29340   0.21760   0.00000  Uiso   1.00
Zn283  Zn    0.00000   0.20660   0.78240   0.00000  Uiso   1.00
Zn284  Zn    0.45660   0.25000   0.71760   0.00000  Uiso   1.00
C285   C     0.71909   0.48822   0.04186   0.00000  Uiso   1.00
C286   C     0.53151   0.23995   0.45822   0.00000  Uiso   1.00
C287   C     0.84808   0.40192   0.75000   0.00000  Uiso   1.00
C288   C     0.90193   0.15193   0.24999   0.00000  Uiso   1.00
C289   C     0.59807   0.34808   0.74999   0.00000  Uiso   1.00
C290   C     0.84808   0.40193   0.25000   0.00000  Uiso   1.00
C291   C     0.65193   0.09808   0.75000   0.00000  Uiso   1.00
C292   C     0.59808   0.15193   0.75000   0.00000  Uiso   1.00
C293   C     0.90193   0.34808   0.25000   0.00000  Uiso   1.00
C294   C     0.65193   0.40193   0.74999   0.00000  Uiso   1.00
C295   C     0.84807   0.09808   0.24999   0.00000  Uiso   1.00
C296   C     0.90192   0.34808   0.75000   0.00000  Uiso   1.00
C297   C     0.73822   0.46909   0.54186   0.00000  Uiso   1.00
C298   C     0.59808   0.15192   0.25000   0.00000  Uiso   1.00
C299   C     0.84808   0.09807   0.74999   0.00000  Uiso   1.00
C300   C     0.65193   0.40193   0.24999   0.00000  Uiso   1.00
C301   C     0.75000   0.00000   0.10247   0.00000  Uiso   1.00
C302   C     0.75000   0.00000   0.89758   0.00000  Uiso   1.00
C303   C     0.50000   0.25000   0.10247   0.00000  Uiso   1.00
C304   C     0.50000   0.25000   0.89758   0.00000  Uiso   1.00
C305   C     0.50000   0.25000   0.60247   0.00000  Uiso   1.00
C306   C     0.50000   0.25000   0.39758   0.00000  Uiso   1.00
C307   C     0.75000   0.00000   0.60247   0.00000  Uiso   1.00
C308   C     0.73995   0.03151   0.45822   0.00000  Uiso   1.00
C309   C     0.75000   0.00000   0.39758   0.00000  Uiso   1.00
C310   C     0.65827   0.39654   0.17853   0.00000  Uiso   1.00
C311   C     0.84169   0.10350   0.82143   0.00000  Uiso   1.00
C312   C     0.54996   0.10476   0.25857   0.00000  Uiso   1.00
C313   C     0.95004   0.39524   0.74145   0.00000  Uiso   1.00
C314   C     0.84173   0.10346   0.17853   0.00000  Uiso   1.00
C315   C     0.65831   0.39650   0.82143   0.00000  Uiso   1.00
C316   C     0.95004   0.39524   0.25857   0.00000  Uiso   1.00
C317   C     0.54996   0.10476   0.74145   0.00000  Uiso   1.00
C318   C     0.60476   0.04996   0.74145   0.00000  Uiso   1.00
C319   C     0.53091   0.26178   0.54186   0.00000  Uiso   1.00
C320   C     0.89524   0.45004   0.25857   0.00000  Uiso   1.00
C321   C     0.60350   0.34169   0.82143   0.00000  Uiso   1.00
C322   C     0.89654   0.15827   0.17853   0.00000  Uiso   1.00
C323   C     0.89524   0.45004   0.74145   0.00000  Uiso   1.00
C324   C     0.60476   0.04996   0.25857   0.00000  Uiso   1.00
C325   C     0.89650   0.15831   0.82143   0.00000  Uiso   1.00
C326   C     0.60346   0.34173   0.17853   0.00000  Uiso   1.00
C327   C     0.90827   0.14654   0.67853   0.00000  Uiso   1.00
C328   C     0.59169   0.35350   0.32143   0.00000  Uiso   1.00
C329   C     0.79996   0.35476   0.75857   0.00000  Uiso   1.00
C330   C     0.96849   0.26005   0.45822   0.00000  Uiso   1.00
C331   C     0.70004   0.14524   0.24145   0.00000  Uiso   1.00
C332   C     0.59173   0.35346   0.67853   0.00000  Uiso   1.00
C333   C     0.90831   0.14650   0.32143   0.00000  Uiso   1.00
C334   C     0.70004   0.14524   0.75857   0.00000  Uiso   1.00
C335   C     0.79996   0.35476   0.24145   0.00000  Uiso   1.00
C336   C     0.85476   0.29996   0.24145   0.00000  Uiso   1.00
C337   C     0.64524   0.20004   0.75857   0.00000  Uiso   1.00
C338   C     0.85350   0.09169   0.32143   0.00000  Uiso   1.00
C339   C     0.64654   0.40827   0.67853   0.00000  Uiso   1.00
C340   C     0.64524   0.20004   0.24145   0.00000  Uiso   1.00
C341   C     0.76178   0.03091   0.54186   0.00000  Uiso   1.00
C342   C     0.85476   0.29996   0.75857   0.00000  Uiso   1.00
C343   C     0.64650   0.40831   0.32143   0.00000  Uiso   1.00
C344   C     0.85346   0.09173   0.67853   0.00000  Uiso   1.00
C345   C     0.76005   0.46849   0.45822   0.00000  Uiso   1.00
C346   C     0.71900   0.48848   0.08212   0.00000  Uiso   1.00
C347   C     0.78158   0.49020   0.91796   0.00000  Uiso   1.00
C348   C     0.98848   0.21900   0.08212   0.00000  Uiso   1.00
C349   C     0.78151   0.48995   0.95822   0.00000  Uiso   1.00
C350   C     0.99020   0.28158   0.91796   0.00000  Uiso   1.00
C351   C     0.78100   0.01152   0.08212   0.00000  Uiso   1.00
C352   C     0.71842   0.00980   0.91796   0.00000  Uiso   1.00
C353   C     0.51152   0.28100   0.08212   0.00000  Uiso   1.00
C354   C     0.50980   0.21842   0.91796   0.00000  Uiso   1.00
C355   C     0.96900   0.23848   0.58212   0.00000  Uiso   1.00
C356   C     0.53158   0.24020   0.41796   0.00000  Uiso   1.00
C357   C     0.73848   0.46900   0.58212   0.00000  Uiso   1.00
C358   C     0.74020   0.03158   0.41796   0.00000  Uiso   1.00
C359   C     0.53100   0.26152   0.58212   0.00000  Uiso   1.00
C360   C     0.98822   0.21909   0.04186   0.00000  Uiso   1.00
C361   C     0.96842   0.25980   0.41796   0.00000  Uiso   1.00
C362   C     0.76152   0.03100   0.58212   0.00000  Uiso   1.00
C363   C     0.75980   0.46842   0.41796   0.00000  Uiso   1.00
C364   C     0.75000   0.00000   0.02136   0.00000  Uiso   1.00
C365   C     0.75000   0.00000   0.97872   0.00000  Uiso   1.00
C366   C     0.50000   0.25000   0.02136   0.00000  Uiso   1.00
C367   C     0.50000   0.25000   0.97872   0.00000  Uiso   1.00
C368   C     0.50000   0.25000   0.52136   0.00000  Uiso   1.00
C369   C     0.50000   0.25000   0.47872   0.00000  Uiso   1.00
C370   C     0.75000   0.00000   0.52136   0.00000  Uiso   1.00
C371   C     0.98995   0.28151   0.95822   0.00000  Uiso   1.00
C372   C     0.75000   0.00000   0.47872   0.00000  Uiso   1.00
C373   C     0.75000   0.00000   0.35522   0.00000  Uiso   1.00
C374   C     0.75000   0.00000   0.64480   0.00000  Uiso   1.00
C375   C     0.50000   0.25000   0.35522   0.00000  Uiso   1.00
C376   C     0.50000   0.25000   0.64480   0.00000  Uiso   1.00
C377   C     0.50000   0.25000   0.85522   0.00000  Uiso   1.00
C378   C     0.50000   0.25000   0.14480   0.00000  Uiso   1.00
C379   C     0.75000   0.00000   0.85522   0.00000  Uiso   1.00
C380   C     0.75000   0.00000   0.14480   0.00000  Uiso   1.00
C381   C     0.68002   0.06998   0.25000   0.00000  Uiso   1.00
C382   C     0.78091   0.01178   0.04186   0.00000  Uiso   1.00
C383   C     0.81998   0.43002   0.75000   0.00000  Uiso   1.00
C384   C     0.93002   0.18003   0.24999   0.00000  Uiso   1.00
C385   C     0.56997   0.31998   0.74999   0.00000  Uiso   1.00
C386   C     0.81998   0.43002   0.25000   0.00000  Uiso   1.00
C387   C     0.68002   0.06998   0.75000   0.00000  Uiso   1.00
C388   C     0.56998   0.31997   0.24999   0.00000  Uiso   1.00
C389   C     0.93003   0.18002   0.74999   0.00000  Uiso   1.00
C390   C     0.68002   0.43003   0.74999   0.00000  Uiso   1.00
C391   C     0.81997   0.06998   0.24999   0.00000  Uiso   1.00
C392   C     0.93002   0.31998   0.75000   0.00000  Uiso   1.00
C393   C     0.71849   0.01005   0.95822   0.00000  Uiso   1.00
C394   C     0.56998   0.18002   0.25000   0.00000  Uiso   1.00
C395   C     0.81998   0.06997   0.74999   0.00000  Uiso   1.00
C396   C     0.68003   0.43002   0.24999   0.00000  Uiso   1.00
C397   C     0.56998   0.18002   0.75000   0.00000  Uiso   1.00
C398   C     0.93002   0.31998   0.25000   0.00000  Uiso   1.00
C399   C     0.64095   0.38605   0.21468   0.00000  Uiso   1.00
C400   C     0.85904   0.11396   0.78529   0.00000  Uiso   1.00
C401   C     0.58797   0.11496   0.25355   0.00000  Uiso   1.00
C402   C     0.91203   0.38504   0.74646   0.00000  Uiso   1.00
C403   C     0.85905   0.11395   0.21468   0.00000  Uiso   1.00
C404   C     0.51178   0.28091   0.04186   0.00000  Uiso   1.00
C405   C     0.64096   0.38604   0.78529   0.00000  Uiso   1.00
C406   C     0.91204   0.38504   0.25355   0.00000  Uiso   1.00
C407   C     0.58797   0.11496   0.74646   0.00000  Uiso   1.00
C408   C     0.61496   0.08797   0.74646   0.00000  Uiso   1.00
C409   C     0.88504   0.41204   0.25355   0.00000  Uiso   1.00
C410   C     0.61396   0.35904   0.78529   0.00000  Uiso   1.00
C411   C     0.88605   0.14095   0.21468   0.00000  Uiso   1.00
C412   C     0.88504   0.41203   0.74646   0.00000  Uiso   1.00
C413   C     0.61496   0.08796   0.25355   0.00000  Uiso   1.00
C414   C     0.88604   0.14096   0.78529   0.00000  Uiso   1.00
C415   C     0.51005   0.21849   0.95822   0.00000  Uiso   1.00
C416   C     0.61395   0.35905   0.21468   0.00000  Uiso   1.00
C417   C     0.89095   0.13605   0.71468   0.00000  Uiso   1.00
C418   C     0.60904   0.36396   0.28529   0.00000  Uiso   1.00
C419   C     0.83797   0.36496   0.75355   0.00000  Uiso   1.00
C420   C     0.66203   0.13504   0.24646   0.00000  Uiso   1.00
C421   C     0.60905   0.36395   0.71468   0.00000  Uiso   1.00
C422   C     0.89096   0.13604   0.28529   0.00000  Uiso   1.00
C423   C     0.66204   0.13504   0.75355   0.00000  Uiso   1.00
C424   C     0.83797   0.36496   0.24646   0.00000  Uiso   1.00
C425   C     0.86496   0.33797   0.24646   0.00000  Uiso   1.00
C426   C     0.96909   0.23822   0.54186   0.00000  Uiso   1.00
C427   C     0.63504   0.16204   0.75355   0.00000  Uiso   1.00
C428   C     0.86396   0.10904   0.28529   0.00000  Uiso   1.00
C429   C     0.63605   0.39095   0.71468   0.00000  Uiso   1.00
C430   C     0.63504   0.16203   0.24646   0.00000  Uiso   1.00
C431   C     0.86496   0.33797   0.75355   0.00000  Uiso   1.00
C432   C     0.63604   0.39096   0.28529   0.00000  Uiso   1.00
C433   C     0.86395   0.10905   0.71468   0.00000  Uiso   1.00
C434   C     0.59808   0.34807   0.24999   0.00000  Uiso   1.00
C435   C     0.90193   0.15193   0.74999   0.00000  Uiso   1.00
C436   C     0.65192   0.09808   0.25000   0.00000  Uiso   1.00
H437   H     0.69513   0.47837   0.02680   0.00000  Uiso   1.00
H438   H     0.55597   0.23145   0.47327   0.00000  Uiso   1.00
H439   H     0.72837   0.44513   0.52680   0.00000  Uiso   1.00
H440   H     0.73145   0.05597   0.47327   0.00000  Uiso   1.00
H441   H     0.55487   0.27163   0.52680   0.00000  Uiso   1.00
H442   H     0.94403   0.26855   0.47327   0.00000  Uiso   1.00
H443   H     0.77163   0.05487   0.52680   0.00000  Uiso   1.00
H444   H     0.76856   0.44403   0.47327   0.00000  Uiso   1.00
H445   H     0.69489   0.47916   0.09731   0.00000  Uiso   1.00
H446   H     0.80618   0.48225   0.90279   0.00000  Uiso   1.00
H447   H     0.97916   0.19489   0.09731   0.00000  Uiso   1.00
H448   H     0.80597   0.48145   0.97327   0.00000  Uiso   1.00
H449   H     0.98225   0.30618   0.90279   0.00000  Uiso   1.00
H450   H     0.80511   0.02084   0.09731   0.00000  Uiso   1.00
H451   H     0.69382   0.01775   0.90279   0.00000  Uiso   1.00
H452   H     0.52084   0.30511   0.09731   0.00000  Uiso   1.00
H453   H     0.51775   0.19382   0.90279   0.00000  Uiso   1.00
H454   H     0.94489   0.22916   0.59731   0.00000  Uiso   1.00
H455   H     0.55618   0.23225   0.40279   0.00000  Uiso   1.00
H456   H     0.72916   0.44489   0.59731   0.00000  Uiso   1.00
H457   H     0.73225   0.05618   0.40279   0.00000  Uiso   1.00
H458   H     0.55511   0.27084   0.59731   0.00000  Uiso   1.00
H459   H     0.97837   0.19513   0.02680   0.00000  Uiso   1.00
H460   H     0.94382   0.26775   0.40279   0.00000  Uiso   1.00
H461   H     0.77084   0.05511   0.59731   0.00000  Uiso   1.00
H462   H     0.76775   0.44382   0.40279   0.00000  Uiso   1.00
H463   H     0.98145   0.30597   0.97327   0.00000  Uiso   1.00
H464   H     0.80487   0.02163   0.02680   0.00000  Uiso   1.00
H465   H     0.69403   0.01855   0.97327   0.00000  Uiso   1.00
H466   H     0.52163   0.30487   0.02680   0.00000  Uiso   1.00
H467   H     0.51855   0.19403   0.97327   0.00000  Uiso   1.00
H468   H     0.94513   0.22837   0.52680   0.00000  Uiso   1.00
N469   N     0.67208   0.40491   0.14974   0.00000  Uiso   1.00
N470   N     0.90335   0.48032   0.26257   0.00000  Uiso   1.00
N471   N     0.59516   0.32786   0.85022   0.00000  Uiso   1.00
N472   N     0.90491   0.17208   0.14974   0.00000  Uiso   1.00
N473   N     0.90335   0.48032   0.73745   0.00000  Uiso   1.00
N474   N     0.59665   0.01968   0.26257   0.00000  Uiso   1.00
N475   N     0.90484   0.17214   0.85022   0.00000  Uiso   1.00
N476   N     0.59509   0.32792   0.14974   0.00000  Uiso   1.00
N477   N     0.92208   0.15491   0.64974   0.00000  Uiso   1.00
N478   N     0.57787   0.34516   0.35022   0.00000  Uiso   1.00
N479   N     0.76968   0.34665   0.76257   0.00000  Uiso   1.00
N480   N     0.82786   0.09516   0.85022   0.00000  Uiso   1.00
N481   N     0.73032   0.15335   0.23745   0.00000  Uiso   1.00
N482   N     0.57792   0.34509   0.64974   0.00000  Uiso   1.00
N483   N     0.92214   0.15484   0.35022   0.00000  Uiso   1.00
N484   N     0.73032   0.15335   0.76257   0.00000  Uiso   1.00
N485   N     0.76968   0.34665   0.23745   0.00000  Uiso   1.00
N486   N     0.84665   0.26968   0.23745   0.00000  Uiso   1.00
N487   N     0.65335   0.23032   0.76257   0.00000  Uiso   1.00
N488   N     0.84516   0.07787   0.35022   0.00000  Uiso   1.00
N489   N     0.65491   0.42208   0.64974   0.00000  Uiso   1.00
N490   N     0.65335   0.23032   0.23745   0.00000  Uiso   1.00
N491   N     0.51968   0.09665   0.26257   0.00000  Uiso   1.00
N492   N     0.84665   0.26968   0.76257   0.00000  Uiso   1.00
N493   N     0.65484   0.42213   0.35022   0.00000  Uiso   1.00
N494   N     0.84509   0.07792   0.64974   0.00000  Uiso   1.00
N495   N     0.98032   0.40335   0.73745   0.00000  Uiso   1.00
N496   N     0.82792   0.09509   0.14974   0.00000  Uiso   1.00
N497   N     0.67214   0.40484   0.85022   0.00000  Uiso   1.00
N498   N     0.98032   0.40335   0.26257   0.00000  Uiso   1.00
N499   N     0.51968   0.09665   0.73745   0.00000  Uiso   1.00
N500   N     0.59665   0.01968   0.73745   0.00000  Uiso   1.00
O501   O     0.75000   0.00000   0.25000   0.00000  Uiso   1.00
O502   O     0.75000   0.46964   0.66317   0.00000  Uiso   1.00
O503   O     0.96964   0.25000   0.33683   0.00000  Uiso   1.00
O504   O     0.53036   0.25000   0.66317   0.00000  Uiso   1.00
O505   O     0.50000   0.21964   0.83683   0.00000  Uiso   1.00
O506   O     0.50000   0.28036   0.16317   0.00000  Uiso   1.00
O507   O     0.78036   0.00000   0.83683   0.00000  Uiso   1.00
O508   O     0.71964   0.00000   0.16317   0.00000  Uiso   1.00
O509   O     0.50000   0.28036   0.83683   0.00000  Uiso   1.00
O510   O     0.50000   0.21964   0.16317   0.00000  Uiso   1.00
O511   O     0.71964   0.00000   0.83683   0.00000  Uiso   1.00
O512   O     0.75000   0.00000   0.75000   0.00000  Uiso   1.00
O513   O     0.78036   0.00000   0.16317   0.00000  Uiso   1.00
O514   O     0.70726   0.07307   0.27282   0.00000  Uiso   1.00
O515   O     0.79275   0.42693   0.72718   0.00000  Uiso   1.00
O516   O     0.92693   0.20726   0.27282   0.00000  Uiso   1.00
O517   O     0.57307   0.29275   0.72718   0.00000  Uiso   1.00
O518   O     0.79275   0.42693   0.27282   0.00000  Uiso   1.00
O519   O     0.70726   0.07307   0.72718   0.00000  Uiso   1.00
O520   O     0.57307   0.29275   0.27282   0.00000  Uiso   1.00
O521   O     0.92693   0.20726   0.72718   0.00000  Uiso   1.00
O522   O     0.70726   0.42693   0.72718   0.00000  Uiso   1.00
O523   O     0.50000   0.25000   0.25000   0.00000  Uiso   1.00
O524   O     0.79275   0.07307   0.27282   0.00000  Uiso   1.00
O525   O     0.92693   0.29275   0.72718   0.00000  Uiso   1.00
O526   O     0.57307   0.20726   0.27282   0.00000  Uiso   1.00
O527   O     0.79275   0.07307   0.72718   0.00000  Uiso   1.00
O528   O     0.70726   0.42693   0.27282   0.00000  Uiso   1.00
O529   O     0.57307   0.20726   0.72718   0.00000  Uiso   1.00
O530   O     0.92693   0.29275   0.27282   0.00000  Uiso   1.00
O531   O     0.95726   0.32307   0.77282   0.00000  Uiso   1.00
O532   O     0.54275   0.17693   0.22718   0.00000  Uiso   1.00
O533   O     0.67693   0.45726   0.77282   0.00000  Uiso   1.00
O534   O     0.50000   0.25000   0.75000   0.00000  Uiso   1.00
O535   O     0.82307   0.04275   0.22718   0.00000  Uiso   1.00
O536   O     0.54275   0.17693   0.77282   0.00000  Uiso   1.00
O537   O     0.95726   0.32307   0.22718   0.00000  Uiso   1.00
O538   O     0.82307   0.04275   0.77282   0.00000  Uiso   1.00
O539   O     0.67693   0.45726   0.22718   0.00000  Uiso   1.00
O540   O     0.95726   0.17693   0.22718   0.00000  Uiso   1.00
O541   O     0.54275   0.32307   0.77282   0.00000  Uiso   1.00
O542   O     0.67693   0.04275   0.22718   0.00000  Uiso   1.00
O543   O     0.82307   0.45726   0.77282   0.00000  Uiso   1.00
O544   O     0.54275   0.32307   0.22718   0.00000  Uiso   1.00
O545   O     0.75000   0.46964   0.33683   0.00000  Uiso   1.00
O546   O     0.95726   0.17693   0.77282   0.00000  Uiso   1.00
O547   O     0.82307   0.45726   0.22718   0.00000  Uiso   1.00
O548   O     0.67693   0.04275   0.77282   0.00000  Uiso   1.00
O549   O     0.75000   0.03036   0.66317   0.00000  Uiso   1.00
O550   O     0.53036   0.25000   0.33683   0.00000  Uiso   1.00
O551   O     0.96964   0.25000   0.66317   0.00000  Uiso   1.00
O552   O     0.75000   0.03036   0.33683   0.00000  Uiso   1.00
Zn553  Zn    0.70660   0.00000   0.21760   0.00000  Uiso   1.00
Zn554  Zn    0.54340   0.25000   0.28240   0.00000  Uiso   1.00
Zn555  Zn    0.75000   0.45660   0.71760   0.00000  Uiso   1.00
Zn556  Zn    0.75000   0.04340   0.28240   0.00000  Uiso   1.00
Zn557  Zn    0.54340   0.25000   0.71760   0.00000  Uiso   1.00
Zn558  Zn    0.95660   0.25000   0.28240   0.00000  Uiso   1.00
Zn559  Zn    0.75000   0.04340   0.71760   0.00000  Uiso   1.00
Zn560  Zn    0.75000   0.45660   0.28240   0.00000  Uiso   1.00
Zn561  Zn    0.79340   0.00000   0.78240   0.00000  Uiso   1.00
Zn562  Zn    0.50000   0.20660   0.21760   0.00000  Uiso   1.00
Zn563  Zn    0.50000   0.29340   0.78240   0.00000  Uiso   1.00
Zn564  Zn    0.79340   0.00000   0.21760   0.00000  Uiso   1.00
Zn565  Zn    0.70660   0.00000   0.78240   0.00000  Uiso   1.00
Zn566  Zn    0.50000   0.29340   0.21760   0.00000  Uiso   1.00
Zn567  Zn    0.50000   0.20660   0.78240   0.00000  Uiso   1.00
Zn568  Zn    0.95660   0.25000   0.71760   0.00000  Uiso   1.00
C569   C     0.21909   0.98822   0.04186   0.00000  Uiso   1.00
C570   C     0.03151   0.73995   0.45822   0.00000  Uiso   1.00
C571   C     0.34808   0.90192   0.75000   0.00000  Uiso   1.00
C572   C     0.40193   0.65193   0.24999   0.00000  Uiso   1.00
C573   C     0.09807   0.84808   0.74999   0.00000  Uiso   1.00
C574   C     0.34808   0.90193   0.25000   0.00000  Uiso   1.00
C575   C     0.15193   0.59808   0.75000   0.00000  Uiso   1.00
C576   C     0.09808   0.65193   0.75000   0.00000  Uiso   1.00
C577   C     0.40193   0.84808   0.25000   0.00000  Uiso   1.00
C578   C     0.15193   0.90193   0.74999   0.00000  Uiso   1.00
C579   C     0.34807   0.59808   0.24999   0.00000  Uiso   1.00
C580   C     0.40192   0.84808   0.75000   0.00000  Uiso   1.00
C581   C     0.23822   0.96909   0.54186   0.00000  Uiso   1.00
C582   C     0.09808   0.65192   0.25000   0.00000  Uiso   1.00
C583   C     0.34808   0.59807   0.74999   0.00000  Uiso   1.00
C584   C     0.15193   0.90193   0.24999   0.00000  Uiso   1.00
C585   C     0.25000   0.50000   0.10247   0.00000  Uiso   1.00
C586   C     0.25000   0.50000   0.89758   0.00000  Uiso   1.00
C587   C     0.00000   0.75000   0.10247   0.00000  Uiso   1.00
C588   C     0.00000   0.75000   0.89758   0.00000  Uiso   1.00
C589   C     0.00000   0.75000   0.60247   0.00000  Uiso   1.00
C590   C     0.00000   0.75000   0.39758   0.00000  Uiso   1.00
C591   C     0.25000   0.50000   0.60247   0.00000  Uiso   1.00
C592   C     0.23995   0.53151   0.45822   0.00000  Uiso   1.00
C593   C     0.25000   0.50000   0.39758   0.00000  Uiso   1.00
C594   C     0.15827   0.89654   0.17853   0.00000  Uiso   1.00
C595   C     0.34169   0.60350   0.82143   0.00000  Uiso   1.00
C596   C     0.04996   0.60476   0.25857   0.00000  Uiso   1.00
C597   C     0.45004   0.89524   0.74145   0.00000  Uiso   1.00
C598   C     0.34173   0.60346   0.17853   0.00000  Uiso   1.00
C599   C     0.15831   0.89650   0.82143   0.00000  Uiso   1.00
C600   C     0.45004   0.89524   0.25857   0.00000  Uiso   1.00
C601   C     0.04996   0.60476   0.74145   0.00000  Uiso   1.00
C602   C     0.10476   0.54996   0.74145   0.00000  Uiso   1.00
C603   C     0.03091   0.76178   0.54186   0.00000  Uiso   1.00
C604   C     0.39524   0.95004   0.25857   0.00000  Uiso   1.00
C605   C     0.10350   0.84169   0.82143   0.00000  Uiso   1.00
C606   C     0.39654   0.65827   0.17853   0.00000  Uiso   1.00
C607   C     0.39524   0.95004   0.74145   0.00000  Uiso   1.00
C608   C     0.10476   0.54996   0.25857   0.00000  Uiso   1.00
C609   C     0.39650   0.65831   0.82143   0.00000  Uiso   1.00
C610   C     0.10346   0.84173   0.17853   0.00000  Uiso   1.00
C611   C     0.40827   0.64654   0.67853   0.00000  Uiso   1.00
C612   C     0.09169   0.85350   0.32143   0.00000  Uiso   1.00
C613   C     0.29996   0.85476   0.75857   0.00000  Uiso   1.00
C614   C     0.46849   0.76005   0.45822   0.00000  Uiso   1.00
C615   C     0.20004   0.64524   0.24145   0.00000  Uiso   1.00
C616   C     0.09173   0.85346   0.67853   0.00000  Uiso   1.00
C617   C     0.40831   0.64650   0.32143   0.00000  Uiso   1.00
C618   C     0.20004   0.64524   0.75857   0.00000  Uiso   1.00
C619   C     0.29996   0.85476   0.24145   0.00000  Uiso   1.00
C620   C     0.35476   0.79996   0.24145   0.00000  Uiso   1.00
C621   C     0.14524   0.70004   0.75857   0.00000  Uiso   1.00
C622   C     0.35350   0.59169   0.32143   0.00000  Uiso   1.00
C623   C     0.14654   0.90827   0.67853   0.00000  Uiso   1.00
C624   C     0.14524   0.70004   0.24145   0.00000  Uiso   1.00
C625   C     0.26178   0.53091   0.54186   0.00000  Uiso   1.00
C626   C     0.35476   0.79996   0.75857   0.00000  Uiso   1.00
C627   C     0.14650   0.90831   0.32143   0.00000  Uiso   1.00
C628   C     0.35346   0.59173   0.67853   0.00000  Uiso   1.00
C629   C     0.26005   0.96849   0.45822   0.00000  Uiso   1.00
C630   C     0.21900   0.98848   0.08212   0.00000  Uiso   1.00
C631   C     0.28158   0.99020   0.91796   0.00000  Uiso   1.00
C632   C     0.48848   0.71900   0.08212   0.00000  Uiso   1.00
C633   C     0.28151   0.98995   0.95822   0.00000  Uiso   1.00
C634   C     0.49020   0.78158   0.91796   0.00000  Uiso   1.00
C635   C     0.28100   0.51152   0.08212   0.00000  Uiso   1.00
C636   C     0.21842   0.50980   0.91796   0.00000  Uiso   1.00
C637   C     0.01152   0.78100   0.08212   0.00000  Uiso   1.00
C638   C     0.00980   0.71842   0.91796   0.00000  Uiso   1.00
C639   C     0.46900   0.73848   0.58212   0.00000  Uiso   1.00
C640   C     0.03158   0.74020   0.41796   0.00000  Uiso   1.00
C641   C     0.23848   0.96900   0.58212   0.00000  Uiso   1.00
C642   C     0.24020   0.53158   0.41796   0.00000  Uiso   1.00
C643   C     0.03100   0.76152   0.58212   0.00000  Uiso   1.00
C644   C     0.48822   0.71909   0.04186   0.00000  Uiso   1.00
C645   C     0.46842   0.75980   0.41796   0.00000  Uiso   1.00
C646   C     0.26152   0.53100   0.58212   0.00000  Uiso   1.00
C647   C     0.25980   0.96842   0.41796   0.00000  Uiso   1.00
C648   C     0.25000   0.50000   0.02136   0.00000  Uiso   1.00
C649   C     0.25000   0.50000   0.97872   0.00000  Uiso   1.00
C650   C     0.00000   0.75000   0.02136   0.00000  Uiso   1.00
C651   C     0.00000   0.75000   0.97872   0.00000  Uiso   1.00
C652   C     0.00000   0.75000   0.52136   0.00000  Uiso   1.00
C653   C     0.00000   0.75000   0.47872   0.00000  Uiso   1.00
C654   C     0.25000   0.50000   0.52136   0.00000  Uiso   1.00
C655   C     0.48995   0.78151   0.95822   0.00000  Uiso   1.00
C656   C     0.25000   0.50000   0.47872   0.00000  Uiso   1.00
C657   C     0.25000   0.50000   0.35522   0.00000  Uiso   1.00
C658   C     0.25000   0.50000   0.64480   0.00000  Uiso   1.00
C659   C     0.00000   0.75000   0.35522   0.00000  Uiso   1.00
C660   C     0.00000   0.75000   0.64480   0.00000  Uiso   1.00
C661   C     0.00000   0.75000   0.85522   0.00000  Uiso   1.00
C662   C     0.00000   0.75000   0.14480   0.00000  Uiso   1.00
C663   C     0.25000   0.50000   0.85522   0.00000  Uiso   1.00
C664   C     0.25000   0.50000   0.14480   0.00000  Uiso   1.00
C665   C     0.18002   0.56998   0.25000   0.00000  Uiso   1.00
C666   C     0.28091   0.51178   0.04186   0.00000  Uiso   1.00
C667   C     0.31998   0.93002   0.75000   0.00000  Uiso   1.00
C668   C     0.43002   0.68003   0.24999   0.00000  Uiso   1.00
C669   C     0.06997   0.81998   0.74999   0.00000  Uiso   1.00
C670   C     0.31998   0.93002   0.25000   0.00000  Uiso   1.00
C671   C     0.18002   0.56998   0.75000   0.00000  Uiso   1.00
C672   C     0.06998   0.81997   0.24999   0.00000  Uiso   1.00
C673   C     0.43003   0.68002   0.74999   0.00000  Uiso   1.00
C674   C     0.18002   0.93003   0.74999   0.00000  Uiso   1.00
C675   C     0.31997   0.56998   0.24999   0.00000  Uiso   1.00
C676   C     0.43002   0.81998   0.75000   0.00000  Uiso   1.00
C677   C     0.21849   0.51005   0.95822   0.00000  Uiso   1.00
C678   C     0.06998   0.68002   0.25000   0.00000  Uiso   1.00
C679   C     0.31998   0.56997   0.74999   0.00000  Uiso   1.00
C680   C     0.18003   0.93002   0.24999   0.00000  Uiso   1.00
C681   C     0.06998   0.68002   0.75000   0.00000  Uiso   1.00
C682   C     0.43002   0.81998   0.25000   0.00000  Uiso   1.00
C683   C     0.14095   0.88605   0.21468   0.00000  Uiso   1.00
C684   C     0.35904   0.61396   0.78529   0.00000  Uiso   1.00
C685   C     0.08797   0.61496   0.25355   0.00000  Uiso   1.00
C686   C     0.41203   0.88504   0.74646   0.00000  Uiso   1.00
C687   C     0.35905   0.61395   0.21468   0.00000  Uiso   1.00
C688   C     0.01178   0.78091   0.04186   0.00000  Uiso   1.00
C689   C     0.14096   0.88604   0.78529   0.00000  Uiso   1.00
C690   C     0.41204   0.88504   0.25355   0.00000  Uiso   1.00
C691   C     0.08797   0.61496   0.74646   0.00000  Uiso   1.00
C692   C     0.11496   0.58797   0.74646   0.00000  Uiso   1.00
C693   C     0.38504   0.91204   0.25355   0.00000  Uiso   1.00
C694   C     0.11396   0.85904   0.78529   0.00000  Uiso   1.00
C695   C     0.38605   0.64095   0.21468   0.00000  Uiso   1.00
C696   C     0.38504   0.91203   0.74646   0.00000  Uiso   1.00
C697   C     0.11496   0.58796   0.25355   0.00000  Uiso   1.00
C698   C     0.38604   0.64096   0.78529   0.00000  Uiso   1.00
C699   C     0.01005   0.71849   0.95822   0.00000  Uiso   1.00
C700   C     0.11395   0.85905   0.21468   0.00000  Uiso   1.00
C701   C     0.39095   0.63605   0.71468   0.00000  Uiso   1.00
C702   C     0.10904   0.86396   0.28529   0.00000  Uiso   1.00
C703   C     0.33797   0.86496   0.75355   0.00000  Uiso   1.00
C704   C     0.16203   0.63504   0.24646   0.00000  Uiso   1.00
C705   C     0.10905   0.86395   0.71468   0.00000  Uiso   1.00
C706   C     0.39096   0.63604   0.28529   0.00000  Uiso   1.00
C707   C     0.16204   0.63504   0.75355   0.00000  Uiso   1.00
C708   C     0.33797   0.86496   0.24646   0.00000  Uiso   1.00
C709   C     0.36496   0.83797   0.24646   0.00000  Uiso   1.00
C710   C     0.46909   0.73822   0.54186   0.00000  Uiso   1.00
C711   C     0.13504   0.66204   0.75355   0.00000  Uiso   1.00
C712   C     0.36396   0.60904   0.28529   0.00000  Uiso   1.00
C713   C     0.13605   0.89095   0.71468   0.00000  Uiso   1.00
C714   C     0.13504   0.66203   0.24646   0.00000  Uiso   1.00
C715   C     0.36496   0.83797   0.75355   0.00000  Uiso   1.00
C716   C     0.13604   0.89096   0.28529   0.00000  Uiso   1.00
C717   C     0.36395   0.60905   0.71468   0.00000  Uiso   1.00
C718   C     0.09808   0.84807   0.24999   0.00000  Uiso   1.00
C719   C     0.40193   0.65193   0.74999   0.00000  Uiso   1.00
C720   C     0.15192   0.59808   0.25000   0.00000  Uiso   1.00
H721   H     0.19513   0.97837   0.02680   0.00000  Uiso   1.00
H722   H     0.05597   0.73145   0.47327   0.00000  Uiso   1.00
H723   H     0.22837   0.94513   0.52680   0.00000  Uiso   1.00
H724   H     0.23145   0.55597   0.47327   0.00000  Uiso   1.00
H725   H     0.05487   0.77163   0.52680   0.00000  Uiso   1.00
H726   H     0.44403   0.76855   0.47327   0.00000  Uiso   1.00
H727   H     0.27163   0.55487   0.52680   0.00000  Uiso   1.00
H728   H     0.26856   0.94403   0.47327   0.00000  Uiso   1.00
H729   H     0.19489   0.97916   0.09731   0.00000  Uiso   1.00
H730   H     0.30618   0.98225   0.90279   0.00000  Uiso   1.00
H731   H     0.47916   0.69489   0.09731   0.00000  Uiso   1.00
H732   H     0.30597   0.98145   0.97327   0.00000  Uiso   1.00
H733   H     0.48225   0.80618   0.90279   0.00000  Uiso   1.00
H734   H     0.30511   0.52084   0.09731   0.00000  Uiso   1.00
H735   H     0.19382   0.51775   0.90279   0.00000  Uiso   1.00
H736   H     0.02084   0.80511   0.09731   0.00000  Uiso   1.00
H737   H     0.01775   0.69382   0.90279   0.00000  Uiso   1.00
H738   H     0.44489   0.72916   0.59731   0.00000  Uiso   1.00
H739   H     0.05618   0.73225   0.40279   0.00000  Uiso   1.00
H740   H     0.22916   0.94489   0.59731   0.00000  Uiso   1.00
H741   H     0.23225   0.55618   0.40279   0.00000  Uiso   1.00
H742   H     0.05511   0.77084   0.59731   0.00000  Uiso   1.00
H743   H     0.47837   0.69513   0.02680   0.00000  Uiso   1.00
H744   H     0.44382   0.76775   0.40279   0.00000  Uiso   1.00
H745   H     0.27084   0.55511   0.59731   0.00000  Uiso   1.00
H746   H     0.26775   0.94382   0.40279   0.00000  Uiso   1.00
H747   H     0.48145   0.80597   0.97327   0.00000  Uiso   1.00
H748   H     0.30487   0.52163   0.02680   0.00000  Uiso   1.00
H749   H     0.19403   0.51855   0.97327   0.00000  Uiso   1.00
H750   H     0.02163   0.80487   0.02680   0.00000  Uiso   1.00
H751   H     0.01855   0.69403   0.97327   0.00000  Uiso   1.00
H752   H     0.44513   0.72837   0.52680   0.00000  Uiso   1.00
N753   N     0.17208   0.90491   0.14974   0.00000  Uiso   1.00
N754   N     0.40335   0.98032   0.26257   0.00000  Uiso   1.00
N755   N     0.09516   0.82786   0.85022   0.00000  Uiso   1.00
N756   N     0.40491   0.67208   0.14974   0.00000  Uiso   1.00
N757   N     0.40335   0.98032   0.73745   0.00000  Uiso   1.00
N758   N     0.09665   0.51968   0.26257   0.00000  Uiso   1.00
N759   N     0.40484   0.67214   0.85022   0.00000  Uiso   1.00
N760   N     0.09509   0.82792   0.14974   0.00000  Uiso   1.00
N761   N     0.42208   0.65491   0.64974   0.00000  Uiso   1.00
N762   N     0.07787   0.84516   0.35022   0.00000  Uiso   1.00
N763   N     0.26968   0.84665   0.76257   0.00000  Uiso   1.00
N764   N     0.32786   0.59516   0.85022   0.00000  Uiso   1.00
N765   N     0.23032   0.65335   0.23745   0.00000  Uiso   1.00
N766   N     0.07792   0.84509   0.64974   0.00000  Uiso   1.00
N767   N     0.42214   0.65484   0.35022   0.00000  Uiso   1.00
N768   N     0.23032   0.65335   0.76257   0.00000  Uiso   1.00
N769   N     0.26968   0.84665   0.23745   0.00000  Uiso   1.00
N770   N     0.34665   0.76968   0.23745   0.00000  Uiso   1.00
N771   N     0.15335   0.73032   0.76257   0.00000  Uiso   1.00
N772   N     0.34516   0.57787   0.35022   0.00000  Uiso   1.00
N773   N     0.15491   0.92208   0.64974   0.00000  Uiso   1.00
N774   N     0.15335   0.73032   0.23745   0.00000  Uiso   1.00
N775   N     0.01968   0.59665   0.26257   0.00000  Uiso   1.00
N776   N     0.34665   0.76968   0.76257   0.00000  Uiso   1.00
N777   N     0.15484   0.92213   0.35022   0.00000  Uiso   1.00
N778   N     0.34509   0.57792   0.64974   0.00000  Uiso   1.00
N779   N     0.48032   0.90335   0.73745   0.00000  Uiso   1.00
N780   N     0.32792   0.59509   0.14974   0.00000  Uiso   1.00
N781   N     0.17214   0.90484   0.85022   0.00000  Uiso   1.00
N782   N     0.48032   0.90335   0.26257   0.00000  Uiso   1.00
N783   N     0.01968   0.59665   0.73745   0.00000  Uiso   1.00
N784   N     0.09665   0.51968   0.73745   0.00000  Uiso   1.00
O785   O     0.25000   0.50000   0.25000   0.00000  Uiso   1.00
O786   O     0.25000   0.96964   0.66317   0.00000  Uiso   1.00
O787   O     0.46964   0.75000   0.33683   0.00000  Uiso   1.00
O788   O     0.03036   0.75000   0.66317   0.00000  Uiso   1.00
O789   O     0.00000   0.71964   0.83683   0.00000  Uiso   1.00
O790   O     0.00000   0.78036   0.16317   0.00000  Uiso   1.00
O791   O     0.28036   0.50000   0.83683   0.00000  Uiso   1.00
O792   O     0.21964   0.50000   0.16317   0.00000  Uiso   1.00
O793   O     0.00000   0.78036   0.83683   0.00000  Uiso   1.00
O794   O     0.00000   0.71964   0.16317   0.00000  Uiso   1.00
O795   O     0.21964   0.50000   0.83683   0.00000  Uiso   1.00
O796   O     0.25000   0.50000   0.75000   0.00000  Uiso   1.00
O797   O     0.28036   0.50000   0.16317   0.00000  Uiso   1.00
O798   O     0.20726   0.57307   0.27282   0.00000  Uiso   1.00
O799   O     0.29275   0.92693   0.72718   0.00000  Uiso   1.00
O800   O     0.42693   0.70726   0.27282   0.00000  Uiso   1.00
O801   O     0.07307   0.79275   0.72718   0.00000  Uiso   1.00
O802   O     0.29275   0.92693   0.27282   0.00000  Uiso   1.00
O803   O     0.20726   0.57307   0.72718   0.00000  Uiso   1.00
O804   O     0.07307   0.79275   0.27282   0.00000  Uiso   1.00
O805   O     0.42693   0.70726   0.72718   0.00000  Uiso   1.00
O806   O     0.20726   0.92693   0.72718   0.00000  Uiso   1.00
O807   O     0.00000   0.75000   0.25000   0.00000  Uiso   1.00
O808   O     0.29275   0.57307   0.27282   0.00000  Uiso   1.00
O809   O     0.42693   0.79275   0.72718   0.00000  Uiso   1.00
O810   O     0.07307   0.70726   0.27282   0.00000  Uiso   1.00
O811   O     0.29275   0.57307   0.72718   0.00000  Uiso   1.00
O812   O     0.20726   0.92693   0.27282   0.00000  Uiso   1.00
O813   O     0.07307   0.70726   0.72718   0.00000  Uiso   1.00
O814   O     0.42693   0.79275   0.27282   0.00000  Uiso   1.00
O815   O     0.45726   0.82307   0.77282   0.00000  Uiso   1.00
O816   O     0.04275   0.67693   0.22718   0.00000  Uiso   1.00
O817   O     0.17693   0.95726   0.77282   0.00000  Uiso   1.00
O818   O     0.00000   0.75000   0.75000   0.00000  Uiso   1.00
O819   O     0.32307   0.54275   0.22718   0.00000  Uiso   1.00
O820   O     0.04275   0.67693   0.77282   0.00000  Uiso   1.00
O821   O     0.45726   0.82307   0.22718   0.00000  Uiso   1.00
O822   O     0.32307   0.54275   0.77282   0.00000  Uiso   1.00
O823   O     0.17693   0.95726   0.22718   0.00000  Uiso   1.00
O824   O     0.45726   0.67693   0.22718   0.00000  Uiso   1.00
O825   O     0.04275   0.82307   0.77282   0.00000  Uiso   1.00
O826   O     0.17693   0.54275   0.22718   0.00000  Uiso   1.00
O827   O     0.32307   0.95726   0.77282   0.00000  Uiso   1.00
O828   O     0.04275   0.82307   0.22718   0.00000  Uiso   1.00
O829   O     0.25000   0.96964   0.33683   0.00000  Uiso   1.00
O830   O     0.45726   0.67693   0.77282   0.00000  Uiso   1.00
O831   O     0.32307   0.95726   0.22718   0.00000  Uiso   1.00
O832   O     0.17693   0.54275   0.77282   0.00000  Uiso   1.00
O833   O     0.25000   0.53036   0.66317   0.00000  Uiso   1.00
O834   O     0.03036   0.75000   0.33683   0.00000  Uiso   1.00
O835   O     0.46964   0.75000   0.66317   0.00000  Uiso   1.00
O836   O     0.25000   0.53036   0.33683   0.00000  Uiso   1.00
Zn837  Zn    0.20660   0.50000   0.21760   0.00000  Uiso   1.00
Zn838  Zn    0.04340   0.75000   0.28240   0.00000  Uiso   1.00
Zn839  Zn    0.25000   0.95660   0.71760   0.00000  Uiso   1.00
Zn840  Zn    0.25000   0.54340   0.28240   0.00000  Uiso   1.00
Zn841  Zn    0.04340   0.75000   0.71760   0.00000  Uiso   1.00
Zn842  Zn    0.45660   0.75000   0.28240   0.00000  Uiso   1.00
Zn843  Zn    0.25000   0.54340   0.71760   0.00000  Uiso   1.00
Zn844  Zn    0.25000   0.95660   0.28240   0.00000  Uiso   1.00
Zn845  Zn    0.29340   0.50000   0.78240   0.00000  Uiso   1.00
Zn846  Zn    0.00000   0.70660   0.21760   0.00000  Uiso   1.00
Zn847  Zn    0.00000   0.79340   0.78240   0.00000  Uiso   1.00
Zn848  Zn    0.29340   0.50000   0.21760   0.00000  Uiso   1.00
Zn849  Zn    0.20660   0.50000   0.78240   0.00000  Uiso   1.00
Zn850  Zn    0.00000   0.79340   0.21760   0.00000  Uiso   1.00
Zn851  Zn    0.00000   0.70660   0.78240   0.00000  Uiso   1.00
Zn852  Zn    0.45660   0.75000   0.71760   0.00000  Uiso   1.00
C853   C     0.71909   0.98822   0.04186   0.00000  Uiso   1.00
C854   C     0.53151   0.73995   0.45822   0.00000  Uiso   1.00
C855   C     0.84808   0.90192   0.75000   0.00000  Uiso   1.00
C856   C     0.90193   0.65193   0.24999   0.00000  Uiso   1.00
C857   C     0.59807   0.84808   0.74999   0.00000  Uiso   1.00
C858   C     0.84808   0.90193   0.25000   0.00000  Uiso   1.00
C859   C     0.65193   0.59808   0.75000   0.00000  Uiso   1.00
C860   C     0.59808   0.65193   0.75000   0.00000  Uiso   1.00
C861   C     0.90193   0.84808   0.25000   0.00000  Uiso   1.00
C862   C     0.65193   0.90193   0.74999   0.00000  Uiso   1.00
C863   C     0.84807   0.59808   0.24999   0.00000  Uiso   1.00
C864   C     0.90192   0.84808   0.75000   0.00000  Uiso   1.00
C865   C     0.73822   0.96909   0.54186   0.00000  Uiso   1.00
C866   C     0.59808   0.65192   0.25000   0.00000  Uiso   1.00
C867   C     0.84808   0.59807   0.74999   0.00000  Uiso   1.00
C868   C     0.65193   0.90193   0.24999   0.00000  Uiso   1.00
C869   C     0.75000   0.50000   0.10247   0.00000  Uiso   1.00
C870   C     0.75000   0.50000   0.89758   0.00000  Uiso   1.00
C871   C     0.50000   0.75000   0.10247   0.00000  Uiso   1.00
C872   C     0.50000   0.75000   0.89758   0.00000  Uiso   1.00
C873   C     0.50000   0.75000   0.60247   0.00000  Uiso   1.00
C874   C     0.50000   0.75000   0.39758   0.00000  Uiso   1.00
C875   C     0.75000   0.50000   0.60247   0.00000  Uiso   1.00
C876   C     0.73995   0.53151   0.45822   0.00000  Uiso   1.00
C877   C     0.75000   0.50000   0.39758   0.00000  Uiso   1.00
C878   C     0.65827   0.89654   0.17853   0.00000  Uiso   1.00
C879   C     0.84169   0.60350   0.82143   0.00000  Uiso   1.00
C880   C     0.54996   0.60476   0.25857   0.00000  Uiso   1.00
C881   C     0.95004   0.89524   0.74145   0.00000  Uiso   1.00
C882   C     0.84173   0.60346   0.17853   0.00000  Uiso   1.00
C883   C     0.65831   0.89650   0.82143   0.00000  Uiso   1.00
C884   C     0.95004   0.89524   0.25857   0.00000  Uiso   1.00
C885   C     0.54996   0.60476   0.74145   0.00000  Uiso   1.00
C886   C     0.60476   0.54996   0.74145   0.00000  Uiso   1.00
C887   C     0.53091   0.76178   0.54186   0.00000  Uiso   1.00
C888   C     0.89524   0.95004   0.25857   0.00000  Uiso   1.00
C889   C     0.60350   0.84169   0.82143   0.00000  Uiso   1.00
C890   C     0.89654   0.65827   0.17853   0.00000  Uiso   1.00
C891   C     0.89524   0.95004   0.74145   0.00000  Uiso   1.00
C892   C     0.60476   0.54996   0.25857   0.00000  Uiso   1.00
C893   C     0.89650   0.65831   0.82143   0.00000  Uiso   1.00
C894   C     0.60346   0.84173   0.17853   0.00000  Uiso   1.00
C895   C     0.90827   0.64654   0.67853   0.00000  Uiso   1.00
C896   C     0.59169   0.85350   0.32143   0.00000  Uiso   1.00
C897   C     0.79996   0.85476   0.75857   0.00000  Uiso   1.00
C898   C     0.96849   0.76005   0.45822   0.00000  Uiso   1.00
C899   C     0.70004   0.64524   0.24145   0.00000  Uiso   1.00
C900   C     0.59173   0.85346   0.67853   0.00000  Uiso   1.00
C901   C     0.90831   0.64650   0.32143   0.00000  Uiso   1.00
C902   C     0.70004   0.64524   0.75857   0.00000  Uiso   1.00
C903   C     0.79996   0.85476   0.24145   0.00000  Uiso   1.00
C904   C     0.85476   0.79996   0.24145   0.00000  Uiso   1.00
C905   C     0.64524   0.70004   0.75857   0.00000  Uiso   1.00
C906   C     0.85350   0.59169   0.32143   0.00000  Uiso   1.00
C907   C     0.64654   0.90827   0.67853   0.00000  Uiso   1.00
C908   C     0.64524   0.70004   0.24145   0.00000  Uiso   1.00
C909   C     0.76178   0.53091   0.54186   0.00000  Uiso   1.00
C910   C     0.85476   0.79996   0.75857   0.00000  Uiso   1.00
C911   C     0.64650   0.90831   0.32143   0.00000  Uiso   1.00
C912   C     0.85346   0.59173   0.67853   0.00000  Uiso   1.00
C913   C     0.76005   0.96849   0.45822   0.00000  Uiso   1.00
C914   C     0.71900   0.98848   0.08212   0.00000  Uiso   1.00
C915   C     0.78158   0.99020   0.91796   0.00000  Uiso   1.00
C916   C     0.98848   0.71900   0.08212   0.00000  Uiso   1.00
C917   C     0.78151   0.98995   0.95822   0.00000  Uiso   1.00
C918   C     0.99020   0.78158   0.91796   0.00000  Uiso   1.00
C919   C     0.78100   0.51152   0.08212   0.00000  Uiso   1.00
C920   C     0.71842   0.50980   0.91796   0.00000  Uiso   1.00
C921   C     0.51152   0.78100   0.08212   0.00000  Uiso   1.00
C922   C     0.50980   0.71842   0.91796   0.00000  Uiso   1.00
C923   C     0.96900   0.73848   0.58212   0.00000  Uiso   1.00
C924   C     0.53158   0.74020   0.41796   0.00000  Uiso   1.00
C925   C     0.73848   0.96900   0.58212   0.00000  Uiso   1.00
C926   C     0.74020   0.53158   0.41796   0.00000  Uiso   1.00
C927   C     0.53100   0.76152   0.58212   0.00000  Uiso   1.00
C928   C     0.98822   0.71909   0.04186   0.00000  Uiso   1.00
C929   C     0.96842   0.75980   0.41796   0.00000  Uiso   1.00
C930   C     0.76152   0.53100   0.58212   0.00000  Uiso   1.00
C931   C     0.75980   0.96842   0.41796   0.00000  Uiso   1.00
C932   C     0.75000   0.50000   0.02136   0.00000  Uiso   1.00
C933   C     0.75000   0.50000   0.97872   0.00000  Uiso   1.00
C934   C     0.50000   0.75000   0.02136   0.00000  Uiso   1.00
C935   C     0.50000   0.75000   0.97872   0.00000  Uiso   1.00
C936   C     0.50000   0.75000   0.52136   0.00000  Uiso   1.00
C937   C     0.50000   0.75000   0.47872   0.00000  Uiso   1.00
C938   C     0.75000   0.50000   0.52136   0.00000  Uiso   1.00
C939   C     0.98995   0.78151   0.95822   0.00000  Uiso   1.00
C940   C     0.75000   0.50000   0.47872   0.00000  Uiso   1.00
C941   C     0.75000   0.50000   0.35522   0.00000  Uiso   1.00
C942   C     0.75000   0.50000   0.64480   0.00000  Uiso   1.00
C943   C     0.50000   0.75000   0.35522   0.00000  Uiso   1.00
C944   C     0.50000   0.75000   0.64480   0.00000  Uiso   1.00
C945   C     0.50000   0.75000   0.85522   0.00000  Uiso   1.00
C946   C     0.50000   0.75000   0.14480   0.00000  Uiso   1.00
C947   C     0.75000   0.50000   0.85522   0.00000  Uiso   1.00
C948   C     0.75000   0.50000   0.14480   0.00000  Uiso   1.00
C949   C     0.68002   0.56998   0.25000   0.00000  Uiso   1.00
C950   C     0.78091   0.51178   0.04186   0.00000  Uiso   1.00
C951   C     0.81998   0.93002   0.75000   0.00000  Uiso   1.00
C952   C     0.93002   0.68003   0.24999   0.00000  Uiso   1.00
C953   C     0.56997   0.81998   0.74999   0.00000  Uiso   1.00
C954   C     0.81998   0.93002   0.25000   0.00000  Uiso   1.00
C955   C     0.68002   0.56998   0.75000   0.00000  Uiso   1.00
C956   C     0.56998   0.81997   0.24999   0.00000  Uiso   1.00
C957   C     0.93003   0.68002   0.74999   0.00000  Uiso   1.00
C958   C     0.68002   0.93003   0.74999   0.00000  Uiso   1.00
C959   C     0.81997   0.56998   0.24999   0.00000  Uiso   1.00
C960   C     0.93002   0.81998   0.75000   0.00000  Uiso   1.00
C961   C     0.71849   0.51005   0.95822   0.00000  Uiso   1.00
C962   C     0.56998   0.68002   0.25000   0.00000  Uiso   1.00
C963   C     0.81998   0.56997   0.74999   0.00000  Uiso   1.00
C964   C     0.68003   0.93002   0.24999   0.00000  Uiso   1.00
C965   C     0.56998   0.68002   0.75000   0.00000  Uiso   1.00
C966   C     0.93002   0.81998   0.25000   0.00000  Uiso   1.00
C967   C     0.64095   0.88605   0.21468   0.00000  Uiso   1.00
C968   C     0.85904   0.61396   0.78529   0.00000  Uiso   1.00
C969   C     0.58797   0.61496   0.25355   0.00000  Uiso   1.00
C970   C     0.91203   0.88504   0.74646   0.00000  Uiso   1.00
C971   C     0.85905   0.61395   0.21468   0.00000  Uiso   1.00
C972   C     0.51178   0.78091   0.04186   0.00000  Uiso   1.00
C973   C     0.64096   0.88604   0.78529   0.00000  Uiso   1.00
C974   C     0.91204   0.88504   0.25355   0.00000  Uiso   1.00
C975   C     0.58797   0.61496   0.74646   0.00000  Uiso   1.00
C976   C     0.61496   0.58797   0.74646   0.00000  Uiso   1.00
C977   C     0.88504   0.91204   0.25355   0.00000  Uiso   1.00
C978   C     0.61396   0.85904   0.78529   0.00000  Uiso   1.00
C979   C     0.88605   0.64095   0.21468   0.00000  Uiso   1.00
C980   C     0.88504   0.91203   0.74646   0.00000  Uiso   1.00
C981   C     0.61496   0.58796   0.25355   0.00000  Uiso   1.00
C982   C     0.88604   0.64096   0.78529   0.00000  Uiso   1.00
C983   C     0.51005   0.71849   0.95822   0.00000  Uiso   1.00
C984   C     0.61395   0.85905   0.21468   0.00000  Uiso   1.00
C985   C     0.89095   0.63605   0.71468   0.00000  Uiso   1.00
C986   C     0.60904   0.86396   0.28529   0.00000  Uiso   1.00
C987   C     0.83797   0.86496   0.75355   0.00000  Uiso   1.00
C988   C     0.66203   0.63504   0.24646   0.00000  Uiso   1.00
C989   C     0.60905   0.86395   0.71468   0.00000  Uiso   1.00
C990   C     0.89096   0.63604   0.28529   0.00000  Uiso   1.00
C991   C     0.66204   0.63504   0.75355   0.00000  Uiso   1.00
C992   C     0.83797   0.86496   0.24646   0.00000  Uiso   1.00
C993   C     0.86496   0.83797   0.24646   0.00000  Uiso   1.00
C994   C     0.96909   0.73822   0.54186   0.00000  Uiso   1.00
C995   C     0.63504   0.66204   0.75355   0.00000  Uiso   1.00
C996   C     0.86396   0.60904   0.28529   0.00000  Uiso   1.00
C997   C     0.63605   0.89095   0.71468   0.00000  Uiso   1.00
C998   C     0.63504   0.66203   0.24646   0.00000  Uiso   1.00
C999   C     0.86496   0.83797   0.75355   0.00000  Uiso   1.00
C1000  C     0.63604   0.89096   0.28529   0.00000  Uiso   1.00
C1001  C     0.86395   0.60905   0.71468   0.00000  Uiso   1.00
C1002  C     0.59808   0.84807   0.24999   0.00000  Uiso   1.00
C1003  C     0.90193   0.65193   0.74999   0.00000  Uiso   1.00
C1004  C     0.65192   0.59808   0.25000   0.00000  Uiso   1.00
H1005  H     0.69513   0.97837   0.02680   0.00000  Uiso   1.00
H1006  H     0.55597   0.73145   0.47327   0.00000  Uiso   1.00
H1007  H     0.72837   0.94513   0.52680   0.00000  Uiso   1.00
H1008  H     0.73145   0.55597   0.47327   0.00000  Uiso   1.00
H1009  H     0.55487   0.77163   0.52680   0.00000  Uiso   1.00
H1010  H     0.94403   0.76855   0.47327   0.00000  Uiso   1.00
H1011  H     0.77163   0.55487   0.52680   0.00000  Uiso   1.00
H1012  H     0.76856   0.94403   0.47327   0.00000  Uiso   1.00
H1013  H     0.69489   0.97916   0.09731   0.00000  Uiso   1.00
H1014  H     0.80618   0.98225   0.90279   0.00000  Uiso   1.00
H1015  H     0.97916   0.69489   0.09731   0.00000  Uiso   1.00
H1016  H     0.80597   0.98145   0.97327   0.00000  Uiso   1.00
H1017  H     0.98225   0.80618   0.90279   0.00000  Uiso   1.00
H1018  H     0.80511   0.52084   0.09731   0.00000  Uiso   1.00
H1019  H     0.69382   0.51775   0.90279   0.00000  Uiso   1.00
H1020  H     0.52084   0.80511   0.09731   0.00000  Uiso   1.00
H1021  H     0.51775   0.69382   0.90279   0.00000  Uiso   1.00
H1022  H     0.94489   0.72916   0.59731   0.00000  Uiso   1.00
H1023  H     0.55618   0.73225   0.40279   0.00000  Uiso   1.00
H1024  H     0.72916   0.94489   0.59731   0.00000  Uiso   1.00
H1025  H     0.73225   0.55618   0.40279   0.00000  Uiso   1.00
H1026  H     0.55511   0.77084   0.59731   0.00000  Uiso   1.00
H1027  H     0.97837   0.69513   0.02680   0.00000  Uiso   1.00
H1028  H     0.94382   0.76775   0.40279   0.00000  Uiso   1.00
H1029  H     0.77084   0.55511   0.59731   0.00000  Uiso   1.00
H1030  H     0.76775   0.94382   0.40279   0.00000  Uiso   1.00
H1031  H     0.98145   0.80597   0.97327   0.00000  Uiso   1.00
H1032  H     0.80487   0.52163   0.02680   0.00000  Uiso   1.00
H1033  H     0.69403   0.51855   0.97327   0.00000  Uiso   1.00
H1034  H     0.52163   0.80487   0.02680   0.00000  Uiso   1.00
H1035  H     0.51855   0.69403   0.97327   0.00000  Uiso   1.00
H1036  H     0.94513   0.72837   0.52680   0.00000  Uiso   1.00
N1037  N     0.67208   0.90491   0.14974   0.00000  Uiso   1.00
N1038  N     0.90335   0.98032   0.26257   0.00000  Uiso   1.00
N1039  N     0.59516   0.82786   0.85022   0.00000  Uiso   1.00
N1040  N     0.90491   0.67208   0.14974   0.00000  Uiso   1.00
N1041  N     0.90335   0.98032   0.73745   0.00000  Uiso   1.00
N1042  N     0.59665   0.51968   0.26257   0.00000  Uiso   1.00
N1043  N     0.90484   0.67214   0.85022   0.00000  Uiso   1.00
N1044  N     0.59509   0.82792   0.14974   0.00000  Uiso   1.00
N1045  N     0.92208   0.65491   0.64974   0.00000  Uiso   1.00
N1046  N     0.57787   0.84516   0.35022   0.00000  Uiso   1.00
N1047  N     0.76968   0.84665   0.76257   0.00000  Uiso   1.00
N1048  N     0.82786   0.59516   0.85022   0.00000  Uiso   1.00
N1049  N     0.73032   0.65335   0.23745   0.00000  Uiso   1.00
N1050  N     0.57792   0.84509   0.64974   0.00000  Uiso   1.00
N1051  N     0.92214   0.65484   0.35022   0.00000  Uiso   1.00
N1052  N     0.73032   0.65335   0.76257   0.00000  Uiso   1.00
N1053  N     0.76968   0.84665   0.23745   0.00000  Uiso   1.00
N1054  N     0.84665   0.76968   0.23745   0.00000  Uiso   1.00
N1055  N     0.65335   0.73032   0.76257   0.00000  Uiso   1.00
N1056  N     0.84516   0.57787   0.35022   0.00000  Uiso   1.00
N1057  N     0.65491   0.92208   0.64974   0.00000  Uiso   1.00
N1058  N     0.65335   0.73032   0.23745   0.00000  Uiso   1.00
N1059  N     0.51968   0.59665   0.26257   0.00000  Uiso   1.00
N1060  N     0.84665   0.76968   0.76257   0.00000  Uiso   1.00
N1061  N     0.65484   0.92213   0.35022   0.00000  Uiso   1.00
N1062  N     0.84509   0.57792   0.64974   0.00000  Uiso   1.00
N1063  N     0.98032   0.90335   0.73745   0.00000  Uiso   1.00
N1064  N     0.82792   0.59509   0.14974   0.00000  Uiso   1.00
N1065  N     0.67214   0.90484   0.85022   0.00000  Uiso   1.00
N1066  N     0.98032   0.90335   0.26257   0.00000  Uiso   1.00
N1067  N     0.51968   0.59665   0.73745   0.00000  Uiso   1.00
N1068  N     0.59665   0.51968   0.73745   0.00000  Uiso   1.00
O1069  O     0.75000   0.50000   0.25000   0.00000  Uiso   1.00
O1070  O     0.75000   0.96964   0.66317   0.00000  Uiso   1.00
O1071  O     0.96964   0.75000   0.33683   0.00000  Uiso   1.00
O1072  O     0.53036   0.75000   0.66317   0.00000  Uiso   1.00
O1073  O     0.50000   0.71964   0.83683   0.00000  Uiso   1.00
O1074  O     0.50000   0.78036   0.16317   0.00000  Uiso   1.00
O1075  O     0.78036   0.50000   0.83683   0.00000  Uiso   1.00
O1076  O     0.71964   0.50000   0.16317   0.00000  Uiso   1.00
O1077  O     0.50000   0.78036   0.83683   0.00000  Uiso   1.00
O1078  O     0.50000   0.71964   0.16317   0.00000  Uiso   1.00
O1079  O     0.71964   0.50000   0.83683   0.00000  Uiso   1.00
O1080  O     0.75000   0.50000   0.75000   0.00000  Uiso   1.00
O1081  O     0.78036   0.50000   0.16317   0.00000  Uiso   1.00
O1082  O     0.70726   0.57307   0.27282   0.00000  Uiso   1.00
O1083  O     0.79275   0.92693   0.72718   0.00000  Uiso   1.00
O1084  O     0.92693   0.70726   0.27282   0.00000  Uiso   1.00
O1085  O     0.57307   0.79275   0.72718   0.00000  Uiso   1.00
O1086  O     0.79275   0.92693   0.27282   0.00000  Uiso   1.00
O1087  O     0.70726   0.57307   0.72718   0.00000  Uiso   1.00
O1088  O     0.57307   0.79275   0.27282   0.00000  Uiso   1.00
O1089  O     0.92693   0.70726   0.72718   0.00000  Uiso   1.00
O1090  O     0.70726   0.92693   0.72718   0.00000  Uiso   1.00
O1091  O     0.50000   0.75000   0.25000   0.00000  Uiso   1.00
O1092  O     0.79275   0.57307   0.27282   0.00000  Uiso   1.00
O1093  O     0.92693   0.79275   0.72718   0.00000  Uiso   1.00
O1094  O     0.57307   0.70726   0.27282   0.00000  Uiso   1.00
O1095  O     0.79275   0.57307   0.72718   0.00000  Uiso   1.00
O1096  O     0.70726   0.92693   0.27282   0.00000  Uiso   1.00
O1097  O     0.57307   0.70726   0.72718   0.00000  Uiso   1.00
O1098  O     0.92693   0.79275   0.27282   0.00000  Uiso   1.00
O1099  O     0.95726   0.82307   0.77282   0.00000  Uiso   1.00
O1100  O     0.54275   0.67693   0.22718   0.00000  Uiso   1.00
O1101  O     0.67693   0.95726   0.77282   0.00000  Uiso   1.00
O1102  O     0.50000   0.75000   0.75000   0.00000  Uiso   1.00
O1103  O     0.82307   0.54275   0.22718   0.00000  Uiso   1.00
O1104  O     0.54275   0.67693   0.77282   0.00000  Uiso   1.00
O1105  O     0.95726   0.82307   0.22718   0.00000  Uiso   1.00
O1106  O     0.82307   0.54275   0.77282   0.00000  Uiso   1.00
O1107  O     0.67693   0.95726   0.22718   0.00000  Uiso   1.00
O1108  O     0.95726   0.67693   0.22718   0.00000  Uiso   1.00
O1109  O     0.54275   0.82307   0.77282   0.00000  Uiso   1.00
O1110  O     0.67693   0.54275   0.22718   0.00000  Uiso   1.00
O1111  O     0.82307   0.95726   0.77282   0.00000  Uiso   1.00
O1112  O     0.54275   0.82307   0.22718   0.00000  Uiso   1.00
O1113  O     0.75000   0.96964   0.33683   0.00000  Uiso   1.00
O1114  O     0.95726   0.67693   0.77282   0.00000  Uiso   1.00
O1115  O     0.82307   0.95726   0.22718   0.00000  Uiso   1.00
O1116  O     0.67693   0.54275   0.77282   0.00000  Uiso   1.00
O1117  O     0.75000   0.53036   0.66317   0.00000  Uiso   1.00
O1118  O     0.53036   0.75000   0.33683   0.00000  Uiso   1.00
O1119  O     0.96964   0.75000   0.66317   0.00000  Uiso   1.00
O1120  O     0.75000   0.53036   0.33683   0.00000  Uiso   1.00
Zn1121 Zn    0.70660   0.50000   0.21760   0.00000  Uiso   1.00
Zn1122 Zn    0.54340   0.75000   0.28240   0.00000  Uiso   1.00
Zn1123 Zn    0.75000   0.95660   0.71760   0.00000  Uiso   1.00
Zn1124 Zn    0.75000   0.54340   0.28240   0.00000  Uiso   1.00
Zn1125 Zn    0.54340   0.75000   0.71760   0.00000  Uiso   1.00
Zn1126 Zn    0.95660   0.75000   0.28240   0.00000  Uiso   1.00
Zn1127 Zn    0.75000   0.54340   0.71760   0.00000  Uiso   1.00
Zn1128 Zn    0.75000   0.95660   0.28240   0.00000  Uiso   1.00
Zn1129 Zn    0.79340   0.50000   0.78240   0.00000  Uiso   1.00
Zn1130 Zn    0.50000   0.70660   0.21760   0.00000  Uiso   1.00
Zn1131 Zn    0.50000   0.79340   0.78240   0.00000  Uiso   1.00
Zn1132 Zn    0.79340   0.50000   0.21760   0.00000  Uiso   1.00
Zn1133 Zn    0.70660   0.50000   0.78240   0.00000  Uiso   1.00
Zn1134 Zn    0.50000   0.79340   0.21760   0.00000  Uiso   1.00
Zn1135 Zn    0.50000   0.70660   0.78240   0.00000  Uiso   1.00
Zn1136 Zn    0.95660   0.75000   0.71760   0.00000  Uiso   1.00
loop_
_geom_bond_atom_site_label_1
_geom_bond_atom_site_label_2
_geom_bond_distance
_geom_bond_site_symmetry_2
_ccdc_geom_bond_type
C1     C62     1.391   .     A
C1     H153    1.083   .     S
C1     C648    1.404   .     S
C2     H154    1.083   .     S
C2     C72     1.391   .     A
C2     C85     1.404   .     S
C3     C135    1.410   .     A
C3     C128    1.410   .     A
C3     C99     1.457   .     S
C4     C127    1.410   .     A
C4     C138    1.410   .     A
C4     C100    1.457   .     S
C5     C126    1.410   .     A
C5     C101    1.457   .     S
C5     C137    1.410   .     A
C6     C140    1.410   .     A
C6     C125    1.410   .     A
C6     C102    1.457   .     S
C7     C124    1.410   .     A
C7     C103    1.457   .     S
C7     C139    1.410   .     A
C8     C113    1.457   .     S
C8     C123    1.410   .     A
C8     C143    1.410   .     A
C9     C114    1.457   .     S
C9     C141    1.410   .     A
C9     C122    1.410   .     A
C10    C121    1.410   .     A
C10    C145    1.410   .     A
C10    C106    1.457   .     S
C11    C119    1.410   .     A
C11    C144    1.410   .     A
C11    C107    1.457   .     S
C12    C108    1.457   .     S
C12    C118    1.410   .     A
C12    C147    1.410   .     A
C13    H155    1.083   .     S
C13    C73     1.391   .     A
C13    C654    1.404   .     S
C14    C117    1.410   .     A
C14    C110    1.457   .     S
C14    C146    1.410   .     A
C15    C111    1.457   .     S
C15    C149    1.410   .     A
C15    C116    1.410   .     A
C16    C112    1.457   .     S
C16    C115    1.410   .     A
C16    C148    1.410   .     A
C17    C67     1.402   .     A
C17    C96     1.463   .     S
C17    C630    1.402   1_545 S
C18    C95     1.464   .     S
C18    C68     1.402   .     A
C18    C631    1.402   1_545 S
C19    C348    1.402   1_455 A
C19    C94     1.463   .     S
C19    C69     1.402   .     S
C20    C70     1.402   .     A
C20    C93     1.464   .     S
C20    C350    1.402   1_455 S
C21    C75     1.402   .     A
C21    C92     1.463   .     S
C21    C355    1.402   1_455 S
C22    C91     1.464   .     S
C22    C361    1.402   1_455 A
C22    C72     1.402   .     S
C23    C78     1.402   .     A
C23    C90     1.463   .     S
C23    C641    1.402   1_545 S
C24    C88     1.404   .     A
C24    C74     1.391   .     A
C24    H156    1.083   .     S
C25    C74     1.402   .     A
C25    C89     1.464   .     S
C25    C647    1.402   1_545 S
C26    C115    1.453   .     S
C26    N185    1.157   .     T
C27    C116    1.453   .     S
C27    N196    1.157   .     T
C28    C117    1.453   .     S
C28    N207    1.157   .     T
C29    N211    1.157   .     T
C29    C118    1.453   .     S
C30    N212    1.157   .     T
C30    C119    1.453   .     S
C31    C121    1.453   .     S
C31    N213    1.157   .     T
C32    N214    1.157   .     T
C32    C122    1.453   .     S
C33    N215    1.157   .     T
C33    C123    1.453   .     S
C34    C124    1.453   .     S
C34    N216    1.157   .     T
C35    C75     1.391   .     A
C35    H157    1.083   .     S
C35    C84     1.404   .     A
C36    C125    1.453   .     S
C36    N186    1.157   .     T
C37    C126    1.453   .     S
C37    N187    1.157   .     T
C38    C127    1.453   .     S
C38    N188    1.157   .     T
C39    N189    1.157   .     T
C39    C128    1.453   .     S
C40    C129    1.453   .     S
C40    N190    1.157   .     T
C41    C130    1.453   .     S
C41    N191    1.157   .     T
C42    C132    1.453   .     S
C42    N192    1.157   .     T
C43    C133    1.453   .     S
C43    N193    1.157   .     T
C44    C134    1.453   .     S
C44    N194    1.157   .     T
C45    N195    1.157   .     T
C45    C135    1.453   .     S
C46    H158    1.083   .     S
C46    C369    1.404   .     A
C46    C77     1.391   .     A
C47    C136    1.453   .     S
C47    N197    1.157   .     T
C48    C137    1.453   .     S
C48    N198    1.157   .     T
C49    C138    1.453   .     S
C49    N199    1.157   .     T
C50    C139    1.453   .     S
C50    N200    1.157   .     T
C51    N201    1.157   .     T
C51    C140    1.453   .     S
C52    N202    1.157   .     T
C52    C141    1.453   .     S
C53    N203    1.157   .     T
C53    C143    1.453   .     S
C54    C144    1.453   .     S
C54    N204    1.157   .     T
C55    C145    1.453   .     S
C55    N205    1.157   .     T
C56    C146    1.453   .     S
C56    N206    1.157   .     T
C57    C86     1.404   .     A
C57    H159    1.083   .     S
C57    C78     1.391   .     A
C58    N208    1.157   .     T
C58    C147    1.453   .     S
C59    N209    1.157   .     T
C59    C148    1.453   .     S
C60    C149    1.453   .     S
C60    N210    1.157   .     T
C61    H160    1.083   .     S
C61    C79     1.391   .     A
C61    C656    1.404   .     S
C62    H161    1.083   .     S
C62    C585    1.402   .     S
C63    H162    1.083   .     S
C63    C65     1.391   .     A
C63    C586    1.402   .     S
C64    H163    1.083   .     S
C64    C303    1.402   .     A
C64    C76     1.391   .     A
C65    H164    1.083   .     S
C65    C649    1.404   .     S
C66    C87     1.391   .     A
C66    H165    1.083   .     S
C66    C304    1.402   .     S
C67    C98     1.391   .     A
C67    H166    1.083   .     S
C68    C109    1.391   .     A
C68    H167    1.083   .     S
C69    C120    1.391   .     A
C69    H168    1.083   .     S
C70    H169    1.083   .     S
C70    C131    1.391   .     A
C71    C142    1.391   .     A
C71    H170    1.083   .     S
C71    C305    1.402   .     S
C72    H171    1.083   .     S
C73    H172    1.083   .     S
C73    C591    1.402   .     S
C74    H173    1.083   .     S
C75    H174    1.083   .     S
C76    C366    1.404   .     A
C76    H175    1.083   .     S
C77    H176    1.083   .     S
C77    C306    1.402   .     A
C78    H177    1.083   .     S
C79    H178    1.083   .     S
C79    C593    1.402   .     S
C80    C98     1.404   .     A
C80    C569    1.404   1_545 S
C80    C81     1.473   1_554 S
C81    C109    1.404   .     A
C81    C80     1.473   1_556 S
C81    C633    1.404   1_545 S
C82    C360    1.404   1_455 A
C82    C83     1.473   1_554 S
C82    C120    1.404   .     S
C83    C371    1.404   1_455 A
C83    C82     1.473   1_556 S
C83    C131    1.404   .     S
C84    C85     1.473   .     S
C84    C426    1.404   1_455 S
C85    C330    1.404   1_455 A
C86    C88     1.473   .     S
C86    C581    1.404   1_545 S
C87    C367    1.404   .     A
C87    H179    1.083   .     S
C88    C629    1.404   1_545 S
C89    O268    1.282   .     A
C89    O829    1.282   1_545 S
C90    O265    1.281   .     A
C90    O786    1.281   1_545 S
C91    O503    1.282   1_455 A
C91    O266    1.282   .     S
C92    O220    1.281   .     A
C92    O551    1.281   1_455 S
C93    O225    1.282   .     A
C93    O221    1.282   .     S
C94    O226    1.281   .     A
C94    O222    1.281   .     S
C95    O223    1.282   .     A
C95    O227    1.282   .     A
C96    O224    1.281   .     A
C96    O229    1.281   .     A
C97    O258    1.277   .     A
C97    C152    1.457   .     S
C97    O230    1.277   .     A
C98    H180    1.083   .     S
C99    O259    1.277   .     A
C99    O231    1.277   .     A
C100   O232    1.277   .     A
C100   O256    1.277   .     A
C101   O233    1.277   .     A
C101   O257    1.277   .     A
C102   O234    1.277   .     A
C102   O263    1.277   .     A
C103   O264    1.277   .     A
C103   O235    1.277   .     A
C104   O236    1.277   .     A
C104   O260    1.277   .     A
C104   C150    1.457   .     S
C105   O262    1.277   .     A
C105   C151    1.457   .     S
C105   O237    1.277   .     A
C106   O249    1.277   .     A
C106   O238    1.277   .     A
C107   O251    1.277   .     A
C107   O240    1.277   .     A
C108   O247    1.277   .     A
C108   O241    1.277   .     A
C109   H181    1.083   .     S
C110   O242    1.277   .     A
C110   O248    1.277   .     A
C111   O254    1.277   .     A
C111   O243    1.277   .     A
C112   O255    1.277   .     A
C112   O244    1.277   .     A
C113   O252    1.277   .     A
C113   O245    1.277   .     A
C114   O246    1.277   .     A
C114   O253    1.277   .     A
C115   C132    1.400   .     A
C116   C130    1.400   .     A
C117   C129    1.400   .     A
C118   C128    1.400   .     A
C119   C127    1.400   .     A
C120   H182    1.083   .     S
C121   C126    1.400   .     A
C122   C125    1.400   .     A
C123   C124    1.400   .     A
C129   C152    1.410   .     A
C130   C151    1.410   .     A
C131   H183    1.083   .     S
C132   C150    1.410   .     A
C133   C151    1.410   .     A
C133   C149    1.400   .     A
C134   C148    1.400   .     A
C134   C150    1.410   .     A
C135   C147    1.400   .     A
C136   C152    1.410   .     A
C136   C146    1.400   .     A
C137   C145    1.400   .     A
C138   C144    1.400   .     A
C139   C143    1.400   .     A
C140   C141    1.400   .     A
C142   H184    1.083   .     S
C142   C368    1.404   .     S
O217   Zn280   1.946   .     S
O217   Zn272   1.946   .     S
O217   Zn269   1.946   .     S
O217   Zn844   1.946   1_545 S
O218   Zn271   1.941   .     S
O218   C658    1.281   .     S
O219   C375    1.282   .     A
O219   Zn274   1.941   .     S
O220   Zn273   1.941   .     S
O221   Zn283   1.941   .     S
O222   Zn282   1.941   .     S
O223   Zn277   1.941   .     S
O224   Zn269   1.941   .     S
O225   Zn279   1.941   .     S
O226   Zn278   1.941   .     S
O227   Zn281   1.941   .     S
O228   Zn281   1.946   .     S
O228   Zn275   1.946   .     S
O228   Zn277   1.946   .     S
O228   Zn839   1.946   1_545 S
O229   Zn280   1.941   .     S
O230   Zn272   1.936   .     S
O231   Zn271   1.936   .     S
O232   Zn274   1.936   .     S
O233   Zn273   1.936   .     S
O234   Zn276   1.936   .     S
O235   Zn275   1.936   .     S
O236   Zn270   1.936   .     S
O237   Zn284   1.936   .     S
O238   Zn271   1.936   .     S
O239   Zn282   1.946   .     S
O239   Zn558   1.946   1_455 S
O239   Zn270   1.946   .     S
O239   Zn278   1.946   .     S
O240   Zn272   1.936   .     S
O241   Zn284   1.936   .     S
O242   Zn270   1.936   .     S
O243   Zn275   1.936   .     S
O244   Zn276   1.936   .     S
O245   Zn273   1.936   .     S
O246   Zn274   1.936   .     S
O247   Zn563   1.936   .     S
O248   Zn278   1.936   .     S
O249   Zn849   1.936   .     S
O250   Zn283   1.946   .     S
O250   Zn273   1.946   .     S
O250   Zn279   1.946   .     S
O250   Zn568   1.946   1_455 S
O251   Zn280   1.936   .     S
O252   Zn283   1.936   .     S
O253   Zn566   1.936   .     S
O254   Zn277   1.936   .     S
O255   Zn837   1.936   .     S
O256   Zn562   1.936   .     S
O257   Zn279   1.936   .     S
O258   Zn269   1.936   .     S
O259   Zn845   1.936   .     S
O260   Zn282   1.936   .     S
O261   Zn276   1.941   .     S
O261   C657    1.282   .     S
O262   Zn567   1.936   .     S
O263   Zn848   1.936   .     S
O264   Zn281   1.936   .     S
O265   Zn275   1.941   .     S
O266   Zn270   1.941   .     S
O267   Zn284   1.941   .     S
O267   C376    1.281   .     S
O268   Zn272   1.941   .     S
Zn269  O823    1.936   1_545 S
Zn271  O796    1.946   .     S
Zn274  O523    1.946   .     S
Zn276  O785    1.946   .     S
Zn277  O827    1.936   1_545 S
Zn278  O540    1.936   1_455 S
Zn279  O531    1.936   1_455 S
Zn280  O831    1.936   1_545 S
Zn281  O817    1.936   1_545 S
Zn282  O537    1.936   1_455 S
Zn283  O546    1.936   1_455 S
Zn284  O534    1.946   .     S
C285   C346    1.391   .     A
C285   H437    1.083   .     S
C285   C932    1.404   .     S
C286   H438    1.083   .     S
C286   C356    1.391   .     A
C286   C369    1.404   .     S
C287   C419    1.410   .     A
C287   C412    1.410   .     A
C287   C383    1.457   .     S
C288   C411    1.410   .     A
C288   C422    1.410   .     A
C288   C384    1.457   .     S
C289   C410    1.410   .     A
C289   C385    1.457   .     S
C289   C421    1.410   .     A
C290   C424    1.410   .     A
C290   C409    1.410   .     A
C290   C386    1.457   .     S
C291   C408    1.410   .     A
C291   C387    1.457   .     S
C291   C423    1.410   .     A
C292   C397    1.457   .     S
C292   C407    1.410   .     A
C292   C427    1.410   .     A
C293   C398    1.457   .     S
C293   C425    1.410   .     A
C293   C406    1.410   .     A
C294   C405    1.410   .     A
C294   C429    1.410   .     A
C294   C390    1.457   .     S
C295   C403    1.410   .     A
C295   C428    1.410   .     A
C295   C391    1.457   .     S
C296   C392    1.457   .     S
C296   C402    1.410   .     A
C296   C431    1.410   .     A
C297   H439    1.083   .     S
C297   C357    1.391   .     A
C297   C938    1.404   .     S
C298   C401    1.410   .     A
C298   C394    1.457   .     S
C298   C430    1.410   .     A
C299   C395    1.457   .     S
C299   C433    1.410   .     A
C299   C400    1.410   .     A
C300   C396    1.457   .     S
C300   C399    1.410   .     A
C300   C432    1.410   .     A
C301   C351    1.402   .     A
C301   C380    1.463   .     S
C301   C914    1.402   1_545 S
C302   C379    1.464   .     S
C302   C352    1.402   .     A
C302   C915    1.402   1_545 S
C303   C378    1.463   .     S
C303   C353    1.402   .     S
C304   C354    1.402   .     A
C304   C377    1.464   .     S
C305   C359    1.402   .     A
C305   C376    1.463   .     S
C306   C375    1.464   .     S
C306   C356    1.402   .     S
C307   C362    1.402   .     A
C307   C374    1.463   .     S
C307   C925    1.402   1_545 S
C308   C372    1.404   .     A
C308   C358    1.391   .     A
C308   H440    1.083   .     S
C309   C358    1.402   .     A
C309   C373    1.464   .     S
C309   C931    1.402   1_545 S
C310   C399    1.453   .     S
C310   N469    1.157   .     T
C311   C400    1.453   .     S
C311   N480    1.157   .     T
C312   C401    1.453   .     S
C312   N491    1.157   .     T
C313   N495    1.157   .     T
C313   C402    1.453   .     S
C314   N496    1.157   .     T
C314   C403    1.453   .     S
C315   C405    1.453   .     S
C315   N497    1.157   .     T
C316   N498    1.157   .     T
C316   C406    1.453   .     S
C317   N499    1.157   .     T
C317   C407    1.453   .     S
C318   C408    1.453   .     S
C318   N500    1.157   .     T
C319   C359    1.391   .     A
C319   H441    1.083   .     S
C319   C368    1.404   .     A
C320   C409    1.453   .     S
C320   N470    1.157   .     T
C321   C410    1.453   .     S
C321   N471    1.157   .     T
C322   C411    1.453   .     S
C322   N472    1.157   .     T
C323   N473    1.157   .     T
C323   C412    1.453   .     S
C324   C413    1.453   .     S
C324   N474    1.157   .     T
C325   C414    1.453   .     S
C325   N475    1.157   .     T
C326   C416    1.453   .     S
C326   N476    1.157   .     T
C327   C417    1.453   .     S
C327   N477    1.157   .     T
C328   C418    1.453   .     S
C328   N478    1.157   .     T
C329   N479    1.157   .     T
C329   C419    1.453   .     S
C330   H442    1.083   .     S
C330   C85     1.404   1_655 A
C330   C361    1.391   .     A
C331   C420    1.453   .     S
C331   N481    1.157   .     T
C332   C421    1.453   .     S
C332   N482    1.157   .     T
C333   C422    1.453   .     S
C333   N483    1.157   .     T
C334   C423    1.453   .     S
C334   N484    1.157   .     T
C335   N485    1.157   .     T
C335   C424    1.453   .     S
C336   N486    1.157   .     T
C336   C425    1.453   .     S
C337   N487    1.157   .     T
C337   C427    1.453   .     S
C338   C428    1.453   .     S
C338   N488    1.157   .     T
C339   C429    1.453   .     S
C339   N489    1.157   .     T
C340   C430    1.453   .     S
C340   N490    1.157   .     T
C341   C370    1.404   .     A
C341   H443    1.083   .     S
C341   C362    1.391   .     A
C342   N492    1.157   .     T
C342   C431    1.453   .     S
C343   N493    1.157   .     T
C343   C432    1.453   .     S
C344   C433    1.453   .     S
C344   N494    1.157   .     T
C345   H444    1.083   .     S
C345   C363    1.391   .     A
C345   C940    1.404   .     S
C346   H445    1.083   .     S
C346   C869    1.402   .     S
C347   H446    1.083   .     S
C347   C349    1.391   .     A
C347   C870    1.402   .     S
C348   H447    1.083   .     S
C348   C19     1.402   1_655 A
C348   C360    1.391   .     A
C349   H448    1.083   .     S
C349   C933    1.404   .     S
C350   C371    1.391   .     A
C350   H449    1.083   .     S
C350   C20     1.402   1_655 S
C351   C382    1.391   .     A
C351   H450    1.083   .     S
C352   C393    1.391   .     A
C352   H451    1.083   .     S
C353   C404    1.391   .     A
C353   H452    1.083   .     S
C354   H453    1.083   .     S
C354   C415    1.391   .     A
C355   C426    1.391   .     A
C355   H454    1.083   .     S
C355   C21     1.402   1_655 S
C356   H455    1.083   .     S
C357   H456    1.083   .     S
C357   C875    1.402   .     S
C358   H457    1.083   .     S
C359   H458    1.083   .     S
C360   C82     1.404   1_655 A
C360   H459    1.083   .     S
C361   H460    1.083   .     S
C361   C22     1.402   1_655 A
C362   H461    1.083   .     S
C363   H462    1.083   .     S
C363   C877    1.402   .     S
C364   C382    1.404   .     A
C364   C853    1.404   1_545 S
C364   C365    1.473   1_554 S
C365   C393    1.404   .     A
C365   C364    1.473   1_556 S
C365   C917    1.404   1_545 S
C366   C367    1.473   1_554 S
C366   C404    1.404   .     S
C367   C366    1.473   1_556 S
C367   C415    1.404   .     S
C368   C369    1.473   .     S
C370   C372    1.473   .     S
C370   C865    1.404   1_545 S
C371   C83     1.404   1_655 A
C371   H463    1.083   .     S
C372   C913    1.404   1_545 S
C373   O552    1.282   .     A
C373   O1113   1.282   1_545 S
C374   O549    1.281   .     A
C374   O1070   1.281   1_545 S
C375   O550    1.282   .     S
C376   O504    1.281   .     A
C377   O509    1.282   .     A
C377   O505    1.282   .     S
C378   O510    1.281   .     A
C378   O506    1.281   .     S
C379   O507    1.282   .     A
C379   O511    1.282   .     A
C380   O508    1.281   .     A
C380   O513    1.281   .     A
C381   O542    1.277   .     A
C381   C436    1.457   .     S
C381   O514    1.277   .     A
C382   H464    1.083   .     S
C383   O543    1.277   .     A
C383   O515    1.277   .     A
C384   O516    1.277   .     A
C384   O540    1.277   .     A
C385   O517    1.277   .     A
C385   O541    1.277   .     A
C386   O518    1.277   .     A
C386   O547    1.277   .     A
C387   O548    1.277   .     A
C387   O519    1.277   .     A
C388   O520    1.277   .     A
C388   O544    1.277   .     A
C388   C434    1.457   .     S
C389   O546    1.277   .     A
C389   C435    1.457   .     S
C389   O521    1.277   .     A
C390   O533    1.277   .     A
C390   O522    1.277   .     A
C391   O535    1.277   .     A
C391   O524    1.277   .     A
C392   O531    1.277   .     A
C392   O525    1.277   .     A
C393   H465    1.083   .     S
C394   O526    1.277   .     A
C394   O532    1.277   .     A
C395   O538    1.277   .     A
C395   O527    1.277   .     A
C396   O539    1.277   .     A
C396   O528    1.277   .     A
C397   O536    1.277   .     A
C397   O529    1.277   .     A
C398   O530    1.277   .     A
C398   O537    1.277   .     A
C399   C416    1.400   .     A
C400   C414    1.400   .     A
C401   C413    1.400   .     A
C402   C412    1.400   .     A
C403   C411    1.400   .     A
C404   H466    1.083   .     S
C405   C410    1.400   .     A
C406   C409    1.400   .     A
C407   C408    1.400   .     A
C413   C436    1.410   .     A
C414   C435    1.410   .     A
C415   H467    1.083   .     S
C416   C434    1.410   .     A
C417   C435    1.410   .     A
C417   C433    1.400   .     A
C418   C432    1.400   .     A
C418   C434    1.410   .     A
C419   C431    1.400   .     A
C420   C436    1.410   .     A
C420   C430    1.400   .     A
C421   C429    1.400   .     A
C422   C428    1.400   .     A
C423   C427    1.400   .     A
C424   C425    1.400   .     A
C426   H468    1.083   .     S
C426   C84     1.404   1_655 S
O501   Zn564   1.946   .     S
O501   Zn556   1.946   .     S
O501   Zn553   1.946   .     S
O501   Zn1128  1.946   1_545 S
O502   Zn555   1.941   .     S
O502   C942    1.281   .     S
O503   C91     1.282   1_655 A
O503   Zn558   1.941   .     S
O504   Zn557   1.941   .     S
O505   Zn567   1.941   .     S
O506   Zn566   1.941   .     S
O507   Zn561   1.941   .     S
O508   Zn553   1.941   .     S
O509   Zn563   1.941   .     S
O510   Zn562   1.941   .     S
O511   Zn565   1.941   .     S
O512   Zn565   1.946   .     S
O512   Zn559   1.946   .     S
O512   Zn561   1.946   .     S
O512   Zn1123  1.946   1_545 S
O513   Zn564   1.941   .     S
O514   Zn556   1.936   .     S
O515   Zn555   1.936   .     S
O516   Zn558   1.936   .     S
O517   Zn557   1.936   .     S
O518   Zn560   1.936   .     S
O519   Zn559   1.936   .     S
O520   Zn554   1.936   .     S
O521   Zn568   1.936   .     S
O522   Zn555   1.936   .     S
O523   Zn566   1.946   .     S
O523   Zn554   1.946   .     S
O523   Zn562   1.946   .     S
O524   Zn556   1.936   .     S
O525   Zn568   1.936   .     S
O526   Zn554   1.936   .     S
O527   Zn559   1.936   .     S
O528   Zn560   1.936   .     S
O529   Zn557   1.936   .     S
O530   Zn558   1.936   .     S
O531   Zn279   1.936   1_655 S
O532   Zn562   1.936   .     S
O533   Zn1133  1.936   .     S
O534   Zn567   1.946   .     S
O534   Zn557   1.946   .     S
O534   Zn563   1.946   .     S
O535   Zn564   1.936   .     S
O536   Zn567   1.936   .     S
O537   Zn282   1.936   1_655 S
O538   Zn561   1.936   .     S
O539   Zn1121  1.936   .     S
O540   Zn278   1.936   1_655 S
O541   Zn563   1.936   .     S
O542   Zn553   1.936   .     S
O543   Zn1129  1.936   .     S
O544   Zn566   1.936   .     S
O545   Zn560   1.941   .     S
O545   C941    1.282   .     S
O546   Zn283   1.936   1_655 S
O547   Zn1132  1.936   .     S
O548   Zn565   1.936   .     S
O549   Zn559   1.941   .     S
O550   Zn554   1.941   .     S
O551   Zn568   1.941   .     S
O551   C92     1.281   1_655 S
O552   Zn556   1.941   .     S
Zn553  O1107   1.936   1_545 S
Zn555  O1080   1.946   .     S
Zn558  O239    1.946   1_655 S
Zn560  O1069   1.946   .     S
Zn561  O1111   1.936   1_545 S
Zn564  O1115   1.936   1_545 S
Zn565  O1101   1.936   1_545 S
Zn568  O250    1.946   1_655 S
C569   C630    1.391   .     A
C569   H721    1.083   .     S
C569   C80     1.404   1_565 S
C570   H722    1.083   .     S
C570   C640    1.391   .     A
C570   C653    1.404   .     S
C571   C703    1.410   .     A
C571   C696    1.410   .     A
C571   C667    1.457   .     S
C572   C695    1.410   .     A
C572   C706    1.410   .     A
C572   C668    1.457   .     S
C573   C694    1.410   .     A
C573   C669    1.457   .     S
C573   C705    1.410   .     A
C574   C708    1.410   .     A
C574   C693    1.410   .     A
C574   C670    1.457   .     S
C575   C692    1.410   .     A
C575   C671    1.457   .     S
C575   C707    1.410   .     A
C576   C681    1.457   .     S
C576   C691    1.410   .     A
C576   C711    1.410   .     A
C577   C682    1.457   .     S
C577   C709    1.410   .     A
C577   C690    1.410   .     A
C578   C689    1.410   .     A
C578   C713    1.410   .     A
C578   C674    1.457   .     S
C579   C687    1.410   .     A
C579   C712    1.410   .     A
C579   C675    1.457   .     S
C580   C676    1.457   .     S
C580   C686    1.410   .     A
C580   C715    1.410   .     A
C581   H723    1.083   .     S
C581   C641    1.391   .     A
C581   C86     1.404   1_565 S
C582   C685    1.410   .     A
C582   C678    1.457   .     S
C582   C714    1.410   .     A
C583   C679    1.457   .     S
C583   C717    1.410   .     A
C583   C684    1.410   .     A
C584   C680    1.457   .     S
C584   C683    1.410   .     A
C584   C716    1.410   .     A
C585   C635    1.402   .     A
C585   C664    1.463   .     S
C586   C663    1.464   .     S
C586   C636    1.402   .     A
C587   C916    1.402   1_455 A
C587   C662    1.463   .     S
C587   C637    1.402   .     S
C588   C638    1.402   .     A
C588   C661    1.464   .     S
C588   C918    1.402   1_455 S
C589   C643    1.402   .     A
C589   C660    1.463   .     S
C589   C923    1.402   1_455 S
C590   C659    1.464   .     S
C590   C929    1.402   1_455 A
C590   C640    1.402   .     S
C591   C646    1.402   .     A
C591   C658    1.463   .     S
C592   C656    1.404   .     A
C592   C642    1.391   .     A
C592   H724    1.083   .     S
C593   C642    1.402   .     A
C593   C657    1.464   .     S
C594   C683    1.453   .     S
C594   N753    1.157   .     T
C595   C684    1.453   .     S
C595   N764    1.157   .     T
C596   C685    1.453   .     S
C596   N775    1.157   .     T
C597   N779    1.157   .     T
C597   C686    1.453   .     S
C598   N780    1.157   .     T
C598   C687    1.453   .     S
C599   C689    1.453   .     S
C599   N781    1.157   .     T
C600   N782    1.157   .     T
C600   C690    1.453   .     S
C601   N783    1.157   .     T
C601   C691    1.453   .     S
C602   C692    1.453   .     S
C602   N784    1.157   .     T
C603   C643    1.391   .     A
C603   H725    1.083   .     S
C603   C652    1.404   .     A
C604   C693    1.453   .     S
C604   N754    1.157   .     T
C605   C694    1.453   .     S
C605   N755    1.157   .     T
C606   C695    1.453   .     S
C606   N756    1.157   .     T
C607   N757    1.157   .     T
C607   C696    1.453   .     S
C608   C697    1.453   .     S
C608   N758    1.157   .     T
C609   C698    1.453   .     S
C609   N759    1.157   .     T
C610   C700    1.453   .     S
C610   N760    1.157   .     T
C611   C701    1.453   .     S
C611   N761    1.157   .     T
C612   C702    1.453   .     S
C612   N762    1.157   .     T
C613   N763    1.157   .     T
C613   C703    1.453   .     S
C614   H726    1.083   .     S
C614   C937    1.404   .     A
C614   C645    1.391   .     A
C615   C704    1.453   .     S
C615   N765    1.157   .     T
C616   C705    1.453   .     S
C616   N766    1.157   .     T
C617   C706    1.453   .     S
C617   N767    1.157   .     T
C618   C707    1.453   .     S
C618   N768    1.157   .     T
C619   N769    1.157   .     T
C619   C708    1.453   .     S
C620   N770    1.157   .     T
C620   C709    1.453   .     S
C621   N771    1.157   .     T
C621   C711    1.453   .     S
C622   C712    1.453   .     S
C622   N772    1.157   .     T
C623   C713    1.453   .     S
C623   N773    1.157   .     T
C624   C714    1.453   .     S
C624   N774    1.157   .     T
C625   C654    1.404   .     A
C625   H727    1.083   .     S
C625   C646    1.391   .     A
C626   N776    1.157   .     T
C626   C715    1.453   .     S
C627   N777    1.157   .     T
C627   C716    1.453   .     S
C628   C717    1.453   .     S
C628   N778    1.157   .     T
C629   H728    1.083   .     S
C629   C647    1.391   .     A
C629   C88     1.404   1_565 S
C630   H729    1.083   .     S
C630   C17     1.402   1_565 S
C631   H730    1.083   .     S
C631   C633    1.391   .     A
C631   C18     1.402   1_565 S
C632   H731    1.083   .     S
C632   C871    1.402   .     A
C632   C644    1.391   .     A
C633   H732    1.083   .     S
C633   C81     1.404   1_565 S
C634   C655    1.391   .     A
C634   H733    1.083   .     S
C634   C872    1.402   .     S
C635   C666    1.391   .     A
C635   H734    1.083   .     S
C636   C677    1.391   .     A
C636   H735    1.083   .     S
C637   C688    1.391   .     A
C637   H736    1.083   .     S
C638   H737    1.083   .     S
C638   C699    1.391   .     A
C639   C710    1.391   .     A
C639   H738    1.083   .     S
C639   C873    1.402   .     S
C640   H739    1.083   .     S
C641   H740    1.083   .     S
C641   C23     1.402   1_565 S
C642   H741    1.083   .     S
C643   H742    1.083   .     S
C644   C934    1.404   .     A
C644   H743    1.083   .     S
C645   H744    1.083   .     S
C645   C874    1.402   .     A
C646   H745    1.083   .     S
C647   H746    1.083   .     S
C647   C25     1.402   1_565 S
C648   C666    1.404   .     A
C648   C649    1.473   1_554 S
C649   C677    1.404   .     A
C649   C648    1.473   1_556 S
C650   C928    1.404   1_455 A
C650   C651    1.473   1_554 S
C650   C688    1.404   .     S
C651   C939    1.404   1_455 A
C651   C650    1.473   1_556 S
C651   C699    1.404   .     S
C652   C653    1.473   .     S
C652   C994    1.404   1_455 S
C653   C898    1.404   1_455 A
C654   C656    1.473   .     S
C655   C935    1.404   .     A
C655   H747    1.083   .     S
C657   O836    1.282   .     A
C658   O833    1.281   .     A
C659   O1071   1.282   1_455 A
C659   O834    1.282   .     S
C660   O788    1.281   .     A
C660   O1119   1.281   1_455 S
C661   O793    1.282   .     A
C661   O789    1.282   .     S
C662   O794    1.281   .     A
C662   O790    1.281   .     S
C663   O791    1.282   .     A
C663   O795    1.282   .     A
C664   O792    1.281   .     A
C664   O797    1.281   .     A
C665   O826    1.277   .     A
C665   C720    1.457   .     S
C665   O798    1.277   .     A
C666   H748    1.083   .     S
C667   O827    1.277   .     A
C667   O799    1.277   .     A
C668   O800    1.277   .     A
C668   O824    1.277   .     A
C669   O801    1.277   .     A
C669   O825    1.277   .     A
C670   O802    1.277   .     A
C670   O831    1.277   .     A
C671   O832    1.277   .     A
C671   O803    1.277   .     A
C672   O804    1.277   .     A
C672   O828    1.277   .     A
C672   C718    1.457   .     S
C673   O830    1.277   .     A
C673   C719    1.457   .     S
C673   O805    1.277   .     A
C674   O817    1.277   .     A
C674   O806    1.277   .     A
C675   O819    1.277   .     A
C675   O808    1.277   .     A
C676   O815    1.277   .     A
C676   O809    1.277   .     A
C677   H749    1.083   .     S
C678   O810    1.277   .     A
C678   O816    1.277   .     A
C679   O822    1.277   .     A
C679   O811    1.277   .     A
C680   O823    1.277   .     A
C680   O812    1.277   .     A
C681   O820    1.277   .     A
C681   O813    1.277   .     A
C682   O814    1.277   .     A
C682   O821    1.277   .     A
C683   C700    1.400   .     A
C684   C698    1.400   .     A
C685   C697    1.400   .     A
C686   C696    1.400   .     A
C687   C695    1.400   .     A
C688   H750    1.083   .     S
C689   C694    1.400   .     A
C690   C693    1.400   .     A
C691   C692    1.400   .     A
C697   C720    1.410   .     A
C698   C719    1.410   .     A
C699   H751    1.083   .     S
C700   C718    1.410   .     A
C701   C719    1.410   .     A
C701   C717    1.400   .     A
C702   C716    1.400   .     A
C702   C718    1.410   .     A
C703   C715    1.400   .     A
C704   C720    1.410   .     A
C704   C714    1.400   .     A
C705   C713    1.400   .     A
C706   C712    1.400   .     A
C707   C711    1.400   .     A
C708   C709    1.400   .     A
C710   H752    1.083   .     S
C710   C936    1.404   .     S
O785   Zn848   1.946   .     S
O785   Zn840   1.946   .     S
O785   Zn837   1.946   .     S
O786   Zn839   1.941   .     S
O786   C90     1.281   1_565 S
O787   C943    1.282   .     A
O787   Zn842   1.941   .     S
O788   Zn841   1.941   .     S
O789   Zn851   1.941   .     S
O790   Zn850   1.941   .     S
O791   Zn845   1.941   .     S
O792   Zn837   1.941   .     S
O793   Zn847   1.941   .     S
O794   Zn846   1.941   .     S
O795   Zn849   1.941   .     S
O796   Zn849   1.946   .     S
O796   Zn843   1.946   .     S
O796   Zn845   1.946   .     S
O797   Zn848   1.941   .     S
O798   Zn840   1.936   .     S
O799   Zn839   1.936   .     S
O800   Zn842   1.936   .     S
O801   Zn841   1.936   .     S
O802   Zn844   1.936   .     S
O803   Zn843   1.936   .     S
O804   Zn838   1.936   .     S
O805   Zn852   1.936   .     S
O806   Zn839   1.936   .     S
O807   Zn850   1.946   .     S
O807   Zn1126  1.946   1_455 S
O807   Zn838   1.946   .     S
O807   Zn846   1.946   .     S
O808   Zn840   1.936   .     S
O809   Zn852   1.936   .     S
O810   Zn838   1.936   .     S
O811   Zn843   1.936   .     S
O812   Zn844   1.936   .     S
O813   Zn841   1.936   .     S
O814   Zn842   1.936   .     S
O815   Zn1131  1.936   .     S
O816   Zn846   1.936   .     S
O817   Zn281   1.936   1_565 S
O818   Zn851   1.946   .     S
O818   Zn841   1.946   .     S
O818   Zn847   1.946   .     S
O818   Zn1136  1.946   1_455 S
O819   Zn848   1.936   .     S
O820   Zn851   1.936   .     S
O821   Zn1134  1.936   .     S
O822   Zn845   1.936   .     S
O823   Zn269   1.936   1_565 S
O824   Zn1130  1.936   .     S
O825   Zn847   1.936   .     S
O826   Zn837   1.936   .     S
O827   Zn277   1.936   1_565 S
O828   Zn850   1.936   .     S
O829   Zn844   1.941   .     S
O829   C89     1.282   1_565 S
O830   Zn1135  1.936   .     S
O831   Zn280   1.936   1_565 S
O832   Zn849   1.936   .     S
O833   Zn843   1.941   .     S
O834   Zn838   1.941   .     S
O835   Zn852   1.941   .     S
O835   C944    1.281   .     S
O836   Zn840   1.941   .     S
Zn839  O228    1.946   1_565 S
Zn842  O1091   1.946   .     S
Zn844  O217    1.946   1_565 S
Zn846  O1108   1.936   1_455 S
Zn847  O1099   1.936   1_455 S
Zn850  O1105   1.936   1_455 S
Zn851  O1114   1.936   1_455 S
Zn852  O1102   1.946   .     S
C853   C914    1.391   .     A
C853   H1005   1.083   .     S
C853   C364    1.404   1_565 S
C854   H1006   1.083   .     S
C854   C924    1.391   .     A
C854   C937    1.404   .     S
C855   C987    1.410   .     A
C855   C980    1.410   .     A
C855   C951    1.457   .     S
C856   C979    1.410   .     A
C856   C990    1.410   .     A
C856   C952    1.457   .     S
C857   C978    1.410   .     A
C857   C953    1.457   .     S
C857   C989    1.410   .     A
C858   C992    1.410   .     A
C858   C977    1.410   .     A
C858   C954    1.457   .     S
C859   C976    1.410   .     A
C859   C955    1.457   .     S
C859   C991    1.410   .     A
C860   C965    1.457   .     S
C860   C975    1.410   .     A
C860   C995    1.410   .     A
C861   C966    1.457   .     S
C861   C993    1.410   .     A
C861   C974    1.410   .     A
C862   C973    1.410   .     A
C862   C997    1.410   .     A
C862   C958    1.457   .     S
C863   C971    1.410   .     A
C863   C996    1.410   .     A
C863   C959    1.457   .     S
C864   C960    1.457   .     S
C864   C970    1.410   .     A
C864   C999    1.410   .     A
C865   H1007   1.083   .     S
C865   C925    1.391   .     A
C865   C370    1.404   1_565 S
C866   C969    1.410   .     A
C866   C962    1.457   .     S
C866   C998    1.410   .     A
C867   C963    1.457   .     S
C867   C1001   1.410   .     A
C867   C968    1.410   .     A
C868   C964    1.457   .     S
C868   C967    1.410   .     A
C868   C1000   1.410   .     A
C869   C919    1.402   .     A
C869   C948    1.463   .     S
C870   C947    1.464   .     S
C870   C920    1.402   .     A
C871   C946    1.463   .     S
C871   C921    1.402   .     S
C872   C922    1.402   .     A
C872   C945    1.464   .     S
C873   C927    1.402   .     A
C873   C944    1.463   .     S
C874   C943    1.464   .     S
C874   C924    1.402   .     S
C875   C930    1.402   .     A
C875   C942    1.463   .     S
C876   C940    1.404   .     A
C876   C926    1.391   .     A
C876   H1008   1.083   .     S
C877   C926    1.402   .     A
C877   C941    1.464   .     S
C878   C967    1.453   .     S
C878   N1037   1.157   .     T
C879   C968    1.453   .     S
C879   N1048   1.157   .     T
C880   C969    1.453   .     S
C880   N1059   1.157   .     T
C881   N1063   1.157   .     T
C881   C970    1.453   .     S
C882   N1064   1.157   .     T
C882   C971    1.453   .     S
C883   C973    1.453   .     S
C883   N1065   1.157   .     T
C884   N1066   1.157   .     T
C884   C974    1.453   .     S
C885   N1067   1.157   .     T
C885   C975    1.453   .     S
C886   C976    1.453   .     S
C886   N1068   1.157   .     T
C887   C927    1.391   .     A
C887   H1009   1.083   .     S
C887   C936    1.404   .     A
C888   C977    1.453   .     S
C888   N1038   1.157   .     T
C889   C978    1.453   .     S
C889   N1039   1.157   .     T
C890   C979    1.453   .     S
C890   N1040   1.157   .     T
C891   N1041   1.157   .     T
C891   C980    1.453   .     S
C892   C981    1.453   .     S
C892   N1042   1.157   .     T
C893   C982    1.453   .     S
C893   N1043   1.157   .     T
C894   C984    1.453   .     S
C894   N1044   1.157   .     T
C895   C985    1.453   .     S
C895   N1045   1.157   .     T
C896   C986    1.453   .     S
C896   N1046   1.157   .     T
C897   N1047   1.157   .     T
C897   C987    1.453   .     S
C898   H1010   1.083   .     S
C898   C653    1.404   1_655 A
C898   C929    1.391   .     A
C899   C988    1.453   .     S
C899   N1049   1.157   .     T
C900   C989    1.453   .     S
C900   N1050   1.157   .     T
C901   C990    1.453   .     S
C901   N1051   1.157   .     T
C902   C991    1.453   .     S
C902   N1052   1.157   .     T
C903   N1053   1.157   .     T
C903   C992    1.453   .     S
C904   N1054   1.157   .     T
C904   C993    1.453   .     S
C905   N1055   1.157   .     T
C905   C995    1.453   .     S
C906   C996    1.453   .     S
C906   N1056   1.157   .     T
C907   C997    1.453   .     S
C907   N1057   1.157   .     T
C908   C998    1.453   .     S
C908   N1058   1.157   .     T
C909   C938    1.404   .     A
C909   H1011   1.083   .     S
C909   C930    1.391   .     A
C910   N1060   1.157   .     T
C910   C999    1.453   .     S
C911   N1061   1.157   .     T
C911   C1000   1.453   .     S
C912   C1001   1.453   .     S
C912   N1062   1.157   .     T
C913   H1012   1.083   .     S
C913   C931    1.391   .     A
C913   C372    1.404   1_565 S
C914   H1013   1.083   .     S
C914   C301    1.402   1_565 S
C915   H1014   1.083   .     S
C915   C917    1.391   .     A
C915   C302    1.402   1_565 S
C916   H1015   1.083   .     S
C916   C587    1.402   1_655 A
C916   C928    1.391   .     A
C917   H1016   1.083   .     S
C917   C365    1.404   1_565 S
C918   C939    1.391   .     A
C918   H1017   1.083   .     S
C918   C588    1.402   1_655 S
C919   C950    1.391   .     A
C919   H1018   1.083   .     S
C920   C961    1.391   .     A
C920   H1019   1.083   .     S
C921   C972    1.391   .     A
C921   H1020   1.083   .     S
C922   H1021   1.083   .     S
C922   C983    1.391   .     A
C923   C994    1.391   .     A
C923   H1022   1.083   .     S
C923   C589    1.402   1_655 S
C924   H1023   1.083   .     S
C925   H1024   1.083   .     S
C925   C307    1.402   1_565 S
C926   H1025   1.083   .     S
C927   H1026   1.083   .     S
C928   C650    1.404   1_655 A
C928   H1027   1.083   .     S
C929   H1028   1.083   .     S
C929   C590    1.402   1_655 A
C930   H1029   1.083   .     S
C931   H1030   1.083   .     S
C931   C309    1.402   1_565 S
C932   C950    1.404   .     A
C932   C933    1.473   1_554 S
C933   C961    1.404   .     A
C933   C932    1.473   1_556 S
C934   C935    1.473   1_554 S
C934   C972    1.404   .     S
C935   C934    1.473   1_556 S
C935   C983    1.404   .     S
C936   C937    1.473   .     S
C938   C940    1.473   .     S
C939   C651    1.404   1_655 A
C939   H1031   1.083   .     S
C941   O1120   1.282   .     A
C942   O1117   1.281   .     A
C943   O1118   1.282   .     S
C944   O1072   1.281   .     A
C945   O1077   1.282   .     A
C945   O1073   1.282   .     S
C946   O1078   1.281   .     A
C946   O1074   1.281   .     S
C947   O1075   1.282   .     A
C947   O1079   1.282   .     A
C948   O1076   1.281   .     A
C948   O1081   1.281   .     A
C949   O1110   1.277   .     A
C949   C1004   1.457   .     S
C949   O1082   1.277   .     A
C950   H1032   1.083   .     S
C951   O1111   1.277   .     A
C951   O1083   1.277   .     A
C952   O1084   1.277   .     A
C952   O1108   1.277   .     A
C953   O1085   1.277   .     A
C953   O1109   1.277   .     A
C954   O1086   1.277   .     A
C954   O1115   1.277   .     A
C955   O1116   1.277   .     A
C955   O1087   1.277   .     A
C956   O1088   1.277   .     A
C956   O1112   1.277   .     A
C956   C1002   1.457   .     S
C957   O1114   1.277   .     A
C957   C1003   1.457   .     S
C957   O1089   1.277   .     A
C958   O1101   1.277   .     A
C958   O1090   1.277   .     A
C959   O1103   1.277   .     A
C959   O1092   1.277   .     A
C960   O1099   1.277   .     A
C960   O1093   1.277   .     A
C961   H1033   1.083   .     S
C962   O1094   1.277   .     A
C962   O1100   1.277   .     A
C963   O1106   1.277   .     A
C963   O1095   1.277   .     A
C964   O1107   1.277   .     A
C964   O1096   1.277   .     A
C965   O1104   1.277   .     A
C965   O1097   1.277   .     A
C966   O1098   1.277   .     A
C966   O1105   1.277   .     A
C967   C984    1.400   .     A
C968   C982    1.400   .     A
C969   C981    1.400   .     A
C970   C980    1.400   .     A
C971   C979    1.400   .     A
C972   H1034   1.083   .     S
C973   C978    1.400   .     A
C974   C977    1.400   .     A
C975   C976    1.400   .     A
C981   C1004   1.410   .     A
C982   C1003   1.410   .     A
C983   H1035   1.083   .     S
C984   C1002   1.410   .     A
C985   C1003   1.410   .     A
C985   C1001   1.400   .     A
C986   C1000   1.400   .     A
C986   C1002   1.410   .     A
C987   C999    1.400   .     A
C988   C1004   1.410   .     A
C988   C998    1.400   .     A
C989   C997    1.400   .     A
C990   C996    1.400   .     A
C991   C995    1.400   .     A
C992   C993    1.400   .     A
C994   H1036   1.083   .     S
C994   C652    1.404   1_655 S
O1069  Zn1132  1.946   .     S
O1069  Zn1124  1.946   .     S
O1069  Zn1121  1.946   .     S
O1070  Zn1123  1.941   .     S
O1070  C374    1.281   1_565 S
O1071  C659    1.282   1_655 A
O1071  Zn1126  1.941   .     S
O1072  Zn1125  1.941   .     S
O1073  Zn1135  1.941   .     S
O1074  Zn1134  1.941   .     S
O1075  Zn1129  1.941   .     S
O1076  Zn1121  1.941   .     S
O1077  Zn1131  1.941   .     S
O1078  Zn1130  1.941   .     S
O1079  Zn1133  1.941   .     S
O1080  Zn1133  1.946   .     S
O1080  Zn1127  1.946   .     S
O1080  Zn1129  1.946   .     S
O1081  Zn1132  1.941   .     S
O1082  Zn1124  1.936   .     S
O1083  Zn1123  1.936   .     S
O1084  Zn1126  1.936   .     S
O1085  Zn1125  1.936   .     S
O1086  Zn1128  1.936   .     S
O1087  Zn1127  1.936   .     S
O1088  Zn1122  1.936   .     S
O1089  Zn1136  1.936   .     S
O1090  Zn1123  1.936   .     S
O1091  Zn1134  1.946   .     S
O1091  Zn1122  1.946   .     S
O1091  Zn1130  1.946   .     S
O1092  Zn1124  1.936   .     S
O1093  Zn1136  1.936   .     S
O1094  Zn1122  1.936   .     S
O1095  Zn1127  1.936   .     S
O1096  Zn1128  1.936   .     S
O1097  Zn1125  1.936   .     S
O1098  Zn1126  1.936   .     S
O1099  Zn847   1.936   1_655 S
O1100  Zn1130  1.936   .     S
O1101  Zn565   1.936   1_565 S
O1102  Zn1135  1.946   .     S
O1102  Zn1125  1.946   .     S
O1102  Zn1131  1.946   .     S
O1103  Zn1132  1.936   .     S
O1104  Zn1135  1.936   .     S
O1105  Zn850   1.936   1_655 S
O1106  Zn1129  1.936   .     S
O1107  Zn553   1.936   1_565 S
O1108  Zn846   1.936   1_655 S
O1109  Zn1131  1.936   .     S
O1110  Zn1121  1.936   .     S
O1111  Zn561   1.936   1_565 S
O1112  Zn1134  1.936   .     S
O1113  Zn1128  1.941   .     S
O1113  C373    1.282   1_565 S
O1114  Zn851   1.936   1_655 S
O1115  Zn564   1.936   1_565 S
O1116  Zn1133  1.936   .     S
O1117  Zn1127  1.941   .     S
O1118  Zn1122  1.941   .     S
O1119  Zn1136  1.941   .     S
O1119  C660    1.281   1_655 S
O1120  Zn1124  1.941   .     S
Zn1123 O512    1.946   1_565 S
Zn1126 O807    1.946   1_655 S
Zn1128 O501    1.946   1_565 S
Zn1136 O818    1.946   1_655 S
