data_str_m1_o5_o17_pcu_sym.78
_audit_creation_date              2020-01-03
_audit_creation_method            'Materials Studio'
_symmetry_space_group_name_H-M    'P1'
_symmetry_Int_Tables_number       1
_symmetry_cell_setting            triclinic
loop_
_symmetry_equiv_pos_as_xyz
  x,y,z
_cell_length_a                    31.7713
_cell_length_b                    31.7713
_cell_length_c                    34.4781
_cell_angle_alpha                 89.9999
_cell_angle_beta                  89.9999
_cell_angle_gamma                 90.0068
loop_
_atom_site_label
_atom_site_type_symbol
_atom_site_fract_x
_atom_site_fract_y
_atom_site_fract_z
_atom_site_U_iso_or_equiv
_atom_site_adp_type
_atom_site_occupancy
C1     C     0.25000   0.00000   0.35583   0.00000  Uiso   1.00
C2     C     0.33002   0.41998   0.75000   0.00000  Uiso   1.00
C3     C     0.42330   0.24445   0.02027   0.00000  Uiso   1.00
C4     C     0.25582   0.07668   0.97973   0.00000  Uiso   1.00
C5     C     0.24723   0.42313   0.02013   0.00000  Uiso   1.00
C6     C     0.42313   0.24748   0.97987   0.00000  Uiso   1.00
C7     C     0.07670   0.25555   0.02027   0.00000  Uiso   1.00
C8     C     0.44342   0.12787   0.46078   0.00000  Uiso   1.00
C9     C     0.45709   0.37789   0.53881   0.00000  Uiso   1.00
C10    C     0.37805   0.45754   0.46120   0.00000  Uiso   1.00
C11    C     0.12811   0.44297   0.53925   0.00000  Uiso   1.00
C12    C     0.05659   0.37212   0.46077   0.00000  Uiso   1.00
C13    C     0.41998   0.16998   0.25000   0.00000  Uiso   1.00
C14    C     0.04291   0.12211   0.53881   0.00000  Uiso   1.00
C15    C     0.12195   0.04246   0.46120   0.00000  Uiso   1.00
C16    C     0.37190   0.05702   0.53925   0.00000  Uiso   1.00
C17    C     0.19313   0.37802   0.96076   0.00000  Uiso   1.00
C18    C     0.20739   0.12800   0.03879   0.00000  Uiso   1.00
C19    C     0.12783   0.20694   0.96118   0.00000  Uiso   1.00
C20    C     0.37781   0.19355   0.03921   0.00000  Uiso   1.00
C21    C     0.30688   0.12197   0.96076   0.00000  Uiso   1.00
C22    C     0.29262   0.37200   0.03880   0.00000  Uiso   1.00
C23    C     0.37217   0.29306   0.96119   0.00000  Uiso   1.00
C24    C     0.08002   0.33002   0.75000   0.00000  Uiso   1.00
C25    C     0.12220   0.30644   0.03921   0.00000  Uiso   1.00
C26    C     0.33002   0.41998   0.25000   0.00000  Uiso   1.00
C27    C     0.16998   0.08002   0.75000   0.00000  Uiso   1.00
C28    C     0.08002   0.33002   0.25000   0.00000  Uiso   1.00
C29    C     0.41998   0.16998   0.75000   0.00000  Uiso   1.00
C30    C     0.16998   0.41998   0.75000   0.00000  Uiso   1.00
C31    C     0.33002   0.08002   0.25000   0.00000  Uiso   1.00
C32    C     0.41998   0.33002   0.75000   0.00000  Uiso   1.00
C33    C     0.25000   0.00000   0.64419   0.00000  Uiso   1.00
C34    C     0.08002   0.16998   0.25000   0.00000  Uiso   1.00
C35    C     0.33002   0.08002   0.75000   0.00000  Uiso   1.00
C36    C     0.16998   0.41998   0.25000   0.00000  Uiso   1.00
C37    C     0.08002   0.16998   0.75000   0.00000  Uiso   1.00
C38    C     0.41998   0.33002   0.25000   0.00000  Uiso   1.00
C39    C     0.13833   0.38833   0.25000   0.00000  Uiso   1.00
C40    C     0.36167   0.11167   0.75000   0.00000  Uiso   1.00
C41    C     0.11167   0.13833   0.25000   0.00000  Uiso   1.00
C42    C     0.38833   0.36167   0.75000   0.00000  Uiso   1.00
C43    C     0.36167   0.11167   0.25000   0.00000  Uiso   1.00
C44    C     0.00000   0.25000   0.35581   0.00000  Uiso   1.00
C45    C     0.13833   0.38833   0.75000   0.00000  Uiso   1.00
C46    C     0.38833   0.36167   0.25000   0.00000  Uiso   1.00
C47    C     0.11167   0.13833   0.75000   0.00000  Uiso   1.00
C48    C     0.13833   0.11167   0.75000   0.00000  Uiso   1.00
C49    C     0.36167   0.38833   0.25000   0.00000  Uiso   1.00
C50    C     0.11167   0.36167   0.75000   0.00000  Uiso   1.00
C51    C     0.38833   0.13833   0.25000   0.00000  Uiso   1.00
C52    C     0.36167   0.38833   0.75000   0.00000  Uiso   1.00
C53    C     0.13833   0.11167   0.25000   0.00000  Uiso   1.00
C54    C     0.38833   0.13833   0.75000   0.00000  Uiso   1.00
C55    C     0.00000   0.25000   0.64417   0.00000  Uiso   1.00
C56    C     0.11167   0.36167   0.25000   0.00000  Uiso   1.00
C57    C     0.49755   0.28844   0.41776   0.00000  Uiso   1.00
C58    C     0.49340   0.21204   0.58214   0.00000  Uiso   1.00
C59    C     0.21206   0.49327   0.41786   0.00000  Uiso   1.00
C60    C     0.28844   0.49768   0.58224   0.00000  Uiso   1.00
C61    C     0.00245   0.21156   0.41776   0.00000  Uiso   1.00
C62    C     0.00660   0.28796   0.58214   0.00000  Uiso   1.00
C63    C     0.28794   0.00673   0.41786   0.00000  Uiso   1.00
C64    C     0.21156   0.00232   0.58224   0.00000  Uiso   1.00
C65    C     0.24764   0.03844   0.91776   0.00000  Uiso   1.00
C66    C     0.00000   0.25000   0.85583   0.00000  Uiso   1.00
C67    C     0.24332   0.46205   0.08214   0.00000  Uiso   1.00
C68    C     0.46203   0.24344   0.91786   0.00000  Uiso   1.00
C69    C     0.03843   0.24751   0.08223   0.00000  Uiso   1.00
C70    C     0.25237   0.46156   0.91776   0.00000  Uiso   1.00
C71    C     0.25668   0.03795   0.08214   0.00000  Uiso   1.00
C72    C     0.03797   0.25656   0.91786   0.00000  Uiso   1.00
C73    C     0.46157   0.25249   0.08223   0.00000  Uiso   1.00
C74    C     0.00000   0.25000   0.39797   0.00000  Uiso   1.00
C75    C     0.00000   0.25000   0.60196   0.00000  Uiso   1.00
C76    C     0.25000   0.00000   0.39804   0.00000  Uiso   1.00
C77    C     0.00000   0.25000   0.14419   0.00000  Uiso   1.00
C78    C     0.25000   0.00000   0.60203   0.00000  Uiso   1.00
C79    C     0.25000   0.00000   0.89797   0.00000  Uiso   1.00
C80    C     0.25000  -0.00000   0.10196   0.00000  Uiso   1.00
C81    C     0.00000   0.25000   0.89804   0.00000  Uiso   1.00
C82    C     0.00000   0.25000   0.10203   0.00000  Uiso   1.00
C83    C     0.49874   0.21119   0.45869   0.00000  Uiso   1.00
C84    C     0.00292   0.28874   0.54121   0.00000  Uiso   1.00
C85    C     0.28873   0.00304   0.45879   0.00000  Uiso   1.00
C86    C     0.21119   0.49860   0.54132   0.00000  Uiso   1.00
C87    C     0.00126   0.28881   0.45869   0.00000  Uiso   1.00
C88    C     0.25000  -0.00000   0.85581   0.00000  Uiso   1.00
C89    C     0.49709   0.21126   0.54121   0.00000  Uiso   1.00
C90    C     0.21127   0.49695   0.45879   0.00000  Uiso   1.00
C91    C     0.28881   0.00139   0.54132   0.00000  Uiso   1.00
C92    C     0.24865   0.46119   0.95868   0.00000  Uiso   1.00
C93    C     0.25300   0.03873   0.04121   0.00000  Uiso   1.00
C94    C     0.03874   0.25287   0.95879   0.00000  Uiso   1.00
C95    C     0.46119   0.24878   0.04131   0.00000  Uiso   1.00
C96    C     0.25135   0.03881   0.95868   0.00000  Uiso   1.00
C97    C     0.24700   0.46127   0.04121   0.00000  Uiso   1.00
C98    C     0.46126   0.24713   0.95879   0.00000  Uiso   1.00
C99    C     0.25000  -0.00000   0.14417   0.00000  Uiso   1.00
C100   C     0.03881   0.25122   0.04131   0.00000  Uiso   1.00
C101   C     0.00000   0.25000   0.47931   0.00000  Uiso   1.00
C102   C     0.00000   0.25000   0.52060   0.00000  Uiso   1.00
C103   C     0.25000  -0.00000   0.47940   0.00000  Uiso   1.00
C104   C     0.25000  -0.00000   0.52069   0.00000  Uiso   1.00
C105   C     0.25000   0.00000   0.97931   0.00000  Uiso   1.00
C106   C     0.25000  -0.00000   0.02060   0.00000  Uiso   1.00
C107   C     0.00000   0.25000   0.97940   0.00000  Uiso   1.00
C108   C     0.00000   0.25000   0.02069   0.00000  Uiso   1.00
C109   C     0.49436   0.17331   0.47973   0.00000  Uiso   1.00
C110   C     0.16998   0.08002   0.25000   0.00000  Uiso   1.00
C111   C     0.00261   0.32687   0.52013   0.00000  Uiso   1.00
C112   C     0.32686   0.00287   0.47987   0.00000  Uiso   1.00
C113   C     0.17333   0.49410   0.52028   0.00000  Uiso   1.00
C114   C     0.00564   0.32669   0.47973   0.00000  Uiso   1.00
C115   C     0.49740   0.17313   0.52013   0.00000  Uiso   1.00
C116   C     0.17314   0.49713   0.47987   0.00000  Uiso   1.00
C117   C     0.32667   0.00590   0.52027   0.00000  Uiso   1.00
C118   C     0.24419   0.42332   0.97973   0.00000  Uiso   1.00
C119   C     0.25278   0.07687   0.02013   0.00000  Uiso   1.00
C120   C     0.07687   0.25251   0.97986   0.00000  Uiso   1.00
H121   H     0.42666   0.15281   0.44415   0.00000  Uiso   1.00
H122   H     0.15310   0.42633   0.55591   0.00000  Uiso   1.00
H123   H     0.12571   0.42976   0.50944   0.00000  Uiso   1.00
H124   H     0.09769   0.43698   0.55406   0.00000  Uiso   1.00
H125   H     0.07335   0.34718   0.44414   0.00000  Uiso   1.00
H126   H     0.06977   0.37459   0.49060   0.00000  Uiso   1.00
H127   H     0.06247   0.40255   0.44595   0.00000  Uiso   1.00
H128   H     0.06270   0.14528   0.55479   0.00000  Uiso   1.00
H129   H     0.05530   0.11741   0.50893   0.00000  Uiso   1.00
H130   H     0.04539   0.09156   0.55421   0.00000  Uiso   1.00
H131   H     0.14503   0.06234   0.44523   0.00000  Uiso   1.00
H132   H     0.43024   0.12539   0.49060   0.00000  Uiso   1.00
H133   H     0.11720   0.05482   0.49109   0.00000  Uiso   1.00
H134   H     0.09138   0.04482   0.44581   0.00000  Uiso   1.00
H135   H     0.34691   0.07366   0.55590   0.00000  Uiso   1.00
H136   H     0.37431   0.07022   0.50943   0.00000  Uiso   1.00
H137   H     0.40231   0.06301   0.55406   0.00000  Uiso   1.00
H138   H     0.17644   0.40300   0.94413   0.00000  Uiso   1.00
H139   H     0.17994   0.37558   0.99058   0.00000  Uiso   1.00
H140   H     0.18718   0.34761   0.94593   0.00000  Uiso   1.00
H141   H     0.18754   0.10489   0.05477   0.00000  Uiso   1.00
H142   H     0.19502   0.13273   0.00891   0.00000  Uiso   1.00
H143   H     0.43754   0.09745   0.44595   0.00000  Uiso   1.00
H144   H     0.20498   0.15856   0.05419   0.00000  Uiso   1.00
H145   H     0.10465   0.18717   0.94521   0.00000  Uiso   1.00
H146   H     0.13252   0.19454   0.99107   0.00000  Uiso   1.00
H147   H     0.15839   0.20442   0.94579   0.00000  Uiso   1.00
H148   H     0.40273   0.17676   0.05583   0.00000  Uiso   1.00
H149   H     0.37530   0.18038   0.00939   0.00000  Uiso   1.00
H150   H     0.34738   0.18771   0.05405   0.00000  Uiso   1.00
H151   H     0.32356   0.09699   0.94412   0.00000  Uiso   1.00
H152   H     0.32008   0.12440   0.99058   0.00000  Uiso   1.00
H153   H     0.31284   0.15238   0.94594   0.00000  Uiso   1.00
H154   H     0.43730   0.35473   0.55479   0.00000  Uiso   1.00
H155   H     0.31247   0.39511   0.05477   0.00000  Uiso   1.00
H156   H     0.30498   0.36727   0.00891   0.00000  Uiso   1.00
H157   H     0.29502   0.34144   0.05419   0.00000  Uiso   1.00
H158   H     0.39535   0.31282   0.94520   0.00000  Uiso   1.00
H159   H     0.36749   0.30545   0.99107   0.00000  Uiso   1.00
H160   H     0.34161   0.29558   0.94580   0.00000  Uiso   1.00
H161   H     0.09728   0.32324   0.05582   0.00000  Uiso   1.00
H162   H     0.12471   0.31960   0.00938   0.00000  Uiso   1.00
H163   H     0.15263   0.31228   0.05405   0.00000  Uiso   1.00
H164   H     0.44470   0.38258   0.50893   0.00000  Uiso   1.00
H165   H     0.45461   0.40845   0.55420   0.00000  Uiso   1.00
H166   H     0.35497   0.43766   0.44523   0.00000  Uiso   1.00
H167   H     0.38280   0.44518   0.49109   0.00000  Uiso   1.00
H168   H     0.40862   0.45517   0.44581   0.00000  Uiso   1.00
I169   I     0.48386   0.34370   0.38337   0.00000  Uiso   1.00
I170   I     0.22402   0.40842   0.11650   0.00000  Uiso   1.00
I171   I     0.40835   0.22430   0.88350   0.00000  Uiso   1.00
I172   I     0.09368   0.23376   0.11663   0.00000  Uiso   1.00
I173   I     0.26595   0.40627   0.88337   0.00000  Uiso   1.00
I174   I     0.27598   0.09158   0.11650   0.00000  Uiso   1.00
I175   I     0.09165   0.27570   0.88350   0.00000  Uiso   1.00
I176   I     0.40632   0.26624   0.11663   0.00000  Uiso   1.00
I177   I     0.47420   0.15837   0.61650   0.00000  Uiso   1.00
I178   I     0.15845   0.47392   0.38350   0.00000  Uiso   1.00
I179   I     0.34375   0.48415   0.61663   0.00000  Uiso   1.00
I180   I     0.01614   0.15630   0.38337   0.00000  Uiso   1.00
I181   I     0.02580   0.34163   0.61650   0.00000  Uiso   1.00
I182   I     0.34155   0.02608   0.38350   0.00000  Uiso   1.00
I183   I     0.15625   0.01585   0.61663   0.00000  Uiso   1.00
I184   I     0.23405   0.09373   0.88337   0.00000  Uiso   1.00
O185   O     0.25000  -0.00000   0.25000   0.00000  Uiso   1.00
O186   O     0.25000   0.46539   0.66251   0.00000  Uiso   1.00
O187   O     0.46539   0.25000   0.33749   0.00000  Uiso   1.00
O188   O     0.03462   0.25000   0.66251   0.00000  Uiso   1.00
O189   O     0.00000   0.21538   0.83749   0.00000  Uiso   1.00
O190   O     0.00000   0.28461   0.16251   0.00000  Uiso   1.00
O191   O     0.28462  -0.00000   0.83749   0.00000  Uiso   1.00
O192   O     0.21539  -0.00000   0.16251   0.00000  Uiso   1.00
O193   O     0.00000   0.28462   0.83749   0.00000  Uiso   1.00
O194   O     0.00000   0.21538   0.16251   0.00000  Uiso   1.00
O195   O     0.21539  -0.00000   0.83749   0.00000  Uiso   1.00
O196   O     0.25000  -0.00000   0.75000   0.00000  Uiso   1.00
O197   O     0.28462  -0.00000   0.16251   0.00000  Uiso   1.00
O198   O     0.20127   0.08332   0.27298   0.00000  Uiso   1.00
O199   O     0.29874   0.41668   0.72702   0.00000  Uiso   1.00
O200   O     0.41668   0.20126   0.27298   0.00000  Uiso   1.00
O201   O     0.08332   0.29874   0.72702   0.00000  Uiso   1.00
O202   O     0.29874   0.41668   0.27298   0.00000  Uiso   1.00
O203   O     0.20127   0.08332   0.72702   0.00000  Uiso   1.00
O204   O     0.08332   0.29874   0.27298   0.00000  Uiso   1.00
O205   O     0.41668   0.20126   0.72702   0.00000  Uiso   1.00
O206   O     0.20127   0.41668   0.72702   0.00000  Uiso   1.00
O207   O     0.00000   0.25000   0.25000   0.00000  Uiso   1.00
O208   O     0.29874   0.08332   0.27298   0.00000  Uiso   1.00
O209   O     0.41668   0.29874   0.72702   0.00000  Uiso   1.00
O210   O     0.08332   0.20127   0.27298   0.00000  Uiso   1.00
O211   O     0.29874   0.08332   0.72702   0.00000  Uiso   1.00
O212   O     0.20127   0.41668   0.27298   0.00000  Uiso   1.00
O213   O     0.08332   0.20127   0.72702   0.00000  Uiso   1.00
O214   O     0.41668   0.29874   0.27298   0.00000  Uiso   1.00
O215   O     0.45127   0.33332   0.77298   0.00000  Uiso   1.00
O216   O     0.04874   0.16668   0.22702   0.00000  Uiso   1.00
O217   O     0.16668   0.45127   0.77298   0.00000  Uiso   1.00
O218   O     0.00000   0.25000   0.75000   0.00000  Uiso   1.00
O219   O     0.33332   0.04873   0.22702   0.00000  Uiso   1.00
O220   O     0.04874   0.16668   0.77298   0.00000  Uiso   1.00
O221   O     0.45127   0.33332   0.22702   0.00000  Uiso   1.00
O222   O     0.33332   0.04873   0.77298   0.00000  Uiso   1.00
O223   O     0.16668   0.45127   0.22702   0.00000  Uiso   1.00
O224   O     0.45127   0.16668   0.22702   0.00000  Uiso   1.00
O225   O     0.04874   0.33332   0.77298   0.00000  Uiso   1.00
O226   O     0.16668   0.04873   0.22702   0.00000  Uiso   1.00
O227   O     0.33332   0.45127   0.77298   0.00000  Uiso   1.00
O228   O     0.04874   0.33332   0.22702   0.00000  Uiso   1.00
O229   O     0.25000   0.46539   0.33749   0.00000  Uiso   1.00
O230   O     0.45127   0.16668   0.77298   0.00000  Uiso   1.00
O231   O     0.33332   0.45127   0.22702   0.00000  Uiso   1.00
O232   O     0.16668   0.04873   0.77298   0.00000  Uiso   1.00
O233   O     0.48722   0.13527   0.46150   0.00000  Uiso   1.00
O234   O     0.49975   0.36548   0.53833   0.00000  Uiso   1.00
O235   O     0.36549   0.00015   0.46167   0.00000  Uiso   1.00
O236   O     0.13532   0.48680   0.53851   0.00000  Uiso   1.00
O237   O     0.01279   0.36473   0.46149   0.00000  Uiso   1.00
O238   O     0.00025   0.13452   0.53834   0.00000  Uiso   1.00
O239   O     0.13451   0.49984   0.46167   0.00000  Uiso   1.00
O240   O     0.25000   0.03461   0.66251   0.00000  Uiso   1.00
O241   O     0.36468   0.01319   0.53851   0.00000  Uiso   1.00
O242   O     0.23695   0.38530   0.96149   0.00000  Uiso   1.00
O243   O     0.25002   0.11548   0.03833   0.00000  Uiso   1.00
O244   O     0.11548   0.24961   0.96166   0.00000  Uiso   1.00
O245   O     0.38526   0.23734   0.03850   0.00000  Uiso   1.00
O246   O     0.26306   0.11470   0.96149   0.00000  Uiso   1.00
O247   O     0.24999   0.38452   0.03833   0.00000  Uiso   1.00
O248   O     0.38452   0.25039   0.96166   0.00000  Uiso   1.00
O249   O     0.11475   0.26265   0.03850   0.00000  Uiso   1.00
O250   O     0.03462   0.25000   0.33749   0.00000  Uiso   1.00
O251   O     0.46539   0.25000   0.66251   0.00000  Uiso   1.00
O252   O     0.25000   0.03461   0.33749   0.00000  Uiso   1.00
Zn253  Zn    0.20053  -0.00000   0.21730   0.00000  Uiso   1.00
Zn254  Zn    0.04948   0.25000   0.28270   0.00000  Uiso   1.00
Zn255  Zn    0.25000   0.45053   0.71730   0.00000  Uiso   1.00
Zn256  Zn    0.25000   0.04947   0.28270   0.00000  Uiso   1.00
Zn257  Zn    0.04948   0.25000   0.71730   0.00000  Uiso   1.00
Zn258  Zn    0.45053   0.25000   0.28270   0.00000  Uiso   1.00
Zn259  Zn    0.25000   0.04947   0.71730   0.00000  Uiso   1.00
Zn260  Zn    0.25000   0.45053   0.28270   0.00000  Uiso   1.00
Zn261  Zn    0.29948  -0.00000   0.78270   0.00000  Uiso   1.00
Zn262  Zn    0.00000   0.20052   0.21730   0.00000  Uiso   1.00
Zn263  Zn    0.00000   0.29948   0.78270   0.00000  Uiso   1.00
Zn264  Zn    0.29948  -0.00000   0.21730   0.00000  Uiso   1.00
Zn265  Zn    0.20053  -0.00000   0.78270   0.00000  Uiso   1.00
Zn266  Zn    0.00000   0.29947   0.21730   0.00000  Uiso   1.00
Zn267  Zn    0.00000   0.20052   0.78270   0.00000  Uiso   1.00
Zn268  Zn    0.45053   0.25000   0.71730   0.00000  Uiso   1.00
C269   C     0.75000   0.00000   0.35583   0.00000  Uiso   1.00
C270   C     0.83002   0.41998   0.75000   0.00000  Uiso   1.00
C271   C     0.92330   0.24445   0.02027   0.00000  Uiso   1.00
C272   C     0.75582   0.07668   0.97973   0.00000  Uiso   1.00
C273   C     0.74723   0.42313   0.02013   0.00000  Uiso   1.00
C274   C     0.92313   0.24748   0.97987   0.00000  Uiso   1.00
C275   C     0.57670   0.25555   0.02027   0.00000  Uiso   1.00
C276   C     0.94342   0.12787   0.46078   0.00000  Uiso   1.00
C277   C     0.95709   0.37789   0.53881   0.00000  Uiso   1.00
C278   C     0.87805   0.45754   0.46120   0.00000  Uiso   1.00
C279   C     0.62811   0.44297   0.53925   0.00000  Uiso   1.00
C280   C     0.55659   0.37212   0.46077   0.00000  Uiso   1.00
C281   C     0.91998   0.16998   0.25000   0.00000  Uiso   1.00
C282   C     0.54291   0.12211   0.53881   0.00000  Uiso   1.00
C283   C     0.62195   0.04246   0.46120   0.00000  Uiso   1.00
C284   C     0.87190   0.05702   0.53925   0.00000  Uiso   1.00
C285   C     0.69313   0.37802   0.96076   0.00000  Uiso   1.00
C286   C     0.70739   0.12800   0.03879   0.00000  Uiso   1.00
C287   C     0.62783   0.20694   0.96118   0.00000  Uiso   1.00
C288   C     0.87781   0.19355   0.03921   0.00000  Uiso   1.00
C289   C     0.80688   0.12197   0.96076   0.00000  Uiso   1.00
C290   C     0.79262   0.37200   0.03880   0.00000  Uiso   1.00
C291   C     0.87217   0.29306   0.96119   0.00000  Uiso   1.00
C292   C     0.58002   0.33002   0.75000   0.00000  Uiso   1.00
C293   C     0.62220   0.30644   0.03921   0.00000  Uiso   1.00
C294   C     0.83002   0.41998   0.25000   0.00000  Uiso   1.00
C295   C     0.66998   0.08002   0.75000   0.00000  Uiso   1.00
C296   C     0.58002   0.33002   0.25000   0.00000  Uiso   1.00
C297   C     0.91998   0.16998   0.75000   0.00000  Uiso   1.00
C298   C     0.66998   0.41998   0.75000   0.00000  Uiso   1.00
C299   C     0.83002   0.08002   0.25000   0.00000  Uiso   1.00
C300   C     0.91998   0.33002   0.75000   0.00000  Uiso   1.00
C301   C     0.75000   0.00000   0.64419   0.00000  Uiso   1.00
C302   C     0.58002   0.16998   0.25000   0.00000  Uiso   1.00
C303   C     0.83002   0.08002   0.75000   0.00000  Uiso   1.00
C304   C     0.66998   0.41998   0.25000   0.00000  Uiso   1.00
C305   C     0.58002   0.16998   0.75000   0.00000  Uiso   1.00
C306   C     0.91998   0.33002   0.25000   0.00000  Uiso   1.00
C307   C     0.63833   0.38833   0.25000   0.00000  Uiso   1.00
C308   C     0.86167   0.11167   0.75000   0.00000  Uiso   1.00
C309   C     0.61167   0.13833   0.25000   0.00000  Uiso   1.00
C310   C     0.88833   0.36167   0.75000   0.00000  Uiso   1.00
C311   C     0.86167   0.11167   0.25000   0.00000  Uiso   1.00
C312   C     0.50000   0.25000   0.35581   0.00000  Uiso   1.00
C313   C     0.63833   0.38833   0.75000   0.00000  Uiso   1.00
C314   C     0.88833   0.36167   0.25000   0.00000  Uiso   1.00
C315   C     0.61167   0.13833   0.75000   0.00000  Uiso   1.00
C316   C     0.63833   0.11167   0.75000   0.00000  Uiso   1.00
C317   C     0.86167   0.38833   0.25000   0.00000  Uiso   1.00
C318   C     0.61167   0.36167   0.75000   0.00000  Uiso   1.00
C319   C     0.88833   0.13833   0.25000   0.00000  Uiso   1.00
C320   C     0.86167   0.38833   0.75000   0.00000  Uiso   1.00
C321   C     0.63833   0.11167   0.25000   0.00000  Uiso   1.00
C322   C     0.88833   0.13833   0.75000   0.00000  Uiso   1.00
C323   C     0.50000   0.25000   0.64417   0.00000  Uiso   1.00
C324   C     0.61167   0.36167   0.25000   0.00000  Uiso   1.00
C325   C     0.99755   0.28844   0.41776   0.00000  Uiso   1.00
C326   C     0.99340   0.21204   0.58214   0.00000  Uiso   1.00
C327   C     0.71206   0.49327   0.41786   0.00000  Uiso   1.00
C328   C     0.78844   0.49768   0.58224   0.00000  Uiso   1.00
C329   C     0.50245   0.21156   0.41776   0.00000  Uiso   1.00
C330   C     0.50660   0.28796   0.58214   0.00000  Uiso   1.00
C331   C     0.78794   0.00673   0.41786   0.00000  Uiso   1.00
C332   C     0.71156   0.00232   0.58224   0.00000  Uiso   1.00
C333   C     0.74764   0.03844   0.91776   0.00000  Uiso   1.00
C334   C     0.50000   0.25000   0.85583   0.00000  Uiso   1.00
C335   C     0.74332   0.46205   0.08214   0.00000  Uiso   1.00
C336   C     0.96203   0.24344   0.91786   0.00000  Uiso   1.00
C337   C     0.53843   0.24751   0.08223   0.00000  Uiso   1.00
C338   C     0.75237   0.46156   0.91776   0.00000  Uiso   1.00
C339   C     0.75668   0.03795   0.08214   0.00000  Uiso   1.00
C340   C     0.53797   0.25656   0.91786   0.00000  Uiso   1.00
C341   C     0.96157   0.25249   0.08223   0.00000  Uiso   1.00
C342   C     0.50000   0.25000   0.39797   0.00000  Uiso   1.00
C343   C     0.50000   0.25000   0.60196   0.00000  Uiso   1.00
C344   C     0.75000   0.00000   0.39804   0.00000  Uiso   1.00
C345   C     0.50000   0.25000   0.14419   0.00000  Uiso   1.00
C346   C     0.75000   0.00000   0.60203   0.00000  Uiso   1.00
C347   C     0.75000   0.00000   0.89797   0.00000  Uiso   1.00
C348   C     0.75000  -0.00000   0.10196   0.00000  Uiso   1.00
C349   C     0.50000   0.25000   0.89804   0.00000  Uiso   1.00
C350   C     0.50000   0.25000   0.10203   0.00000  Uiso   1.00
C351   C     0.99874   0.21119   0.45869   0.00000  Uiso   1.00
C352   C     0.50292   0.28874   0.54121   0.00000  Uiso   1.00
C353   C     0.78873   0.00304   0.45879   0.00000  Uiso   1.00
C354   C     0.71119   0.49860   0.54132   0.00000  Uiso   1.00
C355   C     0.50126   0.28881   0.45869   0.00000  Uiso   1.00
C356   C     0.75000  -0.00000   0.85581   0.00000  Uiso   1.00
C357   C     0.99709   0.21126   0.54121   0.00000  Uiso   1.00
C358   C     0.71127   0.49695   0.45879   0.00000  Uiso   1.00
C359   C     0.78881   0.00139   0.54132   0.00000  Uiso   1.00
C360   C     0.74865   0.46119   0.95868   0.00000  Uiso   1.00
C361   C     0.75300   0.03873   0.04121   0.00000  Uiso   1.00
C362   C     0.53874   0.25287   0.95879   0.00000  Uiso   1.00
C363   C     0.96119   0.24878   0.04131   0.00000  Uiso   1.00
C364   C     0.75135   0.03881   0.95868   0.00000  Uiso   1.00
C365   C     0.74700   0.46127   0.04121   0.00000  Uiso   1.00
C366   C     0.96126   0.24713   0.95879   0.00000  Uiso   1.00
C367   C     0.75000  -0.00000   0.14417   0.00000  Uiso   1.00
C368   C     0.53881   0.25122   0.04131   0.00000  Uiso   1.00
C369   C     0.50000   0.25000   0.47931   0.00000  Uiso   1.00
C370   C     0.50000   0.25000   0.52060   0.00000  Uiso   1.00
C371   C     0.75000  -0.00000   0.47940   0.00000  Uiso   1.00
C372   C     0.75000  -0.00000   0.52069   0.00000  Uiso   1.00
C373   C     0.75000   0.00000   0.97931   0.00000  Uiso   1.00
C374   C     0.75000  -0.00000   0.02060   0.00000  Uiso   1.00
C375   C     0.50000   0.25000   0.97940   0.00000  Uiso   1.00
C376   C     0.50000   0.25000   0.02069   0.00000  Uiso   1.00
C377   C     0.99436   0.17331   0.47973   0.00000  Uiso   1.00
C378   C     0.66998   0.08002   0.25000   0.00000  Uiso   1.00
C379   C     0.50261   0.32687   0.52013   0.00000  Uiso   1.00
C380   C     0.82686   0.00287   0.47987   0.00000  Uiso   1.00
C381   C     0.67333   0.49410   0.52028   0.00000  Uiso   1.00
C382   C     0.50564   0.32669   0.47973   0.00000  Uiso   1.00
C383   C     0.99740   0.17313   0.52013   0.00000  Uiso   1.00
C384   C     0.67314   0.49713   0.47987   0.00000  Uiso   1.00
C385   C     0.82667   0.00590   0.52027   0.00000  Uiso   1.00
C386   C     0.74419   0.42332   0.97973   0.00000  Uiso   1.00
C387   C     0.75278   0.07687   0.02013   0.00000  Uiso   1.00
C388   C     0.57687   0.25251   0.97986   0.00000  Uiso   1.00
H389   H     0.92666   0.15281   0.44415   0.00000  Uiso   1.00
H390   H     0.65310   0.42633   0.55591   0.00000  Uiso   1.00
H391   H     0.62571   0.42976   0.50944   0.00000  Uiso   1.00
H392   H     0.59769   0.43698   0.55406   0.00000  Uiso   1.00
H393   H     0.57335   0.34718   0.44414   0.00000  Uiso   1.00
H394   H     0.56977   0.37459   0.49060   0.00000  Uiso   1.00
H395   H     0.56247   0.40255   0.44595   0.00000  Uiso   1.00
H396   H     0.56270   0.14528   0.55479   0.00000  Uiso   1.00
H397   H     0.55530   0.11741   0.50893   0.00000  Uiso   1.00
H398   H     0.54539   0.09156   0.55421   0.00000  Uiso   1.00
H399   H     0.64503   0.06234   0.44523   0.00000  Uiso   1.00
H400   H     0.93024   0.12539   0.49060   0.00000  Uiso   1.00
H401   H     0.61720   0.05482   0.49109   0.00000  Uiso   1.00
H402   H     0.59138   0.04482   0.44581   0.00000  Uiso   1.00
H403   H     0.84691   0.07366   0.55590   0.00000  Uiso   1.00
H404   H     0.87431   0.07022   0.50943   0.00000  Uiso   1.00
H405   H     0.90231   0.06301   0.55406   0.00000  Uiso   1.00
H406   H     0.67644   0.40300   0.94413   0.00000  Uiso   1.00
H407   H     0.67994   0.37558   0.99058   0.00000  Uiso   1.00
H408   H     0.68718   0.34761   0.94593   0.00000  Uiso   1.00
H409   H     0.68754   0.10489   0.05477   0.00000  Uiso   1.00
H410   H     0.69502   0.13273   0.00891   0.00000  Uiso   1.00
H411   H     0.93754   0.09745   0.44595   0.00000  Uiso   1.00
H412   H     0.70498   0.15856   0.05419   0.00000  Uiso   1.00
H413   H     0.60465   0.18717   0.94521   0.00000  Uiso   1.00
H414   H     0.63252   0.19454   0.99107   0.00000  Uiso   1.00
H415   H     0.65839   0.20442   0.94579   0.00000  Uiso   1.00
H416   H     0.90273   0.17676   0.05583   0.00000  Uiso   1.00
H417   H     0.87530   0.18038   0.00939   0.00000  Uiso   1.00
H418   H     0.84738   0.18771   0.05405   0.00000  Uiso   1.00
H419   H     0.82356   0.09699   0.94412   0.00000  Uiso   1.00
H420   H     0.82008   0.12440   0.99058   0.00000  Uiso   1.00
H421   H     0.81284   0.15238   0.94594   0.00000  Uiso   1.00
H422   H     0.93730   0.35473   0.55479   0.00000  Uiso   1.00
H423   H     0.81247   0.39511   0.05477   0.00000  Uiso   1.00
H424   H     0.80498   0.36727   0.00891   0.00000  Uiso   1.00
H425   H     0.79502   0.34144   0.05419   0.00000  Uiso   1.00
H426   H     0.89535   0.31282   0.94520   0.00000  Uiso   1.00
H427   H     0.86749   0.30545   0.99107   0.00000  Uiso   1.00
H428   H     0.84161   0.29558   0.94580   0.00000  Uiso   1.00
H429   H     0.59728   0.32324   0.05582   0.00000  Uiso   1.00
H430   H     0.62471   0.31960   0.00938   0.00000  Uiso   1.00
H431   H     0.65263   0.31228   0.05405   0.00000  Uiso   1.00
H432   H     0.94470   0.38258   0.50893   0.00000  Uiso   1.00
H433   H     0.95461   0.40845   0.55420   0.00000  Uiso   1.00
H434   H     0.85497   0.43766   0.44523   0.00000  Uiso   1.00
H435   H     0.88280   0.44518   0.49109   0.00000  Uiso   1.00
H436   H     0.90862   0.45517   0.44581   0.00000  Uiso   1.00
I437   I     0.98386   0.34370   0.38337   0.00000  Uiso   1.00
I438   I     0.72402   0.40842   0.11650   0.00000  Uiso   1.00
I439   I     0.90835   0.22430   0.88350   0.00000  Uiso   1.00
I440   I     0.59368   0.23376   0.11663   0.00000  Uiso   1.00
I441   I     0.76595   0.40627   0.88337   0.00000  Uiso   1.00
I442   I     0.77598   0.09158   0.11650   0.00000  Uiso   1.00
I443   I     0.59165   0.27570   0.88350   0.00000  Uiso   1.00
I444   I     0.90632   0.26624   0.11663   0.00000  Uiso   1.00
I445   I     0.97420   0.15837   0.61650   0.00000  Uiso   1.00
I446   I     0.65845   0.47392   0.38350   0.00000  Uiso   1.00
I447   I     0.84375   0.48415   0.61663   0.00000  Uiso   1.00
I448   I     0.51614   0.15630   0.38337   0.00000  Uiso   1.00
I449   I     0.52580   0.34163   0.61650   0.00000  Uiso   1.00
I450   I     0.84155   0.02608   0.38350   0.00000  Uiso   1.00
I451   I     0.65625   0.01585   0.61663   0.00000  Uiso   1.00
I452   I     0.73405   0.09373   0.88337   0.00000  Uiso   1.00
O453   O     0.75000  -0.00000   0.25000   0.00000  Uiso   1.00
O454   O     0.75000   0.46539   0.66251   0.00000  Uiso   1.00
O455   O     0.96539   0.25000   0.33749   0.00000  Uiso   1.00
O456   O     0.53462   0.25000   0.66251   0.00000  Uiso   1.00
O457   O     0.50000   0.21538   0.83749   0.00000  Uiso   1.00
O458   O     0.50000   0.28461   0.16251   0.00000  Uiso   1.00
O459   O     0.78462  -0.00000   0.83749   0.00000  Uiso   1.00
O460   O     0.71539  -0.00000   0.16251   0.00000  Uiso   1.00
O461   O     0.50000   0.28462   0.83749   0.00000  Uiso   1.00
O462   O     0.50000   0.21538   0.16251   0.00000  Uiso   1.00
O463   O     0.71539  -0.00000   0.83749   0.00000  Uiso   1.00
O464   O     0.75000  -0.00000   0.75000   0.00000  Uiso   1.00
O465   O     0.78462  -0.00000   0.16251   0.00000  Uiso   1.00
O466   O     0.70127   0.08332   0.27298   0.00000  Uiso   1.00
O467   O     0.79874   0.41668   0.72702   0.00000  Uiso   1.00
O468   O     0.91668   0.20126   0.27298   0.00000  Uiso   1.00
O469   O     0.58332   0.29874   0.72702   0.00000  Uiso   1.00
O470   O     0.79874   0.41668   0.27298   0.00000  Uiso   1.00
O471   O     0.70127   0.08332   0.72702   0.00000  Uiso   1.00
O472   O     0.58332   0.29874   0.27298   0.00000  Uiso   1.00
O473   O     0.91668   0.20126   0.72702   0.00000  Uiso   1.00
O474   O     0.70127   0.41668   0.72702   0.00000  Uiso   1.00
O475   O     0.50000   0.25000   0.25000   0.00000  Uiso   1.00
O476   O     0.79874   0.08332   0.27298   0.00000  Uiso   1.00
O477   O     0.91668   0.29874   0.72702   0.00000  Uiso   1.00
O478   O     0.58332   0.20127   0.27298   0.00000  Uiso   1.00
O479   O     0.79874   0.08332   0.72702   0.00000  Uiso   1.00
O480   O     0.70127   0.41668   0.27298   0.00000  Uiso   1.00
O481   O     0.58332   0.20127   0.72702   0.00000  Uiso   1.00
O482   O     0.91668   0.29874   0.27298   0.00000  Uiso   1.00
O483   O     0.95127   0.33332   0.77298   0.00000  Uiso   1.00
O484   O     0.54874   0.16668   0.22702   0.00000  Uiso   1.00
O485   O     0.66668   0.45127   0.77298   0.00000  Uiso   1.00
O486   O     0.50000   0.25000   0.75000   0.00000  Uiso   1.00
O487   O     0.83332   0.04873   0.22702   0.00000  Uiso   1.00
O488   O     0.54874   0.16668   0.77298   0.00000  Uiso   1.00
O489   O     0.95127   0.33332   0.22702   0.00000  Uiso   1.00
O490   O     0.83332   0.04873   0.77298   0.00000  Uiso   1.00
O491   O     0.66668   0.45127   0.22702   0.00000  Uiso   1.00
O492   O     0.95127   0.16668   0.22702   0.00000  Uiso   1.00
O493   O     0.54874   0.33332   0.77298   0.00000  Uiso   1.00
O494   O     0.66668   0.04873   0.22702   0.00000  Uiso   1.00
O495   O     0.83332   0.45127   0.77298   0.00000  Uiso   1.00
O496   O     0.54874   0.33332   0.22702   0.00000  Uiso   1.00
O497   O     0.75000   0.46539   0.33749   0.00000  Uiso   1.00
O498   O     0.95127   0.16668   0.77298   0.00000  Uiso   1.00
O499   O     0.83332   0.45127   0.22702   0.00000  Uiso   1.00
O500   O     0.66668   0.04873   0.77298   0.00000  Uiso   1.00
O501   O     0.98722   0.13527   0.46150   0.00000  Uiso   1.00
O502   O     0.99975   0.36548   0.53833   0.00000  Uiso   1.00
O503   O     0.86549   0.00015   0.46167   0.00000  Uiso   1.00
O504   O     0.63532   0.48680   0.53851   0.00000  Uiso   1.00
O505   O     0.51279   0.36473   0.46149   0.00000  Uiso   1.00
O506   O     0.50025   0.13452   0.53834   0.00000  Uiso   1.00
O507   O     0.63451   0.49984   0.46167   0.00000  Uiso   1.00
O508   O     0.75000   0.03461   0.66251   0.00000  Uiso   1.00
O509   O     0.86468   0.01319   0.53851   0.00000  Uiso   1.00
O510   O     0.73695   0.38530   0.96149   0.00000  Uiso   1.00
O511   O     0.75002   0.11548   0.03833   0.00000  Uiso   1.00
O512   O     0.61548   0.24961   0.96166   0.00000  Uiso   1.00
O513   O     0.88526   0.23734   0.03850   0.00000  Uiso   1.00
O514   O     0.76306   0.11470   0.96149   0.00000  Uiso   1.00
O515   O     0.74999   0.38452   0.03833   0.00000  Uiso   1.00
O516   O     0.88452   0.25039   0.96166   0.00000  Uiso   1.00
O517   O     0.61475   0.26265   0.03850   0.00000  Uiso   1.00
O518   O     0.53462   0.25000   0.33749   0.00000  Uiso   1.00
O519   O     0.96539   0.25000   0.66251   0.00000  Uiso   1.00
O520   O     0.75000   0.03461   0.33749   0.00000  Uiso   1.00
Zn521  Zn    0.70053  -0.00000   0.21730   0.00000  Uiso   1.00
Zn522  Zn    0.54948   0.25000   0.28270   0.00000  Uiso   1.00
Zn523  Zn    0.75000   0.45053   0.71730   0.00000  Uiso   1.00
Zn524  Zn    0.75000   0.04947   0.28270   0.00000  Uiso   1.00
Zn525  Zn    0.54948   0.25000   0.71730   0.00000  Uiso   1.00
Zn526  Zn    0.95053   0.25000   0.28270   0.00000  Uiso   1.00
Zn527  Zn    0.75000   0.04947   0.71730   0.00000  Uiso   1.00
Zn528  Zn    0.75000   0.45053   0.28270   0.00000  Uiso   1.00
Zn529  Zn    0.79948  -0.00000   0.78270   0.00000  Uiso   1.00
Zn530  Zn    0.50000   0.20052   0.21730   0.00000  Uiso   1.00
Zn531  Zn    0.50000   0.29948   0.78270   0.00000  Uiso   1.00
Zn532  Zn    0.79948  -0.00000   0.21730   0.00000  Uiso   1.00
Zn533  Zn    0.70053  -0.00000   0.78270   0.00000  Uiso   1.00
Zn534  Zn    0.50000   0.29947   0.21730   0.00000  Uiso   1.00
Zn535  Zn    0.50000   0.20052   0.78270   0.00000  Uiso   1.00
Zn536  Zn    0.95053   0.25000   0.71730   0.00000  Uiso   1.00
C537   C     0.25000   0.50000   0.35583   0.00000  Uiso   1.00
C538   C     0.33002   0.91998   0.75000   0.00000  Uiso   1.00
C539   C     0.42330   0.74445   0.02027   0.00000  Uiso   1.00
C540   C     0.25582   0.57668   0.97973   0.00000  Uiso   1.00
C541   C     0.24723   0.92313   0.02013   0.00000  Uiso   1.00
C542   C     0.42313   0.74748   0.97987   0.00000  Uiso   1.00
C543   C     0.07670   0.75555   0.02027   0.00000  Uiso   1.00
C544   C     0.44342   0.62787   0.46078   0.00000  Uiso   1.00
C545   C     0.45709   0.87789   0.53881   0.00000  Uiso   1.00
C546   C     0.37805   0.95754   0.46120   0.00000  Uiso   1.00
C547   C     0.12811   0.94297   0.53925   0.00000  Uiso   1.00
C548   C     0.05659   0.87212   0.46077   0.00000  Uiso   1.00
C549   C     0.41998   0.66998   0.25000   0.00000  Uiso   1.00
C550   C     0.04291   0.62211   0.53881   0.00000  Uiso   1.00
C551   C     0.12195   0.54246   0.46120   0.00000  Uiso   1.00
C552   C     0.37190   0.55702   0.53925   0.00000  Uiso   1.00
C553   C     0.19313   0.87802   0.96076   0.00000  Uiso   1.00
C554   C     0.20739   0.62800   0.03879   0.00000  Uiso   1.00
C555   C     0.12783   0.70694   0.96118   0.00000  Uiso   1.00
C556   C     0.37781   0.69355   0.03921   0.00000  Uiso   1.00
C557   C     0.30688   0.62197   0.96076   0.00000  Uiso   1.00
C558   C     0.29262   0.87200   0.03880   0.00000  Uiso   1.00
C559   C     0.37217   0.79306   0.96119   0.00000  Uiso   1.00
C560   C     0.08002   0.83002   0.75000   0.00000  Uiso   1.00
C561   C     0.12220   0.80644   0.03921   0.00000  Uiso   1.00
C562   C     0.33002   0.91998   0.25000   0.00000  Uiso   1.00
C563   C     0.16998   0.58002   0.75000   0.00000  Uiso   1.00
C564   C     0.08002   0.83002   0.25000   0.00000  Uiso   1.00
C565   C     0.41998   0.66998   0.75000   0.00000  Uiso   1.00
C566   C     0.16998   0.91998   0.75000   0.00000  Uiso   1.00
C567   C     0.33002   0.58002   0.25000   0.00000  Uiso   1.00
C568   C     0.41998   0.83002   0.75000   0.00000  Uiso   1.00
C569   C     0.25000   0.50000   0.64419   0.00000  Uiso   1.00
C570   C     0.08002   0.66998   0.25000   0.00000  Uiso   1.00
C571   C     0.33002   0.58002   0.75000   0.00000  Uiso   1.00
C572   C     0.16998   0.91998   0.25000   0.00000  Uiso   1.00
C573   C     0.08002   0.66998   0.75000   0.00000  Uiso   1.00
C574   C     0.41998   0.83002   0.25000   0.00000  Uiso   1.00
C575   C     0.13833   0.88833   0.25000   0.00000  Uiso   1.00
C576   C     0.36167   0.61167   0.75000   0.00000  Uiso   1.00
C577   C     0.11167   0.63833   0.25000   0.00000  Uiso   1.00
C578   C     0.38833   0.86167   0.75000   0.00000  Uiso   1.00
C579   C     0.36167   0.61167   0.25000   0.00000  Uiso   1.00
C580   C     0.00000   0.75000   0.35581   0.00000  Uiso   1.00
C581   C     0.13833   0.88833   0.75000   0.00000  Uiso   1.00
C582   C     0.38833   0.86167   0.25000   0.00000  Uiso   1.00
C583   C     0.11167   0.63833   0.75000   0.00000  Uiso   1.00
C584   C     0.13833   0.61167   0.75000   0.00000  Uiso   1.00
C585   C     0.36167   0.88833   0.25000   0.00000  Uiso   1.00
C586   C     0.11167   0.86167   0.75000   0.00000  Uiso   1.00
C587   C     0.38833   0.63833   0.25000   0.00000  Uiso   1.00
C588   C     0.36167   0.88833   0.75000   0.00000  Uiso   1.00
C589   C     0.13833   0.61167   0.25000   0.00000  Uiso   1.00
C590   C     0.38833   0.63833   0.75000   0.00000  Uiso   1.00
C591   C     0.00000   0.75000   0.64417   0.00000  Uiso   1.00
C592   C     0.11167   0.86167   0.25000   0.00000  Uiso   1.00
C593   C     0.49755   0.78844   0.41776   0.00000  Uiso   1.00
C594   C     0.49340   0.71204   0.58214   0.00000  Uiso   1.00
C595   C     0.21206   0.99327   0.41786   0.00000  Uiso   1.00
C596   C     0.28844   0.99768   0.58224   0.00000  Uiso   1.00
C597   C     0.00245   0.71156   0.41776   0.00000  Uiso   1.00
C598   C     0.00660   0.78796   0.58214   0.00000  Uiso   1.00
C599   C     0.28794   0.50673   0.41786   0.00000  Uiso   1.00
C600   C     0.21156   0.50232   0.58224   0.00000  Uiso   1.00
C601   C     0.24764   0.53844   0.91776   0.00000  Uiso   1.00
C602   C     0.00000   0.75000   0.85583   0.00000  Uiso   1.00
C603   C     0.24332   0.96205   0.08214   0.00000  Uiso   1.00
C604   C     0.46203   0.74344   0.91786   0.00000  Uiso   1.00
C605   C     0.03843   0.74751   0.08223   0.00000  Uiso   1.00
C606   C     0.25237   0.96156   0.91776   0.00000  Uiso   1.00
C607   C     0.25668   0.53795   0.08214   0.00000  Uiso   1.00
C608   C     0.03797   0.75656   0.91786   0.00000  Uiso   1.00
C609   C     0.46157   0.75249   0.08223   0.00000  Uiso   1.00
C610   C     0.00000   0.75000   0.39797   0.00000  Uiso   1.00
C611   C     0.00000   0.75000   0.60196   0.00000  Uiso   1.00
C612   C     0.25000   0.50000   0.39804   0.00000  Uiso   1.00
C613   C     0.00000   0.75000   0.14419   0.00000  Uiso   1.00
C614   C     0.25000   0.50000   0.60203   0.00000  Uiso   1.00
C615   C     0.25000   0.50000   0.89797   0.00000  Uiso   1.00
C616   C     0.25000   0.50000   0.10196   0.00000  Uiso   1.00
C617   C     0.00000   0.75000   0.89804   0.00000  Uiso   1.00
C618   C     0.00000   0.75000   0.10203   0.00000  Uiso   1.00
C619   C     0.49874   0.71119   0.45869   0.00000  Uiso   1.00
C620   C     0.00292   0.78874   0.54121   0.00000  Uiso   1.00
C621   C     0.28873   0.50304   0.45879   0.00000  Uiso   1.00
C622   C     0.21119   0.99860   0.54132   0.00000  Uiso   1.00
C623   C     0.00126   0.78881   0.45869   0.00000  Uiso   1.00
C624   C     0.25000   0.50000   0.85581   0.00000  Uiso   1.00
C625   C     0.49709   0.71126   0.54121   0.00000  Uiso   1.00
C626   C     0.21127   0.99695   0.45879   0.00000  Uiso   1.00
C627   C     0.28881   0.50139   0.54132   0.00000  Uiso   1.00
C628   C     0.24865   0.96119   0.95868   0.00000  Uiso   1.00
C629   C     0.25300   0.53873   0.04121   0.00000  Uiso   1.00
C630   C     0.03874   0.75287   0.95879   0.00000  Uiso   1.00
C631   C     0.46119   0.74878   0.04131   0.00000  Uiso   1.00
C632   C     0.25135   0.53881   0.95868   0.00000  Uiso   1.00
C633   C     0.24700   0.96127   0.04121   0.00000  Uiso   1.00
C634   C     0.46126   0.74713   0.95879   0.00000  Uiso   1.00
C635   C     0.25000   0.50000   0.14417   0.00000  Uiso   1.00
C636   C     0.03881   0.75122   0.04131   0.00000  Uiso   1.00
C637   C     0.00000   0.75000   0.47931   0.00000  Uiso   1.00
C638   C     0.00000   0.75000   0.52060   0.00000  Uiso   1.00
C639   C     0.25000   0.50000   0.47940   0.00000  Uiso   1.00
C640   C     0.25000   0.50000   0.52069   0.00000  Uiso   1.00
C641   C     0.25000   0.50000   0.97931   0.00000  Uiso   1.00
C642   C     0.25000   0.50000   0.02060   0.00000  Uiso   1.00
C643   C     0.00000   0.75000   0.97940   0.00000  Uiso   1.00
C644   C     0.00000   0.75000   0.02069   0.00000  Uiso   1.00
C645   C     0.49436   0.67331   0.47973   0.00000  Uiso   1.00
C646   C     0.16998   0.58002   0.25000   0.00000  Uiso   1.00
C647   C     0.00261   0.82687   0.52013   0.00000  Uiso   1.00
C648   C     0.32686   0.50287   0.47987   0.00000  Uiso   1.00
C649   C     0.17333   0.99410   0.52028   0.00000  Uiso   1.00
C650   C     0.00564   0.82669   0.47973   0.00000  Uiso   1.00
C651   C     0.49740   0.67313   0.52013   0.00000  Uiso   1.00
C652   C     0.17314   0.99713   0.47987   0.00000  Uiso   1.00
C653   C     0.32667   0.50590   0.52027   0.00000  Uiso   1.00
C654   C     0.24419   0.92332   0.97973   0.00000  Uiso   1.00
C655   C     0.25278   0.57687   0.02013   0.00000  Uiso   1.00
C656   C     0.07687   0.75251   0.97986   0.00000  Uiso   1.00
H657   H     0.42666   0.65281   0.44415   0.00000  Uiso   1.00
H658   H     0.15310   0.92633   0.55591   0.00000  Uiso   1.00
H659   H     0.12571   0.92976   0.50944   0.00000  Uiso   1.00
H660   H     0.09769   0.93698   0.55406   0.00000  Uiso   1.00
H661   H     0.07335   0.84718   0.44414   0.00000  Uiso   1.00
H662   H     0.06977   0.87459   0.49060   0.00000  Uiso   1.00
H663   H     0.06247   0.90255   0.44595   0.00000  Uiso   1.00
H664   H     0.06270   0.64528   0.55479   0.00000  Uiso   1.00
H665   H     0.05530   0.61741   0.50893   0.00000  Uiso   1.00
H666   H     0.04539   0.59156   0.55421   0.00000  Uiso   1.00
H667   H     0.14503   0.56234   0.44523   0.00000  Uiso   1.00
H668   H     0.43024   0.62539   0.49060   0.00000  Uiso   1.00
H669   H     0.11720   0.55482   0.49109   0.00000  Uiso   1.00
H670   H     0.09138   0.54482   0.44581   0.00000  Uiso   1.00
H671   H     0.34691   0.57366   0.55590   0.00000  Uiso   1.00
H672   H     0.37431   0.57022   0.50943   0.00000  Uiso   1.00
H673   H     0.40231   0.56301   0.55406   0.00000  Uiso   1.00
H674   H     0.17644   0.90300   0.94413   0.00000  Uiso   1.00
H675   H     0.17994   0.87558   0.99058   0.00000  Uiso   1.00
H676   H     0.18718   0.84761   0.94593   0.00000  Uiso   1.00
H677   H     0.18754   0.60489   0.05477   0.00000  Uiso   1.00
H678   H     0.19502   0.63273   0.00891   0.00000  Uiso   1.00
H679   H     0.43754   0.59745   0.44595   0.00000  Uiso   1.00
H680   H     0.20498   0.65856   0.05419   0.00000  Uiso   1.00
H681   H     0.10465   0.68717   0.94521   0.00000  Uiso   1.00
H682   H     0.13252   0.69454   0.99107   0.00000  Uiso   1.00
H683   H     0.15839   0.70442   0.94579   0.00000  Uiso   1.00
H684   H     0.40273   0.67676   0.05583   0.00000  Uiso   1.00
H685   H     0.37530   0.68038   0.00939   0.00000  Uiso   1.00
H686   H     0.34738   0.68771   0.05405   0.00000  Uiso   1.00
H687   H     0.32356   0.59699   0.94412   0.00000  Uiso   1.00
H688   H     0.32008   0.62440   0.99058   0.00000  Uiso   1.00
H689   H     0.31284   0.65238   0.94594   0.00000  Uiso   1.00
H690   H     0.43730   0.85473   0.55479   0.00000  Uiso   1.00
H691   H     0.31247   0.89511   0.05477   0.00000  Uiso   1.00
H692   H     0.30498   0.86727   0.00891   0.00000  Uiso   1.00
H693   H     0.29502   0.84144   0.05419   0.00000  Uiso   1.00
H694   H     0.39535   0.81282   0.94520   0.00000  Uiso   1.00
H695   H     0.36749   0.80545   0.99107   0.00000  Uiso   1.00
H696   H     0.34161   0.79558   0.94580   0.00000  Uiso   1.00
H697   H     0.09728   0.82324   0.05582   0.00000  Uiso   1.00
H698   H     0.12471   0.81960   0.00938   0.00000  Uiso   1.00
H699   H     0.15263   0.81228   0.05405   0.00000  Uiso   1.00
H700   H     0.44470   0.88258   0.50893   0.00000  Uiso   1.00
H701   H     0.45461   0.90845   0.55420   0.00000  Uiso   1.00
H702   H     0.35497   0.93766   0.44523   0.00000  Uiso   1.00
H703   H     0.38280   0.94518   0.49109   0.00000  Uiso   1.00
H704   H     0.40862   0.95517   0.44581   0.00000  Uiso   1.00
I705   I     0.48386   0.84370   0.38337   0.00000  Uiso   1.00
I706   I     0.22402   0.90842   0.11650   0.00000  Uiso   1.00
I707   I     0.40835   0.72430   0.88350   0.00000  Uiso   1.00
I708   I     0.09368   0.73376   0.11663   0.00000  Uiso   1.00
I709   I     0.26595   0.90627   0.88337   0.00000  Uiso   1.00
I710   I     0.27598   0.59158   0.11650   0.00000  Uiso   1.00
I711   I     0.09165   0.77570   0.88350   0.00000  Uiso   1.00
I712   I     0.40632   0.76624   0.11663   0.00000  Uiso   1.00
I713   I     0.47420   0.65837   0.61650   0.00000  Uiso   1.00
I714   I     0.15845   0.97392   0.38350   0.00000  Uiso   1.00
I715   I     0.34375   0.98415   0.61663   0.00000  Uiso   1.00
I716   I     0.01614   0.65630   0.38337   0.00000  Uiso   1.00
I717   I     0.02580   0.84163   0.61650   0.00000  Uiso   1.00
I718   I     0.34155   0.52608   0.38350   0.00000  Uiso   1.00
I719   I     0.15625   0.51585   0.61663   0.00000  Uiso   1.00
I720   I     0.23405   0.59373   0.88337   0.00000  Uiso   1.00
O721   O     0.25000   0.50000   0.25000   0.00000  Uiso   1.00
O722   O     0.25000   0.96539   0.66251   0.00000  Uiso   1.00
O723   O     0.46539   0.75000   0.33749   0.00000  Uiso   1.00
O724   O     0.03462   0.75000   0.66251   0.00000  Uiso   1.00
O725   O     0.00000   0.71538   0.83749   0.00000  Uiso   1.00
O726   O     0.00000   0.78461   0.16251   0.00000  Uiso   1.00
O727   O     0.28462   0.50000   0.83749   0.00000  Uiso   1.00
O728   O     0.21539   0.50000   0.16251   0.00000  Uiso   1.00
O729   O     0.00000   0.78462   0.83749   0.00000  Uiso   1.00
O730   O     0.00000   0.71538   0.16251   0.00000  Uiso   1.00
O731   O     0.21539   0.50000   0.83749   0.00000  Uiso   1.00
O732   O     0.25000   0.50000   0.75000   0.00000  Uiso   1.00
O733   O     0.28462   0.50000   0.16251   0.00000  Uiso   1.00
O734   O     0.20127   0.58332   0.27298   0.00000  Uiso   1.00
O735   O     0.29874   0.91668   0.72702   0.00000  Uiso   1.00
O736   O     0.41668   0.70126   0.27298   0.00000  Uiso   1.00
O737   O     0.08332   0.79874   0.72702   0.00000  Uiso   1.00
O738   O     0.29874   0.91668   0.27298   0.00000  Uiso   1.00
O739   O     0.20127   0.58332   0.72702   0.00000  Uiso   1.00
O740   O     0.08332   0.79874   0.27298   0.00000  Uiso   1.00
O741   O     0.41668   0.70126   0.72702   0.00000  Uiso   1.00
O742   O     0.20127   0.91668   0.72702   0.00000  Uiso   1.00
O743   O     0.00000   0.75000   0.25000   0.00000  Uiso   1.00
O744   O     0.29874   0.58332   0.27298   0.00000  Uiso   1.00
O745   O     0.41668   0.79874   0.72702   0.00000  Uiso   1.00
O746   O     0.08332   0.70127   0.27298   0.00000  Uiso   1.00
O747   O     0.29874   0.58332   0.72702   0.00000  Uiso   1.00
O748   O     0.20127   0.91668   0.27298   0.00000  Uiso   1.00
O749   O     0.08332   0.70127   0.72702   0.00000  Uiso   1.00
O750   O     0.41668   0.79874   0.27298   0.00000  Uiso   1.00
O751   O     0.45127   0.83332   0.77298   0.00000  Uiso   1.00
O752   O     0.04874   0.66668   0.22702   0.00000  Uiso   1.00
O753   O     0.16668   0.95127   0.77298   0.00000  Uiso   1.00
O754   O     0.00000   0.75000   0.75000   0.00000  Uiso   1.00
O755   O     0.33332   0.54873   0.22702   0.00000  Uiso   1.00
O756   O     0.04874   0.66668   0.77298   0.00000  Uiso   1.00
O757   O     0.45127   0.83332   0.22702   0.00000  Uiso   1.00
O758   O     0.33332   0.54873   0.77298   0.00000  Uiso   1.00
O759   O     0.16668   0.95127   0.22702   0.00000  Uiso   1.00
O760   O     0.45127   0.66668   0.22702   0.00000  Uiso   1.00
O761   O     0.04874   0.83332   0.77298   0.00000  Uiso   1.00
O762   O     0.16668   0.54873   0.22702   0.00000  Uiso   1.00
O763   O     0.33332   0.95127   0.77298   0.00000  Uiso   1.00
O764   O     0.04874   0.83332   0.22702   0.00000  Uiso   1.00
O765   O     0.25000   0.96539   0.33749   0.00000  Uiso   1.00
O766   O     0.45127   0.66668   0.77298   0.00000  Uiso   1.00
O767   O     0.33332   0.95127   0.22702   0.00000  Uiso   1.00
O768   O     0.16668   0.54873   0.77298   0.00000  Uiso   1.00
O769   O     0.48722   0.63527   0.46150   0.00000  Uiso   1.00
O770   O     0.49975   0.86548   0.53833   0.00000  Uiso   1.00
O771   O     0.36549   0.50015   0.46167   0.00000  Uiso   1.00
O772   O     0.13532   0.98680   0.53851   0.00000  Uiso   1.00
O773   O     0.01279   0.86473   0.46149   0.00000  Uiso   1.00
O774   O     0.00025   0.63452   0.53834   0.00000  Uiso   1.00
O775   O     0.13451   0.99984   0.46167   0.00000  Uiso   1.00
O776   O     0.25000   0.53461   0.66251   0.00000  Uiso   1.00
O777   O     0.36468   0.51319   0.53851   0.00000  Uiso   1.00
O778   O     0.23695   0.88530   0.96149   0.00000  Uiso   1.00
O779   O     0.25002   0.61548   0.03833   0.00000  Uiso   1.00
O780   O     0.11548   0.74961   0.96166   0.00000  Uiso   1.00
O781   O     0.38526   0.73734   0.03850   0.00000  Uiso   1.00
O782   O     0.26306   0.61470   0.96149   0.00000  Uiso   1.00
O783   O     0.24999   0.88452   0.03833   0.00000  Uiso   1.00
O784   O     0.38452   0.75039   0.96166   0.00000  Uiso   1.00
O785   O     0.11475   0.76265   0.03850   0.00000  Uiso   1.00
O786   O     0.03462   0.75000   0.33749   0.00000  Uiso   1.00
O787   O     0.46539   0.75000   0.66251   0.00000  Uiso   1.00
O788   O     0.25000   0.53461   0.33749   0.00000  Uiso   1.00
Zn789  Zn    0.20053   0.50000   0.21730   0.00000  Uiso   1.00
Zn790  Zn    0.04948   0.75000   0.28270   0.00000  Uiso   1.00
Zn791  Zn    0.25000   0.95053   0.71730   0.00000  Uiso   1.00
Zn792  Zn    0.25000   0.54947   0.28270   0.00000  Uiso   1.00
Zn793  Zn    0.04948   0.75000   0.71730   0.00000  Uiso   1.00
Zn794  Zn    0.45053   0.75000   0.28270   0.00000  Uiso   1.00
Zn795  Zn    0.25000   0.54947   0.71730   0.00000  Uiso   1.00
Zn796  Zn    0.25000   0.95053   0.28270   0.00000  Uiso   1.00
Zn797  Zn    0.29948   0.50000   0.78270   0.00000  Uiso   1.00
Zn798  Zn    0.00000   0.70052   0.21730   0.00000  Uiso   1.00
Zn799  Zn    0.00000   0.79948   0.78270   0.00000  Uiso   1.00
Zn800  Zn    0.29948   0.50000   0.21730   0.00000  Uiso   1.00
Zn801  Zn    0.20053   0.50000   0.78270   0.00000  Uiso   1.00
Zn802  Zn    0.00000   0.79947   0.21730   0.00000  Uiso   1.00
Zn803  Zn    0.00000   0.70052   0.78270   0.00000  Uiso   1.00
Zn804  Zn    0.45053   0.75000   0.71730   0.00000  Uiso   1.00
C805   C     0.75000   0.50000   0.35583   0.00000  Uiso   1.00
C806   C     0.83002   0.91998   0.75000   0.00000  Uiso   1.00
C807   C     0.92330   0.74445   0.02027   0.00000  Uiso   1.00
C808   C     0.75582   0.57668   0.97973   0.00000  Uiso   1.00
C809   C     0.74723   0.92313   0.02013   0.00000  Uiso   1.00
C810   C     0.92313   0.74748   0.97987   0.00000  Uiso   1.00
C811   C     0.57670   0.75555   0.02027   0.00000  Uiso   1.00
C812   C     0.94342   0.62787   0.46078   0.00000  Uiso   1.00
C813   C     0.95709   0.87789   0.53881   0.00000  Uiso   1.00
C814   C     0.87805   0.95754   0.46120   0.00000  Uiso   1.00
C815   C     0.62811   0.94297   0.53925   0.00000  Uiso   1.00
C816   C     0.55659   0.87212   0.46077   0.00000  Uiso   1.00
C817   C     0.91998   0.66998   0.25000   0.00000  Uiso   1.00
C818   C     0.54291   0.62211   0.53881   0.00000  Uiso   1.00
C819   C     0.62195   0.54246   0.46120   0.00000  Uiso   1.00
C820   C     0.87190   0.55702   0.53925   0.00000  Uiso   1.00
C821   C     0.69313   0.87802   0.96076   0.00000  Uiso   1.00
C822   C     0.70739   0.62800   0.03879   0.00000  Uiso   1.00
C823   C     0.62783   0.70694   0.96118   0.00000  Uiso   1.00
C824   C     0.87781   0.69355   0.03921   0.00000  Uiso   1.00
C825   C     0.80688   0.62197   0.96076   0.00000  Uiso   1.00
C826   C     0.79262   0.87200   0.03880   0.00000  Uiso   1.00
C827   C     0.87217   0.79306   0.96119   0.00000  Uiso   1.00
C828   C     0.58002   0.83002   0.75000   0.00000  Uiso   1.00
C829   C     0.62220   0.80644   0.03921   0.00000  Uiso   1.00
C830   C     0.83002   0.91998   0.25000   0.00000  Uiso   1.00
C831   C     0.66998   0.58002   0.75000   0.00000  Uiso   1.00
C832   C     0.58002   0.83002   0.25000   0.00000  Uiso   1.00
C833   C     0.91998   0.66998   0.75000   0.00000  Uiso   1.00
C834   C     0.66998   0.91998   0.75000   0.00000  Uiso   1.00
C835   C     0.83002   0.58002   0.25000   0.00000  Uiso   1.00
C836   C     0.91998   0.83002   0.75000   0.00000  Uiso   1.00
C837   C     0.75000   0.50000   0.64419   0.00000  Uiso   1.00
C838   C     0.58002   0.66998   0.25000   0.00000  Uiso   1.00
C839   C     0.83002   0.58002   0.75000   0.00000  Uiso   1.00
C840   C     0.66998   0.91998   0.25000   0.00000  Uiso   1.00
C841   C     0.58002   0.66998   0.75000   0.00000  Uiso   1.00
C842   C     0.91998   0.83002   0.25000   0.00000  Uiso   1.00
C843   C     0.63833   0.88833   0.25000   0.00000  Uiso   1.00
C844   C     0.86167   0.61167   0.75000   0.00000  Uiso   1.00
C845   C     0.61167   0.63833   0.25000   0.00000  Uiso   1.00
C846   C     0.88833   0.86167   0.75000   0.00000  Uiso   1.00
C847   C     0.86167   0.61167   0.25000   0.00000  Uiso   1.00
C848   C     0.50000   0.75000   0.35581   0.00000  Uiso   1.00
C849   C     0.63833   0.88833   0.75000   0.00000  Uiso   1.00
C850   C     0.88833   0.86167   0.25000   0.00000  Uiso   1.00
C851   C     0.61167   0.63833   0.75000   0.00000  Uiso   1.00
C852   C     0.63833   0.61167   0.75000   0.00000  Uiso   1.00
C853   C     0.86167   0.88833   0.25000   0.00000  Uiso   1.00
C854   C     0.61167   0.86167   0.75000   0.00000  Uiso   1.00
C855   C     0.88833   0.63833   0.25000   0.00000  Uiso   1.00
C856   C     0.86167   0.88833   0.75000   0.00000  Uiso   1.00
C857   C     0.63833   0.61167   0.25000   0.00000  Uiso   1.00
C858   C     0.88833   0.63833   0.75000   0.00000  Uiso   1.00
C859   C     0.50000   0.75000   0.64417   0.00000  Uiso   1.00
C860   C     0.61167   0.86167   0.25000   0.00000  Uiso   1.00
C861   C     0.99755   0.78844   0.41776   0.00000  Uiso   1.00
C862   C     0.99340   0.71204   0.58214   0.00000  Uiso   1.00
C863   C     0.71206   0.99327   0.41786   0.00000  Uiso   1.00
C864   C     0.78844   0.99768   0.58224   0.00000  Uiso   1.00
C865   C     0.50245   0.71156   0.41776   0.00000  Uiso   1.00
C866   C     0.50660   0.78796   0.58214   0.00000  Uiso   1.00
C867   C     0.78794   0.50673   0.41786   0.00000  Uiso   1.00
C868   C     0.71156   0.50232   0.58224   0.00000  Uiso   1.00
C869   C     0.74764   0.53844   0.91776   0.00000  Uiso   1.00
C870   C     0.50000   0.75000   0.85583   0.00000  Uiso   1.00
C871   C     0.74332   0.96205   0.08214   0.00000  Uiso   1.00
C872   C     0.96203   0.74344   0.91786   0.00000  Uiso   1.00
C873   C     0.53843   0.74751   0.08223   0.00000  Uiso   1.00
C874   C     0.75237   0.96156   0.91776   0.00000  Uiso   1.00
C875   C     0.75668   0.53795   0.08214   0.00000  Uiso   1.00
C876   C     0.53797   0.75656   0.91786   0.00000  Uiso   1.00
C877   C     0.96157   0.75249   0.08223   0.00000  Uiso   1.00
C878   C     0.50000   0.75000   0.39797   0.00000  Uiso   1.00
C879   C     0.50000   0.75000   0.60196   0.00000  Uiso   1.00
C880   C     0.75000   0.50000   0.39804   0.00000  Uiso   1.00
C881   C     0.50000   0.75000   0.14419   0.00000  Uiso   1.00
C882   C     0.75000   0.50000   0.60203   0.00000  Uiso   1.00
C883   C     0.75000   0.50000   0.89797   0.00000  Uiso   1.00
C884   C     0.75000   0.50000   0.10196   0.00000  Uiso   1.00
C885   C     0.50000   0.75000   0.89804   0.00000  Uiso   1.00
C886   C     0.50000   0.75000   0.10203   0.00000  Uiso   1.00
C887   C     0.99874   0.71119   0.45869   0.00000  Uiso   1.00
C888   C     0.50292   0.78874   0.54121   0.00000  Uiso   1.00
C889   C     0.78873   0.50304   0.45879   0.00000  Uiso   1.00
C890   C     0.71119   0.99860   0.54132   0.00000  Uiso   1.00
C891   C     0.50126   0.78881   0.45869   0.00000  Uiso   1.00
C892   C     0.75000   0.50000   0.85581   0.00000  Uiso   1.00
C893   C     0.99709   0.71126   0.54121   0.00000  Uiso   1.00
C894   C     0.71127   0.99695   0.45879   0.00000  Uiso   1.00
C895   C     0.78881   0.50139   0.54132   0.00000  Uiso   1.00
C896   C     0.74865   0.96119   0.95868   0.00000  Uiso   1.00
C897   C     0.75300   0.53873   0.04121   0.00000  Uiso   1.00
C898   C     0.53874   0.75287   0.95879   0.00000  Uiso   1.00
C899   C     0.96119   0.74878   0.04131   0.00000  Uiso   1.00
C900   C     0.75135   0.53881   0.95868   0.00000  Uiso   1.00
C901   C     0.74700   0.96127   0.04121   0.00000  Uiso   1.00
C902   C     0.96126   0.74713   0.95879   0.00000  Uiso   1.00
C903   C     0.75000   0.50000   0.14417   0.00000  Uiso   1.00
C904   C     0.53881   0.75122   0.04131   0.00000  Uiso   1.00
C905   C     0.50000   0.75000   0.47931   0.00000  Uiso   1.00
C906   C     0.50000   0.75000   0.52060   0.00000  Uiso   1.00
C907   C     0.75000   0.50000   0.47940   0.00000  Uiso   1.00
C908   C     0.75000   0.50000   0.52069   0.00000  Uiso   1.00
C909   C     0.75000   0.50000   0.97931   0.00000  Uiso   1.00
C910   C     0.75000   0.50000   0.02060   0.00000  Uiso   1.00
C911   C     0.50000   0.75000   0.97940   0.00000  Uiso   1.00
C912   C     0.50000   0.75000   0.02069   0.00000  Uiso   1.00
C913   C     0.99436   0.67331   0.47973   0.00000  Uiso   1.00
C914   C     0.66998   0.58002   0.25000   0.00000  Uiso   1.00
C915   C     0.50261   0.82687   0.52013   0.00000  Uiso   1.00
C916   C     0.82686   0.50287   0.47987   0.00000  Uiso   1.00
C917   C     0.67333   0.99410   0.52028   0.00000  Uiso   1.00
C918   C     0.50564   0.82669   0.47973   0.00000  Uiso   1.00
C919   C     0.99740   0.67313   0.52013   0.00000  Uiso   1.00
C920   C     0.67314   0.99713   0.47987   0.00000  Uiso   1.00
C921   C     0.82667   0.50590   0.52027   0.00000  Uiso   1.00
C922   C     0.74419   0.92332   0.97973   0.00000  Uiso   1.00
C923   C     0.75278   0.57687   0.02013   0.00000  Uiso   1.00
C924   C     0.57687   0.75251   0.97986   0.00000  Uiso   1.00
H925   H     0.92666   0.65281   0.44415   0.00000  Uiso   1.00
H926   H     0.65310   0.92633   0.55591   0.00000  Uiso   1.00
H927   H     0.62571   0.92976   0.50944   0.00000  Uiso   1.00
H928   H     0.59769   0.93698   0.55406   0.00000  Uiso   1.00
H929   H     0.57335   0.84718   0.44414   0.00000  Uiso   1.00
H930   H     0.56977   0.87459   0.49060   0.00000  Uiso   1.00
H931   H     0.56247   0.90255   0.44595   0.00000  Uiso   1.00
H932   H     0.56270   0.64528   0.55479   0.00000  Uiso   1.00
H933   H     0.55530   0.61741   0.50893   0.00000  Uiso   1.00
H934   H     0.54539   0.59156   0.55421   0.00000  Uiso   1.00
H935   H     0.64503   0.56234   0.44523   0.00000  Uiso   1.00
H936   H     0.93024   0.62539   0.49060   0.00000  Uiso   1.00
H937   H     0.61720   0.55482   0.49109   0.00000  Uiso   1.00
H938   H     0.59138   0.54482   0.44581   0.00000  Uiso   1.00
H939   H     0.84691   0.57366   0.55590   0.00000  Uiso   1.00
H940   H     0.87431   0.57022   0.50943   0.00000  Uiso   1.00
H941   H     0.90231   0.56301   0.55406   0.00000  Uiso   1.00
H942   H     0.67644   0.90300   0.94413   0.00000  Uiso   1.00
H943   H     0.67994   0.87558   0.99058   0.00000  Uiso   1.00
H944   H     0.68718   0.84761   0.94593   0.00000  Uiso   1.00
H945   H     0.68754   0.60489   0.05477   0.00000  Uiso   1.00
H946   H     0.69502   0.63273   0.00891   0.00000  Uiso   1.00
H947   H     0.93754   0.59745   0.44595   0.00000  Uiso   1.00
H948   H     0.70498   0.65856   0.05419   0.00000  Uiso   1.00
H949   H     0.60465   0.68717   0.94521   0.00000  Uiso   1.00
H950   H     0.63252   0.69454   0.99107   0.00000  Uiso   1.00
H951   H     0.65839   0.70442   0.94579   0.00000  Uiso   1.00
H952   H     0.90273   0.67676   0.05583   0.00000  Uiso   1.00
H953   H     0.87530   0.68038   0.00939   0.00000  Uiso   1.00
H954   H     0.84738   0.68771   0.05405   0.00000  Uiso   1.00
H955   H     0.82356   0.59699   0.94412   0.00000  Uiso   1.00
H956   H     0.82008   0.62440   0.99058   0.00000  Uiso   1.00
H957   H     0.81284   0.65238   0.94594   0.00000  Uiso   1.00
H958   H     0.93730   0.85473   0.55479   0.00000  Uiso   1.00
H959   H     0.81247   0.89511   0.05477   0.00000  Uiso   1.00
H960   H     0.80498   0.86727   0.00891   0.00000  Uiso   1.00
H961   H     0.79502   0.84144   0.05419   0.00000  Uiso   1.00
H962   H     0.89535   0.81282   0.94520   0.00000  Uiso   1.00
H963   H     0.86749   0.80545   0.99107   0.00000  Uiso   1.00
H964   H     0.84161   0.79558   0.94580   0.00000  Uiso   1.00
H965   H     0.59728   0.82324   0.05582   0.00000  Uiso   1.00
H966   H     0.62471   0.81960   0.00938   0.00000  Uiso   1.00
H967   H     0.65263   0.81228   0.05405   0.00000  Uiso   1.00
H968   H     0.94470   0.88258   0.50893   0.00000  Uiso   1.00
H969   H     0.95461   0.90845   0.55420   0.00000  Uiso   1.00
H970   H     0.85497   0.93766   0.44523   0.00000  Uiso   1.00
H971   H     0.88280   0.94518   0.49109   0.00000  Uiso   1.00
H972   H     0.90862   0.95517   0.44581   0.00000  Uiso   1.00
I973   I     0.98386   0.84370   0.38337   0.00000  Uiso   1.00
I974   I     0.72402   0.90842   0.11650   0.00000  Uiso   1.00
I975   I     0.90835   0.72430   0.88350   0.00000  Uiso   1.00
I976   I     0.59368   0.73376   0.11663   0.00000  Uiso   1.00
I977   I     0.76595   0.90627   0.88337   0.00000  Uiso   1.00
I978   I     0.77598   0.59158   0.11650   0.00000  Uiso   1.00
I979   I     0.59165   0.77570   0.88350   0.00000  Uiso   1.00
I980   I     0.90632   0.76624   0.11663   0.00000  Uiso   1.00
I981   I     0.97420   0.65837   0.61650   0.00000  Uiso   1.00
I982   I     0.65845   0.97392   0.38350   0.00000  Uiso   1.00
I983   I     0.84375   0.98415   0.61663   0.00000  Uiso   1.00
I984   I     0.51614   0.65630   0.38337   0.00000  Uiso   1.00
I985   I     0.52580   0.84163   0.61650   0.00000  Uiso   1.00
I986   I     0.84155   0.52608   0.38350   0.00000  Uiso   1.00
I987   I     0.65625   0.51585   0.61663   0.00000  Uiso   1.00
I988   I     0.73405   0.59373   0.88337   0.00000  Uiso   1.00
O989   O     0.75000   0.50000   0.25000   0.00000  Uiso   1.00
O990   O     0.75000   0.96539   0.66251   0.00000  Uiso   1.00
O991   O     0.96539   0.75000   0.33749   0.00000  Uiso   1.00
O992   O     0.53462   0.75000   0.66251   0.00000  Uiso   1.00
O993   O     0.50000   0.71538   0.83749   0.00000  Uiso   1.00
O994   O     0.50000   0.78461   0.16251   0.00000  Uiso   1.00
O995   O     0.78462   0.50000   0.83749   0.00000  Uiso   1.00
O996   O     0.71539   0.50000   0.16251   0.00000  Uiso   1.00
O997   O     0.50000   0.78462   0.83749   0.00000  Uiso   1.00
O998   O     0.50000   0.71538   0.16251   0.00000  Uiso   1.00
O999   O     0.71539   0.50000   0.83749   0.00000  Uiso   1.00
O1000  O     0.75000   0.50000   0.75000   0.00000  Uiso   1.00
O1001  O     0.78462   0.50000   0.16251   0.00000  Uiso   1.00
O1002  O     0.70127   0.58332   0.27298   0.00000  Uiso   1.00
O1003  O     0.79874   0.91668   0.72702   0.00000  Uiso   1.00
O1004  O     0.91668   0.70126   0.27298   0.00000  Uiso   1.00
O1005  O     0.58332   0.79874   0.72702   0.00000  Uiso   1.00
O1006  O     0.79874   0.91668   0.27298   0.00000  Uiso   1.00
O1007  O     0.70127   0.58332   0.72702   0.00000  Uiso   1.00
O1008  O     0.58332   0.79874   0.27298   0.00000  Uiso   1.00
O1009  O     0.91668   0.70126   0.72702   0.00000  Uiso   1.00
O1010  O     0.70127   0.91668   0.72702   0.00000  Uiso   1.00
O1011  O     0.50000   0.75000   0.25000   0.00000  Uiso   1.00
O1012  O     0.79874   0.58332   0.27298   0.00000  Uiso   1.00
O1013  O     0.91668   0.79874   0.72702   0.00000  Uiso   1.00
O1014  O     0.58332   0.70127   0.27298   0.00000  Uiso   1.00
O1015  O     0.79874   0.58332   0.72702   0.00000  Uiso   1.00
O1016  O     0.70127   0.91668   0.27298   0.00000  Uiso   1.00
O1017  O     0.58332   0.70127   0.72702   0.00000  Uiso   1.00
O1018  O     0.91668   0.79874   0.27298   0.00000  Uiso   1.00
O1019  O     0.95127   0.83332   0.77298   0.00000  Uiso   1.00
O1020  O     0.54874   0.66668   0.22702   0.00000  Uiso   1.00
O1021  O     0.66668   0.95127   0.77298   0.00000  Uiso   1.00
O1022  O     0.50000   0.75000   0.75000   0.00000  Uiso   1.00
O1023  O     0.83332   0.54873   0.22702   0.00000  Uiso   1.00
O1024  O     0.54874   0.66668   0.77298   0.00000  Uiso   1.00
O1025  O     0.95127   0.83332   0.22702   0.00000  Uiso   1.00
O1026  O     0.83332   0.54873   0.77298   0.00000  Uiso   1.00
O1027  O     0.66668   0.95127   0.22702   0.00000  Uiso   1.00
O1028  O     0.95127   0.66668   0.22702   0.00000  Uiso   1.00
O1029  O     0.54874   0.83332   0.77298   0.00000  Uiso   1.00
O1030  O     0.66668   0.54873   0.22702   0.00000  Uiso   1.00
O1031  O     0.83332   0.95127   0.77298   0.00000  Uiso   1.00
O1032  O     0.54874   0.83332   0.22702   0.00000  Uiso   1.00
O1033  O     0.75000   0.96539   0.33749   0.00000  Uiso   1.00
O1034  O     0.95127   0.66668   0.77298   0.00000  Uiso   1.00
O1035  O     0.83332   0.95127   0.22702   0.00000  Uiso   1.00
O1036  O     0.66668   0.54873   0.77298   0.00000  Uiso   1.00
O1037  O     0.98722   0.63527   0.46150   0.00000  Uiso   1.00
O1038  O     0.99975   0.86548   0.53833   0.00000  Uiso   1.00
O1039  O     0.86549   0.50015   0.46167   0.00000  Uiso   1.00
O1040  O     0.63532   0.98680   0.53851   0.00000  Uiso   1.00
O1041  O     0.51279   0.86473   0.46149   0.00000  Uiso   1.00
O1042  O     0.50025   0.63452   0.53834   0.00000  Uiso   1.00
O1043  O     0.63451   0.99984   0.46167   0.00000  Uiso   1.00
O1044  O     0.75000   0.53461   0.66251   0.00000  Uiso   1.00
O1045  O     0.86468   0.51319   0.53851   0.00000  Uiso   1.00
O1046  O     0.73695   0.88530   0.96149   0.00000  Uiso   1.00
O1047  O     0.75002   0.61548   0.03833   0.00000  Uiso   1.00
O1048  O     0.61548   0.74961   0.96166   0.00000  Uiso   1.00
O1049  O     0.88526   0.73734   0.03850   0.00000  Uiso   1.00
O1050  O     0.76306   0.61470   0.96149   0.00000  Uiso   1.00
O1051  O     0.74999   0.88452   0.03833   0.00000  Uiso   1.00
O1052  O     0.88452   0.75039   0.96166   0.00000  Uiso   1.00
O1053  O     0.61475   0.76265   0.03850   0.00000  Uiso   1.00
O1054  O     0.53462   0.75000   0.33749   0.00000  Uiso   1.00
O1055  O     0.96539   0.75000   0.66251   0.00000  Uiso   1.00
O1056  O     0.75000   0.53461   0.33749   0.00000  Uiso   1.00
Zn1057 Zn    0.70053   0.50000   0.21730   0.00000  Uiso   1.00
Zn1058 Zn    0.54948   0.75000   0.28270   0.00000  Uiso   1.00
Zn1059 Zn    0.75000   0.95053   0.71730   0.00000  Uiso   1.00
Zn1060 Zn    0.75000   0.54947   0.28270   0.00000  Uiso   1.00
Zn1061 Zn    0.54948   0.75000   0.71730   0.00000  Uiso   1.00
Zn1062 Zn    0.95053   0.75000   0.28270   0.00000  Uiso   1.00
Zn1063 Zn    0.75000   0.54947   0.71730   0.00000  Uiso   1.00
Zn1064 Zn    0.75000   0.95053   0.28270   0.00000  Uiso   1.00
Zn1065 Zn    0.79948   0.50000   0.78270   0.00000  Uiso   1.00
Zn1066 Zn    0.50000   0.70052   0.21730   0.00000  Uiso   1.00
Zn1067 Zn    0.50000   0.79948   0.78270   0.00000  Uiso   1.00
Zn1068 Zn    0.79948   0.50000   0.21730   0.00000  Uiso   1.00
Zn1069 Zn    0.70053   0.50000   0.78270   0.00000  Uiso   1.00
Zn1070 Zn    0.50000   0.79947   0.21730   0.00000  Uiso   1.00
Zn1071 Zn    0.50000   0.70052   0.78270   0.00000  Uiso   1.00
Zn1072 Zn    0.95053   0.75000   0.71730   0.00000  Uiso   1.00
loop_
_geom_bond_atom_site_label_1
_geom_bond_atom_site_label_2
_geom_bond_distance
_geom_bond_site_symmetry_2
_ccdc_geom_bond_type
C1     C76     1.455   .     S
C1     O765    1.269   1_545 A
C1     O252    1.269   .     S
C2     O227    1.275   .     A
C2     O199    1.275   .     A
C2     C52     1.422   .     S
C3     O245    1.381   .     S
C3     C95     1.412   .     A
C3     C6      1.396   1_554 S
C4     C96     1.412   .     A
C4     O246    1.381   .     S
C4     C119    1.396   1_556 S
C5     O247    1.381   .     S
C5     C97     1.413   .     A
C5     C118    1.396   1_554 S
C6     O248    1.381   .     S
C6     C98     1.413   .     A
C6     C3      1.396   1_556 S
C7     O249    1.381   .     S
C7     C100    1.412   .     A
C7     C120    1.396   1_554 S
C8     H121    1.114   .     S
C8     H132    1.113   .     S
C8     O233    1.411   .     S
C8     H143    1.109   .     S
C9     O234    1.412   .     S
C9     H165    1.109   .     S
C9     H154    1.114   .     S
C9     H164    1.113   .     S
C10    H167    1.113   .     S
C10    H166    1.114   .     S
C10    H168    1.109   .     S
C10    O771    1.412   .     S
C11    H124    1.109   .     S
C11    H123    1.113   .     S
C11    H122    1.114   .     S
C11    O236    1.412   .     S
C12    H126    1.113   .     S
C12    H127    1.109   .     S
C12    H125    1.114   .     S
C12    O237    1.411   .     S
C13    O200    1.275   .     A
C13    C51     1.422   .     S
C13    O224    1.275   .     A
C14    H128    1.114   .     S
C14    H129    1.113   .     S
C14    O238    1.412   .     S
C14    H130    1.109   .     S
C15    H134    1.109   .     S
C15    H133    1.113   .     S
C15    H131    1.114   .     S
C15    O775    1.412   1_545 S
C16    H136    1.113   .     S
C16    H137    1.109   .     S
C16    O241    1.411   .     S
C16    H135    1.114   .     S
C17    H140    1.109   .     S
C17    H139    1.113   .     S
C17    H138    1.114   .     S
C17    O242    1.411   .     S
C18    O243    1.412   .     S
C18    H142    1.113   .     S
C18    H144    1.109   .     S
C18    H141    1.114   .     S
C19    H145    1.114   .     S
C19    H146    1.113   .     S
C19    H147    1.109   .     S
C19    O244    1.412   .     S
C20    H149    1.113   .     S
C20    H148    1.114   .     S
C20    O245    1.411   .     S
C20    H150    1.109   .     S
C21    H152    1.113   .     S
C21    H153    1.109   .     S
C21    O246    1.411   .     S
C21    H151    1.114   .     S
C22    H156    1.113   .     S
C22    H157    1.109   .     S
C22    O247    1.412   .     S
C22    H155    1.114   .     S
C23    O248    1.412   .     S
C23    H159    1.113   .     S
C23    H160    1.109   .     S
C23    H158    1.114   .     S
C24    C50     1.422   .     S
C24    O201    1.275   .     A
C24    O225    1.275   .     A
C25    H163    1.109   .     S
C25    O249    1.411   .     S
C25    H161    1.114   .     S
C25    H162    1.113   .     S
C26    O202    1.275   .     A
C26    C49     1.422   .     S
C26    O231    1.275   .     A
C27    C48     1.422   .     S
C27    O203    1.275   .     A
C27    O232    1.275   .     A
C28    O228    1.275   .     A
C28    C56     1.422   .     S
C28    O204    1.275   .     A
C29    O230    1.275   .     A
C29    O205    1.275   .     A
C29    C54     1.422   .     S
C30    C45     1.422   .     S
C30    O206    1.275   .     A
C30    O217    1.275   .     A
C31    C43     1.422   .     S
C31    O219    1.275   .     A
C31    O208    1.275   .     A
C32    O215    1.275   .     A
C32    O209    1.275   .     A
C32    C42     1.422   .     S
C33    O722    1.268   1_545 A
C33    C78     1.454   .     S
C33    O240    1.268   .     S
C34    O210    1.275   .     A
C34    C41     1.422   .     S
C34    O216    1.275   .     A
C35    O211    1.275   .     A
C35    O222    1.275   .     A
C35    C40     1.422   .     S
C36    O223    1.275   .     A
C36    O212    1.275   .     A
C36    C39     1.422   .     S
C37    O213    1.275   .     A
C37    C47     1.422   .     S
C37    O220    1.275   .     A
C38    O221    1.275   .     A
C38    O214    1.275   .     A
C38    C46     1.422   .     S
C39    C56     1.198   .     T
C40    C54     1.198   .     T
C41    C53     1.198   .     T
C42    C52     1.198   .     T
C43    C51     1.198   .     T
C44    O455    1.268   1_455 A
C44    C74     1.454   .     S
C44    O250    1.268   .     S
C45    C50     1.198   .     T
C46    C49     1.198   .     T
C47    C48     1.198   .     T
C53    C110    1.422   .     S
C55    C75     1.455   .     S
C55    O188    1.269   .     A
C55    O519    1.269   1_455 S
C57    I169    2.163   .     S
C57    C342    1.401   .     S
C57    C355    1.416   .     S
C58    I177    2.164   .     S
C58    C89     1.416   .     A
C58    C343    1.402   .     S
C59    I178    2.164   .     S
C59    C612    1.402   .     A
C59    C90     1.416   .     A
C60    I179    2.163   .     S
C60    C614    1.401   .     A
C60    C627    1.416   .     S
C61    C74     1.401   .     A
C61    I180    2.163   .     S
C61    C351    1.416   1_455 S
C62    C75     1.402   .     A
C62    C84     1.416   .     A
C62    I181    2.164   .     S
C63    I182    2.164   .     S
C63    C85     1.416   .     A
C63    C76     1.402   .     S
C64    I183    2.163   .     S
C64    C78     1.401   .     S
C64    C622    1.416   1_545 S
C65    C96     1.416   .     A
C65    I184    2.163   .     S
C65    C79     1.401   .     S
C66    O189    1.269   .     A
C66    C81     1.455   .     S
C66    O193    1.269   .     S
C67    I170    2.164   .     S
C67    C97     1.416   .     A
C67    C616    1.402   .     S
C68    I171    2.164   .     S
C68    C349    1.402   .     A
C68    C98     1.416   .     A
C69    C82     1.401   .     A
C69    I172    2.163   .     S
C69    C100    1.416   .     A
C70    I173    2.163   .     S
C70    C615    1.401   .     A
C70    C92     1.416   .     A
C71    C80     1.402   .     A
C71    C93     1.416   .     A
C71    I174    2.164   .     S
C72    I175    2.164   .     S
C72    C94     1.416   .     A
C72    C81     1.402   .     S
C73    C95     1.416   .     A
C73    I176    2.163   .     S
C73    C350    1.401   .     S
C74    C325    1.401   1_455 S
C75    C326    1.402   1_455 S
C76    C595    1.402   1_545 A
C77    O190    1.268   .     A
C77    O194    1.268   .     A
C77    C82     1.454   .     S
C78    C596    1.401   1_545 A
C79    C606    1.401   1_545 A
C79    C88     1.454   .     S
C80    C99     1.455   .     S
C80    C603    1.402   1_545 S
C81    C336    1.402   1_455 A
C82    C341    1.401   1_455 S
C83    C109    1.412   .     A
C83    C329    1.416   .     S
C83    C369    1.424   .     S
C84    C102    1.424   .     A
C84    C111    1.413   .     A
C85    C112    1.413   .     A
C85    C103    1.424   .     S
C86    C640    1.424   .     A
C86    C113    1.412   .     A
C86    C600    1.416   .     S
C87    C114    1.412   .     A
C87    C101    1.424   .     A
C87    C325    1.416   1_455 S
C88    O191    1.268   .     A
C88    O195    1.268   .     A
C89    C115    1.413   .     A
C89    C370    1.424   .     S
C90    C116    1.413   .     A
C90    C639    1.424   .     A
C91    C117    1.412   .     A
C91    C596    1.416   1_545 S
C91    C104    1.424   .     S
C92    C118    1.412   .     A
C92    C641    1.424   .     A
C93    C119    1.413   .     A
C93    C106    1.424   .     A
C94    C120    1.413   .     A
C94    C107    1.424   .     S
C95    C376    1.424   .     S
C96    C105    1.424   .     S
C97    C642    1.424   .     S
C98    C375    1.424   .     A
C99    O192    1.269   .     A
C99    O197    1.269   .     A
C100   C108    1.424   .     A
C101   C102    1.424   .     A
C101   C351    1.424   1_455 S
C102   C357    1.424   1_455 S
C103   C626    1.424   1_545 A
C103   C104    1.424   .     A
C104   C622    1.424   1_545 A
C105   C628    1.424   1_545 A
C105   C106    1.424   1_556 S
C106   C633    1.424   1_545 S
C106   C105    1.424   1_554 S
C107   C366    1.424   1_455 A
C107   C108    1.424   1_556 S
C108   C363    1.424   1_455 S
C108   C107    1.424   1_554 S
C109   C115    1.396   .     A
C109   O233    1.381   .     S
C110   O198    1.275   .     A
C110   O226    1.275   .     A
C111   C114    1.396   .     A
C111   O502    1.381   1_455 S
C112   C117    1.396   .     A
C112   O235    1.381   .     S
C113   C116    1.396   .     A
C113   O236    1.381   .     S
C114   O237    1.381   .     S
C115   O506    1.381   .     S
C116   O239    1.381   .     S
C117   O241    1.381   .     S
C118   O242    1.381   .     S
C118   C5      1.396   1_556 S
C119   O243    1.381   .     S
C119   C4      1.396   1_554 S
C120   O244    1.381   .     S
C120   C7      1.396   1_556 S
O185   Zn256   1.934   .     S
O185   Zn253   1.934   .     S
O185   Zn264   1.934   .     S
O185   Zn796   1.934   1_545 S
O186   C569    1.268   .     A
O186   Zn255   1.947   .     S
O187   Zn258   1.947   .     S
O187   C312    1.268   .     A
O188   Zn257   1.947   .     S
O189   Zn267   1.947   .     S
O190   Zn266   1.947   .     S
O191   Zn261   1.947   .     S
O192   Zn253   1.947   .     S
O193   Zn263   1.947   .     S
O194   Zn262   1.947   .     S
O195   Zn265   1.947   .     S
O196   Zn261   1.934   .     S
O196   Zn265   1.934   .     S
O196   Zn259   1.934   .     S
O196   Zn791   1.934   1_545 S
O197   Zn264   1.947   .     S
O198   Zn256   1.915   .     S
O199   Zn255   1.915   .     S
O200   Zn258   1.915   .     S
O201   Zn257   1.915   .     S
O202   Zn260   1.915   .     S
O203   Zn259   1.915   .     S
O204   Zn254   1.915   .     S
O205   Zn268   1.915   .     S
O206   Zn255   1.915   .     S
O207   Zn526   1.934   1_455 S
O207   Zn262   1.934   .     S
O207   Zn266   1.934   .     S
O207   Zn254   1.934   .     S
O208   Zn256   1.915   .     S
O209   Zn268   1.915   .     S
O210   Zn254   1.915   .     S
O211   Zn259   1.915   .     S
O212   Zn260   1.915   .     S
O213   Zn257   1.915   .     S
O214   Zn258   1.915   .     S
O215   Zn531   1.915   .     S
O216   Zn262   1.915   .     S
O217   Zn801   1.915   .     S
O218   Zn536   1.934   1_455 S
O218   Zn267   1.934   .     S
O218   Zn257   1.934   .     S
O218   Zn263   1.934   .     S
O219   Zn264   1.915   .     S
O220   Zn267   1.915   .     S
O221   Zn534   1.915   .     S
O222   Zn261   1.915   .     S
O223   Zn789   1.915   .     S
O224   Zn530   1.915   .     S
O225   Zn263   1.915   .     S
O226   Zn253   1.915   .     S
O227   Zn797   1.915   .     S
O228   Zn266   1.915   .     S
O229   Zn260   1.947   .     S
O229   C537    1.269   .     A
O230   Zn535   1.915   .     S
O231   Zn800   1.915   .     S
O232   Zn265   1.915   .     S
O234   C379    1.381   .     S
O235   C546    1.412   1_545 S
O238   C383    1.381   1_455 S
O239   C551    1.412   .     S
O240   Zn259   1.947   .     S
O250   Zn254   1.947   .     S
O251   Zn268   1.947   .     S
O251   C323    1.269   .     S
O252   Zn256   1.947   .     S
Zn253  O759    1.915   1_545 S
Zn255  O732    1.934   .     S
Zn258  O475    1.934   .     S
Zn260  O721    1.934   .     S
Zn261  O763    1.915   1_545 S
Zn262  O492    1.915   1_455 S
Zn263  O483    1.915   1_455 S
Zn264  O767    1.915   1_545 S
Zn265  O753    1.915   1_545 S
Zn266  O489    1.915   1_455 S
Zn267  O498    1.915   1_455 S
Zn268  O486    1.934   .     S
C269   C344    1.455   .     S
C269   O1033   1.269   1_545 A
C269   O520    1.269   .     S
C270   O495    1.275   .     A
C270   O467    1.275   .     A
C270   C320    1.422   .     S
C271   O513    1.381   .     S
C271   C363    1.412   .     A
C271   C274    1.396   1_554 S
C272   C364    1.412   .     A
C272   O514    1.381   .     S
C272   C387    1.396   1_556 S
C273   O515    1.381   .     S
C273   C365    1.413   .     A
C273   C386    1.396   1_554 S
C274   O516    1.381   .     S
C274   C366    1.413   .     A
C274   C271    1.396   1_556 S
C275   O517    1.381   .     S
C275   C368    1.412   .     A
C275   C388    1.396   1_554 S
C276   H389    1.114   .     S
C276   H400    1.113   .     S
C276   O501    1.411   .     S
C276   H411    1.109   .     S
C277   O502    1.412   .     S
C277   H433    1.109   .     S
C277   H422    1.114   .     S
C277   H432    1.113   .     S
C278   H435    1.113   .     S
C278   H434    1.114   .     S
C278   H436    1.109   .     S
C278   O1039   1.412   .     S
C279   H392    1.109   .     S
C279   H391    1.113   .     S
C279   H390    1.114   .     S
C279   O504    1.412   .     S
C280   H394    1.113   .     S
C280   H395    1.109   .     S
C280   H393    1.114   .     S
C280   O505    1.411   .     S
C281   O468    1.275   .     A
C281   C319    1.422   .     S
C281   O492    1.275   .     A
C282   H396    1.114   .     S
C282   H397    1.113   .     S
C282   O506    1.412   .     S
C282   H398    1.109   .     S
C283   H402    1.109   .     S
C283   H401    1.113   .     S
C283   H399    1.114   .     S
C283   O1043   1.412   1_545 S
C284   H404    1.113   .     S
C284   H405    1.109   .     S
C284   O509    1.411   .     S
C284   H403    1.114   .     S
C285   H408    1.109   .     S
C285   H407    1.113   .     S
C285   H406    1.114   .     S
C285   O510    1.411   .     S
C286   O511    1.412   .     S
C286   H410    1.113   .     S
C286   H412    1.109   .     S
C286   H409    1.114   .     S
C287   H413    1.114   .     S
C287   H414    1.113   .     S
C287   H415    1.109   .     S
C287   O512    1.412   .     S
C288   H417    1.113   .     S
C288   H416    1.114   .     S
C288   O513    1.411   .     S
C288   H418    1.109   .     S
C289   H420    1.113   .     S
C289   H421    1.109   .     S
C289   O514    1.411   .     S
C289   H419    1.114   .     S
C290   H424    1.113   .     S
C290   H425    1.109   .     S
C290   O515    1.412   .     S
C290   H423    1.114   .     S
C291   O516    1.412   .     S
C291   H427    1.113   .     S
C291   H428    1.109   .     S
C291   H426    1.114   .     S
C292   C318    1.422   .     S
C292   O469    1.275   .     A
C292   O493    1.275   .     A
C293   H431    1.109   .     S
C293   O517    1.411   .     S
C293   H429    1.114   .     S
C293   H430    1.113   .     S
C294   O470    1.275   .     A
C294   C317    1.422   .     S
C294   O499    1.275   .     A
C295   C316    1.422   .     S
C295   O471    1.275   .     A
C295   O500    1.275   .     A
C296   O496    1.275   .     A
C296   C324    1.422   .     S
C296   O472    1.275   .     A
C297   O498    1.275   .     A
C297   O473    1.275   .     A
C297   C322    1.422   .     S
C298   C313    1.422   .     S
C298   O474    1.275   .     A
C298   O485    1.275   .     A
C299   C311    1.422   .     S
C299   O487    1.275   .     A
C299   O476    1.275   .     A
C300   O483    1.275   .     A
C300   O477    1.275   .     A
C300   C310    1.422   .     S
C301   O990    1.268   1_545 A
C301   C346    1.454   .     S
C301   O508    1.268   .     S
C302   O478    1.275   .     A
C302   C309    1.422   .     S
C302   O484    1.275   .     A
C303   O479    1.275   .     A
C303   O490    1.275   .     A
C303   C308    1.422   .     S
C304   O491    1.275   .     A
C304   O480    1.275   .     A
C304   C307    1.422   .     S
C305   O481    1.275   .     A
C305   C315    1.422   .     S
C305   O488    1.275   .     A
C306   O489    1.275   .     A
C306   O482    1.275   .     A
C306   C314    1.422   .     S
C307   C324    1.198   .     T
C308   C322    1.198   .     T
C309   C321    1.198   .     T
C310   C320    1.198   .     T
C311   C319    1.198   .     T
C312   C342    1.454   .     S
C312   O518    1.268   .     S
C313   C318    1.198   .     T
C314   C317    1.198   .     T
C315   C316    1.198   .     T
C321   C378    1.422   .     S
C323   C343    1.455   .     S
C323   O456    1.269   .     A
C325   I437    2.163   .     S
C325   C74     1.401   1_655 S
C325   C87     1.416   1_655 S
C326   I445    2.164   .     S
C326   C357    1.416   .     A
C326   C75     1.402   1_655 S
C327   I446    2.164   .     S
C327   C880    1.402   .     A
C327   C358    1.416   .     A
C328   I447    2.163   .     S
C328   C882    1.401   .     A
C328   C895    1.416   .     S
C329   C342    1.401   .     A
C329   I448    2.163   .     S
C330   C343    1.402   .     A
C330   C352    1.416   .     A
C330   I449    2.164   .     S
C331   I450    2.164   .     S
C331   C353    1.416   .     A
C331   C344    1.402   .     S
C332   I451    2.163   .     S
C332   C346    1.401   .     S
C332   C890    1.416   1_545 S
C333   C364    1.416   .     A
C333   I452    2.163   .     S
C333   C347    1.401   .     S
C334   O457    1.269   .     A
C334   C349    1.455   .     S
C334   O461    1.269   .     S
C335   I438    2.164   .     S
C335   C365    1.416   .     A
C335   C884    1.402   .     S
C336   I439    2.164   .     S
C336   C81     1.402   1_655 A
C336   C366    1.416   .     A
C337   C350    1.401   .     A
C337   I440    2.163   .     S
C337   C368    1.416   .     A
C338   I441    2.163   .     S
C338   C883    1.401   .     A
C338   C360    1.416   .     A
C339   C348    1.402   .     A
C339   C361    1.416   .     A
C339   I442    2.164   .     S
C340   I443    2.164   .     S
C340   C362    1.416   .     A
C340   C349    1.402   .     S
C341   C363    1.416   .     A
C341   I444    2.163   .     S
C341   C82     1.401   1_655 S
C344   C863    1.402   1_545 A
C345   O458    1.268   .     A
C345   O462    1.268   .     A
C345   C350    1.454   .     S
C346   C864    1.401   1_545 A
C347   C874    1.401   1_545 A
C347   C356    1.454   .     S
C348   C367    1.455   .     S
C348   C871    1.402   1_545 S
C351   C377    1.412   .     A
C351   C61     1.416   1_655 S
C351   C101    1.424   1_655 S
C352   C370    1.424   .     A
C352   C379    1.413   .     A
C353   C380    1.413   .     A
C353   C371    1.424   .     S
C354   C908    1.424   .     A
C354   C381    1.412   .     A
C354   C868    1.416   .     S
C355   C382    1.412   .     A
C355   C369    1.424   .     A
C356   O459    1.268   .     A
C356   O463    1.268   .     A
C357   C383    1.413   .     A
C357   C102    1.424   1_655 S
C358   C384    1.413   .     A
C358   C907    1.424   .     A
C359   C385    1.412   .     A
C359   C864    1.416   1_545 S
C359   C372    1.424   .     S
C360   C386    1.412   .     A
C360   C909    1.424   .     A
C361   C387    1.413   .     A
C361   C374    1.424   .     A
C362   C388    1.413   .     A
C362   C375    1.424   .     S
C363   C108    1.424   1_655 S
C364   C373    1.424   .     S
C365   C910    1.424   .     S
C366   C107    1.424   1_655 A
C367   O460    1.269   .     A
C367   O465    1.269   .     A
C368   C376    1.424   .     A
C369   C370    1.424   .     A
C371   C894    1.424   1_545 A
C371   C372    1.424   .     A
C372   C890    1.424   1_545 A
C373   C896    1.424   1_545 A
C373   C374    1.424   1_556 S
C374   C901    1.424   1_545 S
C374   C373    1.424   1_554 S
C375   C376    1.424   1_556 S
C376   C375    1.424   1_554 S
C377   C383    1.396   .     A
C377   O501    1.381   .     S
C378   O466    1.275   .     A
C378   O494    1.275   .     A
C379   C382    1.396   .     A
C380   C385    1.396   .     A
C380   O503    1.381   .     S
C381   C384    1.396   .     A
C381   O504    1.381   .     S
C382   O505    1.381   .     S
C383   O238    1.381   1_655 S
C384   O507    1.381   .     S
C385   O509    1.381   .     S
C386   O510    1.381   .     S
C386   C273    1.396   1_556 S
C387   O511    1.381   .     S
C387   C272    1.396   1_554 S
C388   O512    1.381   .     S
C388   C275    1.396   1_556 S
O453   Zn524   1.934   .     S
O453   Zn521   1.934   .     S
O453   Zn532   1.934   .     S
O453   Zn1064  1.934   1_545 S
O454   C837    1.268   .     A
O454   Zn523   1.947   .     S
O455   Zn526   1.947   .     S
O455   C44     1.268   1_655 A
O456   Zn525   1.947   .     S
O457   Zn535   1.947   .     S
O458   Zn534   1.947   .     S
O459   Zn529   1.947   .     S
O460   Zn521   1.947   .     S
O461   Zn531   1.947   .     S
O462   Zn530   1.947   .     S
O463   Zn533   1.947   .     S
O464   Zn529   1.934   .     S
O464   Zn533   1.934   .     S
O464   Zn527   1.934   .     S
O464   Zn1059  1.934   1_545 S
O465   Zn532   1.947   .     S
O466   Zn524   1.915   .     S
O467   Zn523   1.915   .     S
O468   Zn526   1.915   .     S
O469   Zn525   1.915   .     S
O470   Zn528   1.915   .     S
O471   Zn527   1.915   .     S
O472   Zn522   1.915   .     S
O473   Zn536   1.915   .     S
O474   Zn523   1.915   .     S
O475   Zn530   1.934   .     S
O475   Zn534   1.934   .     S
O475   Zn522   1.934   .     S
O476   Zn524   1.915   .     S
O477   Zn536   1.915   .     S
O478   Zn522   1.915   .     S
O479   Zn527   1.915   .     S
O480   Zn528   1.915   .     S
O481   Zn525   1.915   .     S
O482   Zn526   1.915   .     S
O483   Zn263   1.915   1_655 S
O484   Zn530   1.915   .     S
O485   Zn1069  1.915   .     S
O486   Zn535   1.934   .     S
O486   Zn525   1.934   .     S
O486   Zn531   1.934   .     S
O487   Zn532   1.915   .     S
O488   Zn535   1.915   .     S
O489   Zn266   1.915   1_655 S
O490   Zn529   1.915   .     S
O491   Zn1057  1.915   .     S
O492   Zn262   1.915   1_655 S
O493   Zn531   1.915   .     S
O494   Zn521   1.915   .     S
O495   Zn1065  1.915   .     S
O496   Zn534   1.915   .     S
O497   Zn528   1.947   .     S
O497   C805    1.269   .     A
O498   Zn267   1.915   1_655 S
O499   Zn1068  1.915   .     S
O500   Zn533   1.915   .     S
O502   C111    1.381   1_655 S
O503   C814    1.412   1_545 S
O507   C819    1.412   .     S
O508   Zn527   1.947   .     S
O518   Zn522   1.947   .     S
O519   Zn536   1.947   .     S
O519   C55     1.269   1_655 S
O520   Zn524   1.947   .     S
Zn521  O1027   1.915   1_545 S
Zn523  O1000   1.934   .     S
Zn526  O207    1.934   1_655 S
Zn528  O989    1.934   .     S
Zn529  O1031   1.915   1_545 S
Zn532  O1035   1.915   1_545 S
Zn533  O1021   1.915   1_545 S
Zn536  O218    1.934   1_655 S
C537   C612    1.455   .     S
C537   O788    1.269   .     S
C538   O763    1.275   .     A
C538   O735    1.275   .     A
C538   C588    1.422   .     S
C539   O781    1.381   .     S
C539   C631    1.412   .     A
C539   C542    1.396   1_554 S
C540   C632    1.412   .     A
C540   O782    1.381   .     S
C540   C655    1.396   1_556 S
C541   O783    1.381   .     S
C541   C633    1.413   .     A
C541   C654    1.396   1_554 S
C542   O784    1.381   .     S
C542   C634    1.413   .     A
C542   C539    1.396   1_556 S
C543   O785    1.381   .     S
C543   C636    1.412   .     A
C543   C656    1.396   1_554 S
C544   H657    1.114   .     S
C544   H668    1.113   .     S
C544   O769    1.411   .     S
C544   H679    1.109   .     S
C545   O770    1.412   .     S
C545   H701    1.109   .     S
C545   H690    1.114   .     S
C545   H700    1.113   .     S
C546   H703    1.113   .     S
C546   H702    1.114   .     S
C546   H704    1.109   .     S
C546   O235    1.412   1_565 S
C547   H660    1.109   .     S
C547   H659    1.113   .     S
C547   H658    1.114   .     S
C547   O772    1.412   .     S
C548   H662    1.113   .     S
C548   H663    1.109   .     S
C548   H661    1.114   .     S
C548   O773    1.411   .     S
C549   O736    1.275   .     A
C549   C587    1.422   .     S
C549   O760    1.275   .     A
C550   H664    1.114   .     S
C550   H665    1.113   .     S
C550   O774    1.412   .     S
C550   H666    1.109   .     S
C551   H670    1.109   .     S
C551   H669    1.113   .     S
C551   H667    1.114   .     S
C552   H672    1.113   .     S
C552   H673    1.109   .     S
C552   O777    1.411   .     S
C552   H671    1.114   .     S
C553   H676    1.109   .     S
C553   H675    1.113   .     S
C553   H674    1.114   .     S
C553   O778    1.411   .     S
C554   O779    1.412   .     S
C554   H678    1.113   .     S
C554   H680    1.109   .     S
C554   H677    1.114   .     S
C555   H681    1.114   .     S
C555   H682    1.113   .     S
C555   H683    1.109   .     S
C555   O780    1.412   .     S
C556   H685    1.113   .     S
C556   H684    1.114   .     S
C556   O781    1.411   .     S
C556   H686    1.109   .     S
C557   H688    1.113   .     S
C557   H689    1.109   .     S
C557   O782    1.411   .     S
C557   H687    1.114   .     S
C558   H692    1.113   .     S
C558   H693    1.109   .     S
C558   O783    1.412   .     S
C558   H691    1.114   .     S
C559   O784    1.412   .     S
C559   H695    1.113   .     S
C559   H696    1.109   .     S
C559   H694    1.114   .     S
C560   C586    1.422   .     S
C560   O737    1.275   .     A
C560   O761    1.275   .     A
C561   H699    1.109   .     S
C561   O785    1.411   .     S
C561   H697    1.114   .     S
C561   H698    1.113   .     S
C562   O738    1.275   .     A
C562   C585    1.422   .     S
C562   O767    1.275   .     A
C563   C584    1.422   .     S
C563   O739    1.275   .     A
C563   O768    1.275   .     A
C564   O764    1.275   .     A
C564   C592    1.422   .     S
C564   O740    1.275   .     A
C565   O766    1.275   .     A
C565   O741    1.275   .     A
C565   C590    1.422   .     S
C566   C581    1.422   .     S
C566   O742    1.275   .     A
C566   O753    1.275   .     A
C567   C579    1.422   .     S
C567   O755    1.275   .     A
C567   O744    1.275   .     A
C568   O751    1.275   .     A
C568   O745    1.275   .     A
C568   C578    1.422   .     S
C569   C614    1.454   .     S
C569   O776    1.268   .     S
C570   O746    1.275   .     A
C570   C577    1.422   .     S
C570   O752    1.275   .     A
C571   O747    1.275   .     A
C571   O758    1.275   .     A
C571   C576    1.422   .     S
C572   O759    1.275   .     A
C572   O748    1.275   .     A
C572   C575    1.422   .     S
C573   O749    1.275   .     A
C573   C583    1.422   .     S
C573   O756    1.275   .     A
C574   O757    1.275   .     A
C574   O750    1.275   .     A
C574   C582    1.422   .     S
C575   C592    1.198   .     T
C576   C590    1.198   .     T
C577   C589    1.198   .     T
C578   C588    1.198   .     T
C579   C587    1.198   .     T
C580   O991    1.268   1_455 A
C580   C610    1.454   .     S
C580   O786    1.268   .     S
C581   C586    1.198   .     T
C582   C585    1.198   .     T
C583   C584    1.198   .     T
C589   C646    1.422   .     S
C591   C611    1.455   .     S
C591   O724    1.269   .     A
C591   O1055   1.269   1_455 S
C593   I705    2.163   .     S
C593   C878    1.401   .     S
C593   C891    1.416   .     S
C594   I713    2.164   .     S
C594   C625    1.416   .     A
C594   C879    1.402   .     S
C595   I714    2.164   .     S
C595   C76     1.402   1_565 A
C595   C626    1.416   .     A
C596   I715    2.163   .     S
C596   C78     1.401   1_565 A
C596   C91     1.416   1_565 S
C597   C610    1.401   .     A
C597   I716    2.163   .     S
C597   C887    1.416   1_455 S
C598   C611    1.402   .     A
C598   C620    1.416   .     A
C598   I717    2.164   .     S
C599   I718    2.164   .     S
C599   C621    1.416   .     A
C599   C612    1.402   .     S
C600   I719    2.163   .     S
C600   C614    1.401   .     S
C601   C632    1.416   .     A
C601   I720    2.163   .     S
C601   C615    1.401   .     S
C602   O725    1.269   .     A
C602   C617    1.455   .     S
C602   O729    1.269   .     S
C603   I706    2.164   .     S
C603   C633    1.416   .     A
C603   C80     1.402   1_565 S
C604   I707    2.164   .     S
C604   C885    1.402   .     A
C604   C634    1.416   .     A
C605   C618    1.401   .     A
C605   I708    2.163   .     S
C605   C636    1.416   .     A
C606   I709    2.163   .     S
C606   C79     1.401   1_565 A
C606   C628    1.416   .     A
C607   C616    1.402   .     A
C607   C629    1.416   .     A
C607   I710    2.164   .     S
C608   I711    2.164   .     S
C608   C630    1.416   .     A
C608   C617    1.402   .     S
C609   C631    1.416   .     A
C609   I712    2.163   .     S
C609   C886    1.401   .     S
C610   C861    1.401   1_455 S
C611   C862    1.402   1_455 S
C613   O726    1.268   .     A
C613   O730    1.268   .     A
C613   C618    1.454   .     S
C615   C624    1.454   .     S
C616   C635    1.455   .     S
C617   C872    1.402   1_455 A
C618   C877    1.401   1_455 S
C619   C645    1.412   .     A
C619   C865    1.416   .     S
C619   C905    1.424   .     S
C620   C638    1.424   .     A
C620   C647    1.413   .     A
C621   C648    1.413   .     A
C621   C639    1.424   .     S
C622   C104    1.424   1_565 A
C622   C649    1.412   .     A
C622   C64     1.416   1_565 S
C623   C650    1.412   .     A
C623   C637    1.424   .     A
C623   C861    1.416   1_455 S
C624   O727    1.268   .     A
C624   O731    1.268   .     A
C625   C651    1.413   .     A
C625   C906    1.424   .     S
C626   C652    1.413   .     A
C626   C103    1.424   1_565 A
C627   C653    1.412   .     A
C627   C640    1.424   .     S
C628   C654    1.412   .     A
C628   C105    1.424   1_565 A
C629   C655    1.413   .     A
C629   C642    1.424   .     A
C630   C656    1.413   .     A
C630   C643    1.424   .     S
C631   C912    1.424   .     S
C632   C641    1.424   .     S
C633   C106    1.424   1_565 S
C634   C911    1.424   .     A
C635   O728    1.269   .     A
C635   O733    1.269   .     A
C636   C644    1.424   .     A
C637   C638    1.424   .     A
C637   C887    1.424   1_455 S
C638   C893    1.424   1_455 S
C639   C640    1.424   .     A
C641   C642    1.424   1_556 S
C642   C641    1.424   1_554 S
C643   C902    1.424   1_455 A
C643   C644    1.424   1_556 S
C644   C899    1.424   1_455 S
C644   C643    1.424   1_554 S
C645   C651    1.396   .     A
C645   O769    1.381   .     S
C646   O734    1.275   .     A
C646   O762    1.275   .     A
C647   C650    1.396   .     A
C647   O1038   1.381   1_455 S
C648   C653    1.396   .     A
C648   O771    1.381   .     S
C649   C652    1.396   .     A
C649   O772    1.381   .     S
C650   O773    1.381   .     S
C651   O1042   1.381   .     S
C652   O775    1.381   .     S
C653   O777    1.381   .     S
C654   O778    1.381   .     S
C654   C541    1.396   1_556 S
C655   O779    1.381   .     S
C655   C540    1.396   1_554 S
C656   O780    1.381   .     S
C656   C543    1.396   1_556 S
O721   Zn792   1.934   .     S
O721   Zn789   1.934   .     S
O721   Zn800   1.934   .     S
O722   C33     1.268   1_565 A
O722   Zn791   1.947   .     S
O723   Zn794   1.947   .     S
O723   C848    1.268   .     A
O724   Zn793   1.947   .     S
O725   Zn803   1.947   .     S
O726   Zn802   1.947   .     S
O727   Zn797   1.947   .     S
O728   Zn789   1.947   .     S
O729   Zn799   1.947   .     S
O730   Zn798   1.947   .     S
O731   Zn801   1.947   .     S
O732   Zn797   1.934   .     S
O732   Zn801   1.934   .     S
O732   Zn795   1.934   .     S
O733   Zn800   1.947   .     S
O734   Zn792   1.915   .     S
O735   Zn791   1.915   .     S
O736   Zn794   1.915   .     S
O737   Zn793   1.915   .     S
O738   Zn796   1.915   .     S
O739   Zn795   1.915   .     S
O740   Zn790   1.915   .     S
O741   Zn804   1.915   .     S
O742   Zn791   1.915   .     S
O743   Zn1062  1.934   1_455 S
O743   Zn798   1.934   .     S
O743   Zn802   1.934   .     S
O743   Zn790   1.934   .     S
O744   Zn792   1.915   .     S
O745   Zn804   1.915   .     S
O746   Zn790   1.915   .     S
O747   Zn795   1.915   .     S
O748   Zn796   1.915   .     S
O749   Zn793   1.915   .     S
O750   Zn794   1.915   .     S
O751   Zn1067  1.915   .     S
O752   Zn798   1.915   .     S
O753   Zn265   1.915   1_565 S
O754   Zn1072  1.934   1_455 S
O754   Zn803   1.934   .     S
O754   Zn793   1.934   .     S
O754   Zn799   1.934   .     S
O755   Zn800   1.915   .     S
O756   Zn803   1.915   .     S
O757   Zn1070  1.915   .     S
O758   Zn797   1.915   .     S
O759   Zn253   1.915   1_565 S
O760   Zn1066  1.915   .     S
O761   Zn799   1.915   .     S
O762   Zn789   1.915   .     S
O763   Zn261   1.915   1_565 S
O764   Zn802   1.915   .     S
O765   Zn796   1.947   .     S
O765   C1      1.269   1_565 A
O766   Zn1071  1.915   .     S
O767   Zn264   1.915   1_565 S
O768   Zn801   1.915   .     S
O770   C915    1.381   .     S
O774   C919    1.381   1_455 S
O775   C15     1.412   1_565 S
O776   Zn795   1.947   .     S
O786   Zn790   1.947   .     S
O787   Zn804   1.947   .     S
O787   C859    1.269   .     S
O788   Zn792   1.947   .     S
Zn791  O196    1.934   1_565 S
Zn794  O1011   1.934   .     S
Zn796  O185    1.934   1_565 S
Zn798  O1028   1.915   1_455 S
Zn799  O1019   1.915   1_455 S
Zn802  O1025   1.915   1_455 S
Zn803  O1034   1.915   1_455 S
Zn804  O1022   1.934   .     S
C805   C880    1.455   .     S
C805   O1056   1.269   .     S
C806   O1031   1.275   .     A
C806   O1003   1.275   .     A
C806   C856    1.422   .     S
C807   O1049   1.381   .     S
C807   C899    1.412   .     A
C807   C810    1.396   1_554 S
C808   C900    1.412   .     A
C808   O1050   1.381   .     S
C808   C923    1.396   1_556 S
C809   O1051   1.381   .     S
C809   C901    1.413   .     A
C809   C922    1.396   1_554 S
C810   O1052   1.381   .     S
C810   C902    1.413   .     A
C810   C807    1.396   1_556 S
C811   O1053   1.381   .     S
C811   C904    1.412   .     A
C811   C924    1.396   1_554 S
C812   H925    1.114   .     S
C812   H936    1.113   .     S
C812   O1037   1.411   .     S
C812   H947    1.109   .     S
C813   O1038   1.412   .     S
C813   H969    1.109   .     S
C813   H958    1.114   .     S
C813   H968    1.113   .     S
C814   H971    1.113   .     S
C814   H970    1.114   .     S
C814   H972    1.109   .     S
C814   O503    1.412   1_565 S
C815   H928    1.109   .     S
C815   H927    1.113   .     S
C815   H926    1.114   .     S
C815   O1040   1.412   .     S
C816   H930    1.113   .     S
C816   H931    1.109   .     S
C816   H929    1.114   .     S
C816   O1041   1.411   .     S
C817   O1004   1.275   .     A
C817   C855    1.422   .     S
C817   O1028   1.275   .     A
C818   H932    1.114   .     S
C818   H933    1.113   .     S
C818   O1042   1.412   .     S
C818   H934    1.109   .     S
C819   H938    1.109   .     S
C819   H937    1.113   .     S
C819   H935    1.114   .     S
C820   H940    1.113   .     S
C820   H941    1.109   .     S
C820   O1045   1.411   .     S
C820   H939    1.114   .     S
C821   H944    1.109   .     S
C821   H943    1.113   .     S
C821   H942    1.114   .     S
C821   O1046   1.411   .     S
C822   O1047   1.412   .     S
C822   H946    1.113   .     S
C822   H948    1.109   .     S
C822   H945    1.114   .     S
C823   H949    1.114   .     S
C823   H950    1.113   .     S
C823   H951    1.109   .     S
C823   O1048   1.412   .     S
C824   H953    1.113   .     S
C824   H952    1.114   .     S
C824   O1049   1.411   .     S
C824   H954    1.109   .     S
C825   H956    1.113   .     S
C825   H957    1.109   .     S
C825   O1050   1.411   .     S
C825   H955    1.114   .     S
C826   H960    1.113   .     S
C826   H961    1.109   .     S
C826   O1051   1.412   .     S
C826   H959    1.114   .     S
C827   O1052   1.412   .     S
C827   H963    1.113   .     S
C827   H964    1.109   .     S
C827   H962    1.114   .     S
C828   C854    1.422   .     S
C828   O1005   1.275   .     A
C828   O1029   1.275   .     A
C829   H967    1.109   .     S
C829   O1053   1.411   .     S
C829   H965    1.114   .     S
C829   H966    1.113   .     S
C830   O1006   1.275   .     A
C830   C853    1.422   .     S
C830   O1035   1.275   .     A
C831   C852    1.422   .     S
C831   O1007   1.275   .     A
C831   O1036   1.275   .     A
C832   O1032   1.275   .     A
C832   C860    1.422   .     S
C832   O1008   1.275   .     A
C833   O1034   1.275   .     A
C833   O1009   1.275   .     A
C833   C858    1.422   .     S
C834   C849    1.422   .     S
C834   O1010   1.275   .     A
C834   O1021   1.275   .     A
C835   C847    1.422   .     S
C835   O1023   1.275   .     A
C835   O1012   1.275   .     A
C836   O1019   1.275   .     A
C836   O1013   1.275   .     A
C836   C846    1.422   .     S
C837   C882    1.454   .     S
C837   O1044   1.268   .     S
C838   O1014   1.275   .     A
C838   C845    1.422   .     S
C838   O1020   1.275   .     A
C839   O1015   1.275   .     A
C839   O1026   1.275   .     A
C839   C844    1.422   .     S
C840   O1027   1.275   .     A
C840   O1016   1.275   .     A
C840   C843    1.422   .     S
C841   O1017   1.275   .     A
C841   C851    1.422   .     S
C841   O1024   1.275   .     A
C842   O1025   1.275   .     A
C842   O1018   1.275   .     A
C842   C850    1.422   .     S
C843   C860    1.198   .     T
C844   C858    1.198   .     T
C845   C857    1.198   .     T
C846   C856    1.198   .     T
C847   C855    1.198   .     T
C848   C878    1.454   .     S
C848   O1054   1.268   .     S
C849   C854    1.198   .     T
C850   C853    1.198   .     T
C851   C852    1.198   .     T
C857   C914    1.422   .     S
C859   C879    1.455   .     S
C859   O992    1.269   .     A
C861   I973    2.163   .     S
C861   C610    1.401   1_655 S
C861   C623    1.416   1_655 S
C862   I981    2.164   .     S
C862   C893    1.416   .     A
C862   C611    1.402   1_655 S
C863   I982    2.164   .     S
C863   C344    1.402   1_565 A
C863   C894    1.416   .     A
C864   I983    2.163   .     S
C864   C346    1.401   1_565 A
C864   C359    1.416   1_565 S
C865   C878    1.401   .     A
C865   I984    2.163   .     S
C866   C879    1.402   .     A
C866   C888    1.416   .     A
C866   I985    2.164   .     S
C867   I986    2.164   .     S
C867   C889    1.416   .     A
C867   C880    1.402   .     S
C868   I987    2.163   .     S
C868   C882    1.401   .     S
C869   C900    1.416   .     A
C869   I988    2.163   .     S
C869   C883    1.401   .     S
C870   O993    1.269   .     A
C870   C885    1.455   .     S
C870   O997    1.269   .     S
C871   I974    2.164   .     S
C871   C901    1.416   .     A
C871   C348    1.402   1_565 S
C872   I975    2.164   .     S
C872   C617    1.402   1_655 A
C872   C902    1.416   .     A
C873   C886    1.401   .     A
C873   I976    2.163   .     S
C873   C904    1.416   .     A
C874   I977    2.163   .     S
C874   C347    1.401   1_565 A
C874   C896    1.416   .     A
C875   C884    1.402   .     A
C875   C897    1.416   .     A
C875   I978    2.164   .     S
C876   I979    2.164   .     S
C876   C898    1.416   .     A
C876   C885    1.402   .     S
C877   C899    1.416   .     A
C877   I980    2.163   .     S
C877   C618    1.401   1_655 S
C881   O994    1.268   .     A
C881   O998    1.268   .     A
C881   C886    1.454   .     S
C883   C892    1.454   .     S
C884   C903    1.455   .     S
C887   C913    1.412   .     A
C887   C597    1.416   1_655 S
C887   C637    1.424   1_655 S
C888   C906    1.424   .     A
C888   C915    1.413   .     A
C889   C916    1.413   .     A
C889   C907    1.424   .     S
C890   C372    1.424   1_565 A
C890   C917    1.412   .     A
C890   C332    1.416   1_565 S
C891   C918    1.412   .     A
C891   C905    1.424   .     A
C892   O995    1.268   .     A
C892   O999    1.268   .     A
C893   C919    1.413   .     A
C893   C638    1.424   1_655 S
C894   C920    1.413   .     A
C894   C371    1.424   1_565 A
C895   C921    1.412   .     A
C895   C908    1.424   .     S
C896   C922    1.412   .     A
C896   C373    1.424   1_565 A
C897   C923    1.413   .     A
C897   C910    1.424   .     A
C898   C924    1.413   .     A
C898   C911    1.424   .     S
C899   C644    1.424   1_655 S
C900   C909    1.424   .     S
C901   C374    1.424   1_565 S
C902   C643    1.424   1_655 A
C903   O996    1.269   .     A
C903   O1001   1.269   .     A
C904   C912    1.424   .     A
C905   C906    1.424   .     A
C907   C908    1.424   .     A
C909   C910    1.424   1_556 S
C910   C909    1.424   1_554 S
C911   C912    1.424   1_556 S
C912   C911    1.424   1_554 S
C913   C919    1.396   .     A
C913   O1037   1.381   .     S
C914   O1002   1.275   .     A
C914   O1030   1.275   .     A
C915   C918    1.396   .     A
C916   C921    1.396   .     A
C916   O1039   1.381   .     S
C917   C920    1.396   .     A
C917   O1040   1.381   .     S
C918   O1041   1.381   .     S
C919   O774    1.381   1_655 S
C920   O1043   1.381   .     S
C921   O1045   1.381   .     S
C922   O1046   1.381   .     S
C922   C809    1.396   1_556 S
C923   O1047   1.381   .     S
C923   C808    1.396   1_554 S
C924   O1048   1.381   .     S
C924   C811    1.396   1_556 S
O989   Zn1060  1.934   .     S
O989   Zn1057  1.934   .     S
O989   Zn1068  1.934   .     S
O990   C301    1.268   1_565 A
O990   Zn1059  1.947   .     S
O991   Zn1062  1.947   .     S
O991   C580    1.268   1_655 A
O992   Zn1061  1.947   .     S
O993   Zn1071  1.947   .     S
O994   Zn1070  1.947   .     S
O995   Zn1065  1.947   .     S
O996   Zn1057  1.947   .     S
O997   Zn1067  1.947   .     S
O998   Zn1066  1.947   .     S
O999   Zn1069  1.947   .     S
O1000  Zn1065  1.934   .     S
O1000  Zn1069  1.934   .     S
O1000  Zn1063  1.934   .     S
O1001  Zn1068  1.947   .     S
O1002  Zn1060  1.915   .     S
O1003  Zn1059  1.915   .     S
O1004  Zn1062  1.915   .     S
O1005  Zn1061  1.915   .     S
O1006  Zn1064  1.915   .     S
O1007  Zn1063  1.915   .     S
O1008  Zn1058  1.915   .     S
O1009  Zn1072  1.915   .     S
O1010  Zn1059  1.915   .     S
O1011  Zn1066  1.934   .     S
O1011  Zn1070  1.934   .     S
O1011  Zn1058  1.934   .     S
O1012  Zn1060  1.915   .     S
O1013  Zn1072  1.915   .     S
O1014  Zn1058  1.915   .     S
O1015  Zn1063  1.915   .     S
O1016  Zn1064  1.915   .     S
O1017  Zn1061  1.915   .     S
O1018  Zn1062  1.915   .     S
O1019  Zn799   1.915   1_655 S
O1020  Zn1066  1.915   .     S
O1021  Zn533   1.915   1_565 S
O1022  Zn1071  1.934   .     S
O1022  Zn1061  1.934   .     S
O1022  Zn1067  1.934   .     S
O1023  Zn1068  1.915   .     S
O1024  Zn1071  1.915   .     S
O1025  Zn802   1.915   1_655 S
O1026  Zn1065  1.915   .     S
O1027  Zn521   1.915   1_565 S
O1028  Zn798   1.915   1_655 S
O1029  Zn1067  1.915   .     S
O1030  Zn1057  1.915   .     S
O1031  Zn529   1.915   1_565 S
O1032  Zn1070  1.915   .     S
O1033  Zn1064  1.947   .     S
O1033  C269    1.269   1_565 A
O1034  Zn803   1.915   1_655 S
O1035  Zn532   1.915   1_565 S
O1036  Zn1069  1.915   .     S
O1038  C647    1.381   1_655 S
O1043  C283    1.412   1_565 S
O1044  Zn1063  1.947   .     S
O1054  Zn1058  1.947   .     S
O1055  Zn1072  1.947   .     S
O1055  C591    1.269   1_655 S
O1056  Zn1060  1.947   .     S
Zn1059 O464    1.934   1_565 S
Zn1062 O743    1.934   1_655 S
Zn1064 O453    1.934   1_565 S
Zn1072 O754    1.934   1_655 S
