data_str_m1_o10_o16_pcu_sym.182
_audit_creation_date              2020-01-03
_audit_creation_method            'Materials Studio'
_symmetry_space_group_name_H-M    'P1'
_symmetry_Int_Tables_number       1
_symmetry_cell_setting            triclinic
loop_
_symmetry_equiv_pos_as_xyz
  x,y,z
_cell_length_a                    32.6950
_cell_length_b                    32.4744
_cell_length_c                    31.0110
_cell_angle_alpha                 96.5373
_cell_angle_beta                  75.0528
_cell_angle_gamma                 98.0951
loop_
_atom_site_label
_atom_site_type_symbol
_atom_site_fract_x
_atom_site_fract_y
_atom_site_fract_z
_atom_site_U_iso_or_equiv
_atom_site_adp_type
_atom_site_occupancy
C1     C     0.05315   0.16018   0.25943   0.00000  Uiso   1.00
C2     C     0.18427   0.16760   0.05620   0.00000  Uiso   1.00
C3     C     0.19628   0.09722   0.06356   0.00000  Uiso   1.00
C4     C     0.28058   0.17349   0.24050   0.00000  Uiso   1.00
C5     C     0.14615   0.19782   0.41947   0.00000  Uiso   1.00
C6     C     0.32591   0.17470   0.23779   0.00000  Uiso   1.00
C7     C     0.00772   0.15608   0.26654   0.00000  Uiso   1.00
C8     C     0.18033   0.32246   0.23696   0.00000  Uiso   1.00
C9     C     0.15184   0.01183   0.26420   0.00000  Uiso   1.00
C10    C     0.15602   0.05591   0.26041   0.00000  Uiso   1.00
C11    C     0.17652   0.27786   0.24033   0.00000  Uiso   1.00
C12    C     0.14639   0.25246   0.48013   0.00000  Uiso   1.00
C13    C     0.18537   0.14765   0.12952   0.00000  Uiso   1.00
C14    C     0.14898   0.18531   0.37109   0.00000  Uiso   1.00
C15    C     0.19187   0.08491   0.02032   0.00000  Uiso   1.00
C16    C     0.19191   0.13821   0.08152   0.00000  Uiso   1.00
C17    C     0.13962   0.23965   0.43755   0.00000  Uiso   1.00
C18    C     0.31376   0.13262   0.30628   0.00000  Uiso   1.00
C19    C     0.00562   0.11616   0.33507   0.00000  Uiso   1.00
C20    C     0.30902   0.09330   0.37363   0.00000  Uiso   1.00
C21    C     0.23594   0.03669   0.48607   0.00000  Uiso   1.00
C22    C     0.12679   0.27050   0.41097   0.00000  Uiso   1.00
C23    C     0.15969   0.22591   0.00427   0.00000  Uiso   1.00
C24    C     0.11976   0.31421   0.43425   0.00000  Uiso   1.00
C25    C     0.10675   0.00808   0.40410   0.00000  Uiso   1.00
C26    C     0.16436   0.18398   0.48846   0.00000  Uiso   1.00
C27    C     0.15544   0.16946   0.44649   0.00000  Uiso   1.00
C28    C     0.17691   0.15578   0.01341   0.00000  Uiso   1.00
C29    C     0.18018   0.11353   0.49598   0.00000  Uiso   1.00
C30    C     0.16946   0.09974   0.45569   0.00000  Uiso   1.00
C31    C     0.15558   0.12660   0.43251   0.00000  Uiso   1.00
H32    H     0.20117   0.07422   0.08391   0.00000  Uiso   1.00
H33    H     0.28727   0.11466   0.39569   0.00000  Uiso   1.00
H34    H     0.28978   0.06612   0.36051   0.00000  Uiso   1.00
H35    H     0.32798   0.08185   0.39383   0.00000  Uiso   1.00
H36    H     0.02739   0.09420   0.31412   0.00000  Uiso   1.00
H37    H     0.02488   0.14259   0.34938   0.00000  Uiso   1.00
H38    H     0.29222   0.15402   0.32868   0.00000  Uiso   1.00
H39    H     0.29458   0.10525   0.29331   0.00000  Uiso   1.00
H40    H     0.25104   0.05670   0.45801   0.00000  Uiso   1.00
H41    H     0.23690   0.00369   0.47224   0.00000  Uiso   1.00
H42    H     0.25454   0.04201   0.01203   0.00000  Uiso   1.00
H43    H     0.20658   0.00363   0.21201   0.00000  Uiso   1.00
H44    H     0.13290   0.01339   0.37359   0.00000  Uiso   1.00
H45    H     0.07754   0.32632   0.39413   0.00000  Uiso   1.00
H46    H     0.09995   0.03873   0.42244   0.00000  Uiso   1.00
H47    H     0.09410   0.31169   0.46565   0.00000  Uiso   1.00
H48    H     0.14975   0.32955   0.44227   0.00000  Uiso   1.00
H49    H     0.15204   0.27457   0.37945   0.00000  Uiso   1.00
H50    H     0.09627   0.25686   0.40284   0.00000  Uiso   1.00
H51    H     0.12514   0.33148   0.28919   0.00000  Uiso   1.00
H52    H     0.17066   0.06762   0.44232   0.00000  Uiso   1.00
H53    H     0.18070   0.19837   0.07264   0.00000  Uiso   1.00
H54    H     0.16557   0.23956   0.03568   0.00000  Uiso   1.00
H55    H     0.14267   0.28378   0.49526   0.00000  Uiso   1.00
H56    H     0.14411   0.11276   0.40385   0.00000  Uiso   1.00
H57    H     0.01471   0.19142   0.21114   0.00000  Uiso   1.00
O58    O     0.16667   0.16667   0.25000   0.00000  Uiso   1.00
O59    O     0.15451   0.12637   0.15459   0.00000  Uiso   1.00
O60    O     0.12940   0.20391   0.34968   0.00000  Uiso   1.00
O61    O     0.20824   0.17759   0.14606   0.00000  Uiso   1.00
O62    O     0.17451   0.15880   0.34968   0.00000  Uiso   1.00
O63    O     0.19307   0.04341   0.00457   0.00000  Uiso   1.00
O64    O     0.17930   0.08019   0.28214   0.00000  Uiso   1.00
O65    O     0.14632   0.26085   0.27014   0.00000  Uiso   1.00
O66    O     0.07412   0.13291   0.23413   0.00000  Uiso   1.00
O67    O     0.26693   0.19272   0.21361   0.00000  Uiso   1.00
O68    O     0.07071   0.18878   0.28213   0.00000  Uiso   1.00
O69    O     0.25491   0.15226   0.27014   0.00000  Uiso   1.00
O70    O     0.13760   0.06944   0.23413   0.00000  Uiso   1.00
O71    O     0.20345   0.25620   0.21361   0.00000  Uiso   1.00
Zn72   Zn    0.19338   0.13994   0.28734   0.00000  Uiso   1.00
Zn73   Zn    0.13379   0.12458   0.21876   0.00000  Uiso   1.00
Zn74   Zn    0.21056   0.19775   0.20657   0.00000  Uiso   1.00
Zn75   Zn    0.12893   0.20439   0.28734   0.00000  Uiso   1.00
C76    C     0.38648   0.16018   0.25943   0.00000  Uiso   1.00
C77    C     0.51761   0.16760   0.05620   0.00000  Uiso   1.00
C78    C     0.52962   0.09722   0.06356   0.00000  Uiso   1.00
C79    C     0.61391   0.17349   0.24050   0.00000  Uiso   1.00
C80    C     0.47948   0.19782   0.41947   0.00000  Uiso   1.00
C81    C     0.65924   0.17470   0.23779   0.00000  Uiso   1.00
C82    C     0.34105   0.15608   0.26654   0.00000  Uiso   1.00
C83    C     0.51366   0.32246   0.23696   0.00000  Uiso   1.00
C84    C     0.48518   0.01183   0.26420   0.00000  Uiso   1.00
C85    C     0.48935   0.05591   0.26041   0.00000  Uiso   1.00
C86    C     0.50985   0.27786   0.24033   0.00000  Uiso   1.00
C87    C     0.47972   0.25246   0.48013   0.00000  Uiso   1.00
C88    C     0.51870   0.14765   0.12952   0.00000  Uiso   1.00
C89    C     0.48232   0.18531   0.37109   0.00000  Uiso   1.00
C90    C     0.52520   0.08491   0.02032   0.00000  Uiso   1.00
C91    C     0.52524   0.13821   0.08152   0.00000  Uiso   1.00
C92    C     0.47296   0.23965   0.43755   0.00000  Uiso   1.00
C93    C     0.64710   0.13262   0.30628   0.00000  Uiso   1.00
C94    C     0.33895   0.11616   0.33507   0.00000  Uiso   1.00
C95    C     0.64235   0.09330   0.37363   0.00000  Uiso   1.00
C96    C     0.56928   0.03669   0.48607   0.00000  Uiso   1.00
C97    C     0.46013   0.27050   0.41097   0.00000  Uiso   1.00
C98    C     0.49302   0.22591   0.00427   0.00000  Uiso   1.00
C99    C     0.45309   0.31421   0.43425   0.00000  Uiso   1.00
C100   C     0.44008   0.00808   0.40410   0.00000  Uiso   1.00
C101   C     0.49769   0.18398   0.48846   0.00000  Uiso   1.00
C102   C     0.48877   0.16946   0.44649   0.00000  Uiso   1.00
C103   C     0.51024   0.15578   0.01341   0.00000  Uiso   1.00
C104   C     0.51351   0.11353   0.49598   0.00000  Uiso   1.00
C105   C     0.50279   0.09974   0.45569   0.00000  Uiso   1.00
C106   C     0.48891   0.12660   0.43251   0.00000  Uiso   1.00
H107   H     0.53451   0.07422   0.08391   0.00000  Uiso   1.00
H108   H     0.62060   0.11466   0.39569   0.00000  Uiso   1.00
H109   H     0.62311   0.06612   0.36051   0.00000  Uiso   1.00
H110   H     0.66131   0.08185   0.39383   0.00000  Uiso   1.00
H111   H     0.36072   0.09420   0.31412   0.00000  Uiso   1.00
H112   H     0.35822   0.14259   0.34938   0.00000  Uiso   1.00
H113   H     0.62556   0.15402   0.32868   0.00000  Uiso   1.00
H114   H     0.62792   0.10525   0.29331   0.00000  Uiso   1.00
H115   H     0.58437   0.05670   0.45801   0.00000  Uiso   1.00
H116   H     0.57024   0.00369   0.47224   0.00000  Uiso   1.00
H117   H     0.58787   0.04201   0.01203   0.00000  Uiso   1.00
H118   H     0.53992   0.00363   0.21201   0.00000  Uiso   1.00
H119   H     0.46623   0.01339   0.37359   0.00000  Uiso   1.00
H120   H     0.41087   0.32632   0.39413   0.00000  Uiso   1.00
H121   H     0.43328   0.03873   0.42244   0.00000  Uiso   1.00
H122   H     0.42744   0.31169   0.46565   0.00000  Uiso   1.00
H123   H     0.48308   0.32955   0.44227   0.00000  Uiso   1.00
H124   H     0.48537   0.27457   0.37945   0.00000  Uiso   1.00
H125   H     0.42960   0.25686   0.40284   0.00000  Uiso   1.00
H126   H     0.45848   0.33148   0.28919   0.00000  Uiso   1.00
H127   H     0.50399   0.06762   0.44232   0.00000  Uiso   1.00
H128   H     0.51403   0.19837   0.07264   0.00000  Uiso   1.00
H129   H     0.49891   0.23956   0.03568   0.00000  Uiso   1.00
H130   H     0.47600   0.28378   0.49526   0.00000  Uiso   1.00
H131   H     0.47745   0.11276   0.40385   0.00000  Uiso   1.00
H132   H     0.34804   0.19142   0.21114   0.00000  Uiso   1.00
O133   O     0.50000   0.16667   0.25000   0.00000  Uiso   1.00
O134   O     0.48784   0.12637   0.15459   0.00000  Uiso   1.00
O135   O     0.46274   0.20391   0.34968   0.00000  Uiso   1.00
O136   O     0.54157   0.17759   0.14606   0.00000  Uiso   1.00
O137   O     0.50785   0.15880   0.34968   0.00000  Uiso   1.00
O138   O     0.52640   0.04341   0.00457   0.00000  Uiso   1.00
O139   O     0.51264   0.08019   0.28214   0.00000  Uiso   1.00
O140   O     0.47965   0.26085   0.27014   0.00000  Uiso   1.00
O141   O     0.40745   0.13291   0.23413   0.00000  Uiso   1.00
O142   O     0.60026   0.19272   0.21361   0.00000  Uiso   1.00
O143   O     0.40405   0.18878   0.28213   0.00000  Uiso   1.00
O144   O     0.58824   0.15226   0.27014   0.00000  Uiso   1.00
O145   O     0.47093   0.06944   0.23413   0.00000  Uiso   1.00
O146   O     0.53678   0.25620   0.21361   0.00000  Uiso   1.00
Zn147  Zn    0.52672   0.13994   0.28734   0.00000  Uiso   1.00
Zn148  Zn    0.46713   0.12458   0.21876   0.00000  Uiso   1.00
Zn149  Zn    0.54389   0.19775   0.20657   0.00000  Uiso   1.00
Zn150  Zn    0.46226   0.20439   0.28734   0.00000  Uiso   1.00
C151   C     0.71981   0.16018   0.25943   0.00000  Uiso   1.00
C152   C     0.85094   0.16760   0.05620   0.00000  Uiso   1.00
C153   C     0.86295   0.09722   0.06356   0.00000  Uiso   1.00
C154   C     0.94724   0.17349   0.24050   0.00000  Uiso   1.00
C155   C     0.81282   0.19782   0.41947   0.00000  Uiso   1.00
C156   C     0.99258   0.17470   0.23779   0.00000  Uiso   1.00
C157   C     0.67438   0.15608   0.26654   0.00000  Uiso   1.00
C158   C     0.84699   0.32246   0.23696   0.00000  Uiso   1.00
C159   C     0.81851   0.01183   0.26420   0.00000  Uiso   1.00
C160   C     0.82268   0.05591   0.26041   0.00000  Uiso   1.00
C161   C     0.84318   0.27786   0.24033   0.00000  Uiso   1.00
C162   C     0.81306   0.25246   0.48013   0.00000  Uiso   1.00
C163   C     0.85204   0.14765   0.12952   0.00000  Uiso   1.00
C164   C     0.81565   0.18531   0.37109   0.00000  Uiso   1.00
C165   C     0.85853   0.08491   0.02032   0.00000  Uiso   1.00
C166   C     0.85857   0.13821   0.08152   0.00000  Uiso   1.00
C167   C     0.80629   0.23965   0.43755   0.00000  Uiso   1.00
C168   C     0.98043   0.13262   0.30628   0.00000  Uiso   1.00
C169   C     0.67228   0.11616   0.33507   0.00000  Uiso   1.00
C170   C     0.97568   0.09330   0.37363   0.00000  Uiso   1.00
C171   C     0.90261   0.03669   0.48607   0.00000  Uiso   1.00
C172   C     0.79346   0.27050   0.41097   0.00000  Uiso   1.00
C173   C     0.82636   0.22591   0.00427   0.00000  Uiso   1.00
C174   C     0.78643   0.31421   0.43425   0.00000  Uiso   1.00
C175   C     0.77341   0.00808   0.40410   0.00000  Uiso   1.00
C176   C     0.83102   0.18398   0.48846   0.00000  Uiso   1.00
C177   C     0.82210   0.16946   0.44649   0.00000  Uiso   1.00
C178   C     0.84358   0.15578   0.01341   0.00000  Uiso   1.00
C179   C     0.84685   0.11353   0.49598   0.00000  Uiso   1.00
C180   C     0.83613   0.09974   0.45569   0.00000  Uiso   1.00
C181   C     0.82224   0.12660   0.43251   0.00000  Uiso   1.00
H182   H     0.86784   0.07422   0.08391   0.00000  Uiso   1.00
H183   H     0.95394   0.11466   0.39569   0.00000  Uiso   1.00
H184   H     0.95644   0.06612   0.36051   0.00000  Uiso   1.00
H185   H     0.99464   0.08185   0.39383   0.00000  Uiso   1.00
H186   H     0.69406   0.09420   0.31412   0.00000  Uiso   1.00
H187   H     0.69155   0.14259   0.34938   0.00000  Uiso   1.00
H188   H     0.95889   0.15402   0.32868   0.00000  Uiso   1.00
H189   H     0.96125   0.10525   0.29331   0.00000  Uiso   1.00
H190   H     0.91770   0.05670   0.45801   0.00000  Uiso   1.00
H191   H     0.90357   0.00369   0.47224   0.00000  Uiso   1.00
H192   H     0.92120   0.04201   0.01203   0.00000  Uiso   1.00
H193   H     0.87325   0.00363   0.21201   0.00000  Uiso   1.00
H194   H     0.79956   0.01339   0.37359   0.00000  Uiso   1.00
H195   H     0.74420   0.32632   0.39413   0.00000  Uiso   1.00
H196   H     0.76661   0.03873   0.42244   0.00000  Uiso   1.00
H197   H     0.76077   0.31169   0.46565   0.00000  Uiso   1.00
H198   H     0.81641   0.32955   0.44227   0.00000  Uiso   1.00
H199   H     0.81871   0.27457   0.37945   0.00000  Uiso   1.00
H200   H     0.76294   0.25686   0.40284   0.00000  Uiso   1.00
H201   H     0.79181   0.33148   0.28919   0.00000  Uiso   1.00
H202   H     0.83732   0.06762   0.44232   0.00000  Uiso   1.00
H203   H     0.84736   0.19837   0.07264   0.00000  Uiso   1.00
H204   H     0.83224   0.23956   0.03568   0.00000  Uiso   1.00
H205   H     0.80933   0.28378   0.49526   0.00000  Uiso   1.00
H206   H     0.81078   0.11276   0.40385   0.00000  Uiso   1.00
H207   H     0.68138   0.19142   0.21114   0.00000  Uiso   1.00
O208   O     0.83333   0.16667   0.25000   0.00000  Uiso   1.00
O209   O     0.82118   0.12637   0.15459   0.00000  Uiso   1.00
O210   O     0.79607   0.20391   0.34968   0.00000  Uiso   1.00
O211   O     0.87491   0.17759   0.14606   0.00000  Uiso   1.00
O212   O     0.84118   0.15880   0.34968   0.00000  Uiso   1.00
O213   O     0.85973   0.04341   0.00457   0.00000  Uiso   1.00
O214   O     0.84597   0.08019   0.28214   0.00000  Uiso   1.00
O215   O     0.81298   0.26085   0.27014   0.00000  Uiso   1.00
O216   O     0.74078   0.13291   0.23413   0.00000  Uiso   1.00
O217   O     0.93360   0.19272   0.21361   0.00000  Uiso   1.00
O218   O     0.73738   0.18878   0.28213   0.00000  Uiso   1.00
O219   O     0.92158   0.15226   0.27014   0.00000  Uiso   1.00
O220   O     0.80426   0.06944   0.23413   0.00000  Uiso   1.00
O221   O     0.87012   0.25620   0.21361   0.00000  Uiso   1.00
Zn222  Zn    0.86005   0.13994   0.28734   0.00000  Uiso   1.00
Zn223  Zn    0.80046   0.12458   0.21876   0.00000  Uiso   1.00
Zn224  Zn    0.87723   0.19775   0.20657   0.00000  Uiso   1.00
Zn225  Zn    0.79560   0.20439   0.28734   0.00000  Uiso   1.00
C226   C     0.05315   0.49352   0.25943   0.00000  Uiso   1.00
C227   C     0.18427   0.50093   0.05620   0.00000  Uiso   1.00
C228   C     0.19628   0.43056   0.06356   0.00000  Uiso   1.00
C229   C     0.28058   0.50683   0.24050   0.00000  Uiso   1.00
C230   C     0.14615   0.53116   0.41947   0.00000  Uiso   1.00
C231   C     0.32591   0.50804   0.23779   0.00000  Uiso   1.00
C232   C     0.00772   0.48941   0.26654   0.00000  Uiso   1.00
C233   C     0.18033   0.65580   0.23696   0.00000  Uiso   1.00
C234   C     0.15184   0.34516   0.26420   0.00000  Uiso   1.00
C235   C     0.15602   0.38924   0.26041   0.00000  Uiso   1.00
C236   C     0.17652   0.61119   0.24033   0.00000  Uiso   1.00
C237   C     0.14639   0.58579   0.48013   0.00000  Uiso   1.00
C238   C     0.18537   0.48098   0.12952   0.00000  Uiso   1.00
C239   C     0.14898   0.51865   0.37109   0.00000  Uiso   1.00
C240   C     0.19187   0.41824   0.02032   0.00000  Uiso   1.00
C241   C     0.19191   0.47155   0.08152   0.00000  Uiso   1.00
C242   C     0.13962   0.57298   0.43755   0.00000  Uiso   1.00
C243   C     0.31376   0.46595   0.30628   0.00000  Uiso   1.00
C244   C     0.00562   0.44949   0.33507   0.00000  Uiso   1.00
C245   C     0.30902   0.42663   0.37363   0.00000  Uiso   1.00
C246   C     0.23594   0.37002   0.48607   0.00000  Uiso   1.00
C247   C     0.12679   0.60383   0.41097   0.00000  Uiso   1.00
C248   C     0.15969   0.55924   0.00427   0.00000  Uiso   1.00
C249   C     0.11976   0.64754   0.43425   0.00000  Uiso   1.00
C250   C     0.10675   0.34141   0.40410   0.00000  Uiso   1.00
C251   C     0.16436   0.51731   0.48846   0.00000  Uiso   1.00
C252   C     0.15544   0.50279   0.44649   0.00000  Uiso   1.00
C253   C     0.17691   0.48911   0.01341   0.00000  Uiso   1.00
C254   C     0.18018   0.44686   0.49598   0.00000  Uiso   1.00
C255   C     0.16946   0.43308   0.45569   0.00000  Uiso   1.00
C256   C     0.15558   0.45993   0.43251   0.00000  Uiso   1.00
H257   H     0.20117   0.40755   0.08391   0.00000  Uiso   1.00
H258   H     0.28727   0.44799   0.39569   0.00000  Uiso   1.00
H259   H     0.28978   0.39945   0.36051   0.00000  Uiso   1.00
H260   H     0.32798   0.41519   0.39383   0.00000  Uiso   1.00
H261   H     0.02739   0.42754   0.31412   0.00000  Uiso   1.00
H262   H     0.02488   0.47592   0.34938   0.00000  Uiso   1.00
H263   H     0.29222   0.48736   0.32868   0.00000  Uiso   1.00
H264   H     0.29458   0.43859   0.29331   0.00000  Uiso   1.00
H265   H     0.25104   0.39003   0.45801   0.00000  Uiso   1.00
H266   H     0.23690   0.33703   0.47224   0.00000  Uiso   1.00
H267   H     0.25454   0.37534   0.01203   0.00000  Uiso   1.00
H268   H     0.20658   0.33697   0.21201   0.00000  Uiso   1.00
H269   H     0.13290   0.34672   0.37359   0.00000  Uiso   1.00
H270   H     0.07754   0.65966   0.39413   0.00000  Uiso   1.00
H271   H     0.09995   0.37206   0.42244   0.00000  Uiso   1.00
H272   H     0.09410   0.64502   0.46565   0.00000  Uiso   1.00
H273   H     0.14975   0.66288   0.44227   0.00000  Uiso   1.00
H274   H     0.15204   0.60791   0.37945   0.00000  Uiso   1.00
H275   H     0.09627   0.59019   0.40284   0.00000  Uiso   1.00
H276   H     0.12514   0.66481   0.28919   0.00000  Uiso   1.00
H277   H     0.17066   0.40095   0.44232   0.00000  Uiso   1.00
H278   H     0.18070   0.53170   0.07264   0.00000  Uiso   1.00
H279   H     0.16557   0.57289   0.03568   0.00000  Uiso   1.00
H280   H     0.14267   0.61712   0.49526   0.00000  Uiso   1.00
H281   H     0.14411   0.44609   0.40385   0.00000  Uiso   1.00
H282   H     0.01471   0.52475   0.21114   0.00000  Uiso   1.00
O283   O     0.16667   0.50000   0.25000   0.00000  Uiso   1.00
O284   O     0.15451   0.45970   0.15459   0.00000  Uiso   1.00
O285   O     0.12940   0.53724   0.34968   0.00000  Uiso   1.00
O286   O     0.20824   0.51092   0.14606   0.00000  Uiso   1.00
O287   O     0.17451   0.49213   0.34968   0.00000  Uiso   1.00
O288   O     0.19307   0.37674   0.00457   0.00000  Uiso   1.00
O289   O     0.17930   0.41352   0.28214   0.00000  Uiso   1.00
O290   O     0.14632   0.59418   0.27014   0.00000  Uiso   1.00
O291   O     0.07412   0.46625   0.23413   0.00000  Uiso   1.00
O292   O     0.26693   0.52605   0.21361   0.00000  Uiso   1.00
O293   O     0.07071   0.52211   0.28213   0.00000  Uiso   1.00
O294   O     0.25491   0.48559   0.27014   0.00000  Uiso   1.00
O295   O     0.13760   0.40277   0.23413   0.00000  Uiso   1.00
O296   O     0.20345   0.58953   0.21361   0.00000  Uiso   1.00
Zn297  Zn    0.19338   0.47327   0.28734   0.00000  Uiso   1.00
Zn298  Zn    0.13379   0.45791   0.21876   0.00000  Uiso   1.00
Zn299  Zn    0.21056   0.53109   0.20657   0.00000  Uiso   1.00
Zn300  Zn    0.12893   0.53773   0.28734   0.00000  Uiso   1.00
C301   C     0.38648   0.49352   0.25943   0.00000  Uiso   1.00
C302   C     0.51761   0.50093   0.05620   0.00000  Uiso   1.00
C303   C     0.52962   0.43056   0.06356   0.00000  Uiso   1.00
C304   C     0.61391   0.50683   0.24050   0.00000  Uiso   1.00
C305   C     0.47948   0.53116   0.41947   0.00000  Uiso   1.00
C306   C     0.65924   0.50804   0.23779   0.00000  Uiso   1.00
C307   C     0.34105   0.48941   0.26654   0.00000  Uiso   1.00
C308   C     0.51366   0.65580   0.23696   0.00000  Uiso   1.00
C309   C     0.48518   0.34516   0.26420   0.00000  Uiso   1.00
C310   C     0.48935   0.38924   0.26041   0.00000  Uiso   1.00
C311   C     0.50985   0.61119   0.24033   0.00000  Uiso   1.00
C312   C     0.47972   0.58579   0.48013   0.00000  Uiso   1.00
C313   C     0.51870   0.48098   0.12952   0.00000  Uiso   1.00
C314   C     0.48232   0.51865   0.37109   0.00000  Uiso   1.00
C315   C     0.52520   0.41824   0.02032   0.00000  Uiso   1.00
C316   C     0.52524   0.47155   0.08152   0.00000  Uiso   1.00
C317   C     0.47296   0.57298   0.43755   0.00000  Uiso   1.00
C318   C     0.64710   0.46595   0.30628   0.00000  Uiso   1.00
C319   C     0.33895   0.44949   0.33507   0.00000  Uiso   1.00
C320   C     0.64235   0.42663   0.37363   0.00000  Uiso   1.00
C321   C     0.56928   0.37002   0.48607   0.00000  Uiso   1.00
C322   C     0.46013   0.60383   0.41097   0.00000  Uiso   1.00
C323   C     0.49302   0.55924   0.00427   0.00000  Uiso   1.00
C324   C     0.45309   0.64754   0.43425   0.00000  Uiso   1.00
C325   C     0.44008   0.34141   0.40410   0.00000  Uiso   1.00
C326   C     0.49769   0.51731   0.48846   0.00000  Uiso   1.00
C327   C     0.48877   0.50279   0.44649   0.00000  Uiso   1.00
C328   C     0.51024   0.48911   0.01341   0.00000  Uiso   1.00
C329   C     0.51351   0.44686   0.49598   0.00000  Uiso   1.00
C330   C     0.50279   0.43308   0.45569   0.00000  Uiso   1.00
C331   C     0.48891   0.45993   0.43251   0.00000  Uiso   1.00
H332   H     0.53451   0.40755   0.08391   0.00000  Uiso   1.00
H333   H     0.62060   0.44799   0.39569   0.00000  Uiso   1.00
H334   H     0.62311   0.39945   0.36051   0.00000  Uiso   1.00
H335   H     0.66131   0.41519   0.39383   0.00000  Uiso   1.00
H336   H     0.36072   0.42754   0.31412   0.00000  Uiso   1.00
H337   H     0.35822   0.47592   0.34938   0.00000  Uiso   1.00
H338   H     0.62556   0.48736   0.32868   0.00000  Uiso   1.00
H339   H     0.62792   0.43859   0.29331   0.00000  Uiso   1.00
H340   H     0.58437   0.39003   0.45801   0.00000  Uiso   1.00
H341   H     0.57024   0.33703   0.47224   0.00000  Uiso   1.00
H342   H     0.58787   0.37534   0.01203   0.00000  Uiso   1.00
H343   H     0.53992   0.33697   0.21201   0.00000  Uiso   1.00
H344   H     0.46623   0.34672   0.37359   0.00000  Uiso   1.00
H345   H     0.41087   0.65966   0.39413   0.00000  Uiso   1.00
H346   H     0.43328   0.37206   0.42244   0.00000  Uiso   1.00
H347   H     0.42744   0.64502   0.46565   0.00000  Uiso   1.00
H348   H     0.48308   0.66288   0.44227   0.00000  Uiso   1.00
H349   H     0.48537   0.60791   0.37945   0.00000  Uiso   1.00
H350   H     0.42960   0.59019   0.40284   0.00000  Uiso   1.00
H351   H     0.45848   0.66481   0.28919   0.00000  Uiso   1.00
H352   H     0.50399   0.40095   0.44232   0.00000  Uiso   1.00
H353   H     0.51403   0.53170   0.07264   0.00000  Uiso   1.00
H354   H     0.49891   0.57289   0.03568   0.00000  Uiso   1.00
H355   H     0.47600   0.61712   0.49526   0.00000  Uiso   1.00
H356   H     0.47745   0.44609   0.40385   0.00000  Uiso   1.00
H357   H     0.34804   0.52475   0.21114   0.00000  Uiso   1.00
O358   O     0.50000   0.50000   0.25000   0.00000  Uiso   1.00
O359   O     0.48784   0.45970   0.15459   0.00000  Uiso   1.00
O360   O     0.46274   0.53724   0.34968   0.00000  Uiso   1.00
O361   O     0.54157   0.51092   0.14606   0.00000  Uiso   1.00
O362   O     0.50785   0.49213   0.34968   0.00000  Uiso   1.00
O363   O     0.52640   0.37674   0.00457   0.00000  Uiso   1.00
O364   O     0.51264   0.41352   0.28214   0.00000  Uiso   1.00
O365   O     0.47965   0.59418   0.27014   0.00000  Uiso   1.00
O366   O     0.40745   0.46625   0.23413   0.00000  Uiso   1.00
O367   O     0.60026   0.52605   0.21361   0.00000  Uiso   1.00
O368   O     0.40405   0.52211   0.28213   0.00000  Uiso   1.00
O369   O     0.58824   0.48559   0.27014   0.00000  Uiso   1.00
O370   O     0.47093   0.40277   0.23413   0.00000  Uiso   1.00
O371   O     0.53678   0.58953   0.21361   0.00000  Uiso   1.00
Zn372  Zn    0.52672   0.47327   0.28734   0.00000  Uiso   1.00
Zn373  Zn    0.46713   0.45791   0.21876   0.00000  Uiso   1.00
Zn374  Zn    0.54389   0.53109   0.20657   0.00000  Uiso   1.00
Zn375  Zn    0.46226   0.53773   0.28734   0.00000  Uiso   1.00
C376   C     0.71981   0.49352   0.25943   0.00000  Uiso   1.00
C377   C     0.85094   0.50093   0.05620   0.00000  Uiso   1.00
C378   C     0.86295   0.43056   0.06356   0.00000  Uiso   1.00
C379   C     0.94724   0.50683   0.24050   0.00000  Uiso   1.00
C380   C     0.81282   0.53116   0.41947   0.00000  Uiso   1.00
C381   C     0.99258   0.50804   0.23779   0.00000  Uiso   1.00
C382   C     0.67438   0.48941   0.26654   0.00000  Uiso   1.00
C383   C     0.84699   0.65580   0.23696   0.00000  Uiso   1.00
C384   C     0.81851   0.34516   0.26420   0.00000  Uiso   1.00
C385   C     0.82268   0.38924   0.26041   0.00000  Uiso   1.00
C386   C     0.84318   0.61119   0.24033   0.00000  Uiso   1.00
C387   C     0.81306   0.58579   0.48013   0.00000  Uiso   1.00
C388   C     0.85204   0.48098   0.12952   0.00000  Uiso   1.00
C389   C     0.81565   0.51865   0.37109   0.00000  Uiso   1.00
C390   C     0.85853   0.41824   0.02032   0.00000  Uiso   1.00
C391   C     0.85857   0.47155   0.08152   0.00000  Uiso   1.00
C392   C     0.80629   0.57298   0.43755   0.00000  Uiso   1.00
C393   C     0.98043   0.46595   0.30628   0.00000  Uiso   1.00
C394   C     0.67228   0.44949   0.33507   0.00000  Uiso   1.00
C395   C     0.97568   0.42663   0.37363   0.00000  Uiso   1.00
C396   C     0.90261   0.37002   0.48607   0.00000  Uiso   1.00
C397   C     0.79346   0.60383   0.41097   0.00000  Uiso   1.00
C398   C     0.82636   0.55924   0.00427   0.00000  Uiso   1.00
C399   C     0.78643   0.64754   0.43425   0.00000  Uiso   1.00
C400   C     0.77341   0.34141   0.40410   0.00000  Uiso   1.00
C401   C     0.83102   0.51731   0.48846   0.00000  Uiso   1.00
C402   C     0.82210   0.50279   0.44649   0.00000  Uiso   1.00
C403   C     0.84358   0.48911   0.01341   0.00000  Uiso   1.00
C404   C     0.84685   0.44686   0.49598   0.00000  Uiso   1.00
C405   C     0.83613   0.43308   0.45569   0.00000  Uiso   1.00
C406   C     0.82224   0.45993   0.43251   0.00000  Uiso   1.00
H407   H     0.86784   0.40755   0.08391   0.00000  Uiso   1.00
H408   H     0.95394   0.44799   0.39569   0.00000  Uiso   1.00
H409   H     0.95644   0.39945   0.36051   0.00000  Uiso   1.00
H410   H     0.99464   0.41519   0.39383   0.00000  Uiso   1.00
H411   H     0.69406   0.42754   0.31412   0.00000  Uiso   1.00
H412   H     0.69155   0.47592   0.34938   0.00000  Uiso   1.00
H413   H     0.95889   0.48736   0.32868   0.00000  Uiso   1.00
H414   H     0.96125   0.43859   0.29331   0.00000  Uiso   1.00
H415   H     0.91770   0.39003   0.45801   0.00000  Uiso   1.00
H416   H     0.90357   0.33703   0.47224   0.00000  Uiso   1.00
H417   H     0.92120   0.37534   0.01203   0.00000  Uiso   1.00
H418   H     0.87325   0.33697   0.21201   0.00000  Uiso   1.00
H419   H     0.79956   0.34672   0.37359   0.00000  Uiso   1.00
H420   H     0.74420   0.65966   0.39413   0.00000  Uiso   1.00
H421   H     0.76661   0.37206   0.42244   0.00000  Uiso   1.00
H422   H     0.76077   0.64502   0.46565   0.00000  Uiso   1.00
H423   H     0.81641   0.66288   0.44227   0.00000  Uiso   1.00
H424   H     0.81871   0.60791   0.37945   0.00000  Uiso   1.00
H425   H     0.76294   0.59019   0.40284   0.00000  Uiso   1.00
H426   H     0.79181   0.66481   0.28919   0.00000  Uiso   1.00
H427   H     0.83732   0.40095   0.44232   0.00000  Uiso   1.00
H428   H     0.84736   0.53170   0.07264   0.00000  Uiso   1.00
H429   H     0.83224   0.57289   0.03568   0.00000  Uiso   1.00
H430   H     0.80933   0.61712   0.49526   0.00000  Uiso   1.00
H431   H     0.81078   0.44609   0.40385   0.00000  Uiso   1.00
H432   H     0.68138   0.52475   0.21114   0.00000  Uiso   1.00
O433   O     0.83333   0.50000   0.25000   0.00000  Uiso   1.00
O434   O     0.82118   0.45970   0.15459   0.00000  Uiso   1.00
O435   O     0.79607   0.53724   0.34968   0.00000  Uiso   1.00
O436   O     0.87491   0.51092   0.14606   0.00000  Uiso   1.00
O437   O     0.84118   0.49213   0.34968   0.00000  Uiso   1.00
O438   O     0.85973   0.37674   0.00457   0.00000  Uiso   1.00
O439   O     0.84597   0.41352   0.28214   0.00000  Uiso   1.00
O440   O     0.81298   0.59418   0.27014   0.00000  Uiso   1.00
O441   O     0.74078   0.46625   0.23413   0.00000  Uiso   1.00
O442   O     0.93360   0.52605   0.21361   0.00000  Uiso   1.00
O443   O     0.73738   0.52211   0.28213   0.00000  Uiso   1.00
O444   O     0.92158   0.48559   0.27014   0.00000  Uiso   1.00
O445   O     0.80426   0.40277   0.23413   0.00000  Uiso   1.00
O446   O     0.87012   0.58953   0.21361   0.00000  Uiso   1.00
Zn447  Zn    0.86005   0.47327   0.28734   0.00000  Uiso   1.00
Zn448  Zn    0.80046   0.45791   0.21876   0.00000  Uiso   1.00
Zn449  Zn    0.87723   0.53109   0.20657   0.00000  Uiso   1.00
Zn450  Zn    0.79560   0.53773   0.28734   0.00000  Uiso   1.00
C451   C     0.05315   0.82685   0.25943   0.00000  Uiso   1.00
C452   C     0.18427   0.83427   0.05620   0.00000  Uiso   1.00
C453   C     0.19628   0.76389   0.06356   0.00000  Uiso   1.00
C454   C     0.28058   0.84016   0.24050   0.00000  Uiso   1.00
C455   C     0.14615   0.86449   0.41947   0.00000  Uiso   1.00
C456   C     0.32591   0.84137   0.23779   0.00000  Uiso   1.00
C457   C     0.00772   0.82275   0.26654   0.00000  Uiso   1.00
C458   C     0.18033   0.98913   0.23696   0.00000  Uiso   1.00
C459   C     0.15184   0.67850   0.26420   0.00000  Uiso   1.00
C460   C     0.15602   0.72258   0.26041   0.00000  Uiso   1.00
C461   C     0.17652   0.94453   0.24033   0.00000  Uiso   1.00
C462   C     0.14639   0.91913   0.48013   0.00000  Uiso   1.00
C463   C     0.18537   0.81432   0.12952   0.00000  Uiso   1.00
C464   C     0.14898   0.85198   0.37109   0.00000  Uiso   1.00
C465   C     0.19187   0.75158   0.02032   0.00000  Uiso   1.00
C466   C     0.19191   0.80488   0.08152   0.00000  Uiso   1.00
C467   C     0.13962   0.90631   0.43755   0.00000  Uiso   1.00
C468   C     0.31376   0.79928   0.30628   0.00000  Uiso   1.00
C469   C     0.00562   0.78283   0.33507   0.00000  Uiso   1.00
C470   C     0.30902   0.75996   0.37363   0.00000  Uiso   1.00
C471   C     0.23594   0.70336   0.48607   0.00000  Uiso   1.00
C472   C     0.12679   0.93717   0.41097   0.00000  Uiso   1.00
C473   C     0.15969   0.89257   0.00427   0.00000  Uiso   1.00
C474   C     0.11976   0.98088   0.43425   0.00000  Uiso   1.00
C475   C     0.10675   0.67475   0.40410   0.00000  Uiso   1.00
C476   C     0.16436   0.85064   0.48846   0.00000  Uiso   1.00
C477   C     0.15544   0.83612   0.44649   0.00000  Uiso   1.00
C478   C     0.17691   0.82245   0.01341   0.00000  Uiso   1.00
C479   C     0.18018   0.78020   0.49598   0.00000  Uiso   1.00
C480   C     0.16946   0.76641   0.45569   0.00000  Uiso   1.00
C481   C     0.15558   0.79327   0.43251   0.00000  Uiso   1.00
H482   H     0.20117   0.74088   0.08391   0.00000  Uiso   1.00
H483   H     0.28727   0.78133   0.39569   0.00000  Uiso   1.00
H484   H     0.28978   0.73279   0.36051   0.00000  Uiso   1.00
H485   H     0.32798   0.74852   0.39383   0.00000  Uiso   1.00
H486   H     0.02739   0.76087   0.31412   0.00000  Uiso   1.00
H487   H     0.02488   0.80926   0.34938   0.00000  Uiso   1.00
H488   H     0.29222   0.82069   0.32868   0.00000  Uiso   1.00
H489   H     0.29458   0.77192   0.29331   0.00000  Uiso   1.00
H490   H     0.25104   0.72337   0.45801   0.00000  Uiso   1.00
H491   H     0.23690   0.67036   0.47224   0.00000  Uiso   1.00
H492   H     0.25454   0.70868   0.01203   0.00000  Uiso   1.00
H493   H     0.20658   0.67030   0.21201   0.00000  Uiso   1.00
H494   H     0.13290   0.68006   0.37359   0.00000  Uiso   1.00
H495   H     0.07754   0.99299   0.39413   0.00000  Uiso   1.00
H496   H     0.09995   0.70540   0.42244   0.00000  Uiso   1.00
H497   H     0.09410   0.97835   0.46565   0.00000  Uiso   1.00
H498   H     0.14975   0.99622   0.44227   0.00000  Uiso   1.00
H499   H     0.15204   0.94124   0.37945   0.00000  Uiso   1.00
H500   H     0.09627   0.92353   0.40284   0.00000  Uiso   1.00
H501   H     0.12514   0.99814   0.28919   0.00000  Uiso   1.00
H502   H     0.17066   0.73428   0.44232   0.00000  Uiso   1.00
H503   H     0.18070   0.86503   0.07264   0.00000  Uiso   1.00
H504   H     0.16557   0.90623   0.03568   0.00000  Uiso   1.00
H505   H     0.14267   0.95045   0.49526   0.00000  Uiso   1.00
H506   H     0.14411   0.77943   0.40385   0.00000  Uiso   1.00
H507   H     0.01471   0.85809   0.21114   0.00000  Uiso   1.00
O508   O     0.16667   0.83333   0.25000   0.00000  Uiso   1.00
O509   O     0.15451   0.79304   0.15459   0.00000  Uiso   1.00
O510   O     0.12940   0.87058   0.34968   0.00000  Uiso   1.00
O511   O     0.20824   0.84425   0.14606   0.00000  Uiso   1.00
O512   O     0.17451   0.82546   0.34968   0.00000  Uiso   1.00
O513   O     0.19307   0.71007   0.00457   0.00000  Uiso   1.00
O514   O     0.17930   0.74686   0.28214   0.00000  Uiso   1.00
O515   O     0.14632   0.92751   0.27014   0.00000  Uiso   1.00
O516   O     0.07412   0.79958   0.23413   0.00000  Uiso   1.00
O517   O     0.26693   0.85939   0.21361   0.00000  Uiso   1.00
O518   O     0.07071   0.85544   0.28213   0.00000  Uiso   1.00
O519   O     0.25491   0.81892   0.27014   0.00000  Uiso   1.00
O520   O     0.13760   0.73610   0.23413   0.00000  Uiso   1.00
O521   O     0.20345   0.92286   0.21361   0.00000  Uiso   1.00
Zn522  Zn    0.19338   0.80661   0.28734   0.00000  Uiso   1.00
Zn523  Zn    0.13379   0.79124   0.21876   0.00000  Uiso   1.00
Zn524  Zn    0.21056   0.86442   0.20657   0.00000  Uiso   1.00
Zn525  Zn    0.12893   0.87106   0.28734   0.00000  Uiso   1.00
C526   C     0.38648   0.82685   0.25943   0.00000  Uiso   1.00
C527   C     0.51761   0.83427   0.05620   0.00000  Uiso   1.00
C528   C     0.52962   0.76389   0.06356   0.00000  Uiso   1.00
C529   C     0.61391   0.84016   0.24050   0.00000  Uiso   1.00
C530   C     0.47948   0.86449   0.41947   0.00000  Uiso   1.00
C531   C     0.65924   0.84137   0.23779   0.00000  Uiso   1.00
C532   C     0.34105   0.82275   0.26654   0.00000  Uiso   1.00
C533   C     0.51366   0.98913   0.23696   0.00000  Uiso   1.00
C534   C     0.48518   0.67850   0.26420   0.00000  Uiso   1.00
C535   C     0.48935   0.72258   0.26041   0.00000  Uiso   1.00
C536   C     0.50985   0.94453   0.24033   0.00000  Uiso   1.00
C537   C     0.47972   0.91913   0.48013   0.00000  Uiso   1.00
C538   C     0.51870   0.81432   0.12952   0.00000  Uiso   1.00
C539   C     0.48232   0.85198   0.37109   0.00000  Uiso   1.00
C540   C     0.52520   0.75158   0.02032   0.00000  Uiso   1.00
C541   C     0.52524   0.80488   0.08152   0.00000  Uiso   1.00
C542   C     0.47296   0.90631   0.43755   0.00000  Uiso   1.00
C543   C     0.64710   0.79928   0.30628   0.00000  Uiso   1.00
C544   C     0.33895   0.78283   0.33507   0.00000  Uiso   1.00
C545   C     0.64235   0.75996   0.37363   0.00000  Uiso   1.00
C546   C     0.56928   0.70336   0.48607   0.00000  Uiso   1.00
C547   C     0.46013   0.93717   0.41097   0.00000  Uiso   1.00
C548   C     0.49302   0.89257   0.00427   0.00000  Uiso   1.00
C549   C     0.45309   0.98088   0.43425   0.00000  Uiso   1.00
C550   C     0.44008   0.67475   0.40410   0.00000  Uiso   1.00
C551   C     0.49769   0.85064   0.48846   0.00000  Uiso   1.00
C552   C     0.48877   0.83612   0.44649   0.00000  Uiso   1.00
C553   C     0.51024   0.82245   0.01341   0.00000  Uiso   1.00
C554   C     0.51351   0.78020   0.49598   0.00000  Uiso   1.00
C555   C     0.50279   0.76641   0.45569   0.00000  Uiso   1.00
C556   C     0.48891   0.79327   0.43251   0.00000  Uiso   1.00
H557   H     0.53451   0.74088   0.08391   0.00000  Uiso   1.00
H558   H     0.62060   0.78133   0.39569   0.00000  Uiso   1.00
H559   H     0.62311   0.73279   0.36051   0.00000  Uiso   1.00
H560   H     0.66131   0.74852   0.39383   0.00000  Uiso   1.00
H561   H     0.36072   0.76087   0.31412   0.00000  Uiso   1.00
H562   H     0.35822   0.80926   0.34938   0.00000  Uiso   1.00
H563   H     0.62556   0.82069   0.32868   0.00000  Uiso   1.00
H564   H     0.62792   0.77192   0.29331   0.00000  Uiso   1.00
H565   H     0.58437   0.72337   0.45801   0.00000  Uiso   1.00
H566   H     0.57024   0.67036   0.47224   0.00000  Uiso   1.00
H567   H     0.58787   0.70868   0.01203   0.00000  Uiso   1.00
H568   H     0.53992   0.67030   0.21201   0.00000  Uiso   1.00
H569   H     0.46623   0.68006   0.37359   0.00000  Uiso   1.00
H570   H     0.41087   0.99299   0.39413   0.00000  Uiso   1.00
H571   H     0.43328   0.70540   0.42244   0.00000  Uiso   1.00
H572   H     0.42744   0.97835   0.46565   0.00000  Uiso   1.00
H573   H     0.48308   0.99622   0.44227   0.00000  Uiso   1.00
H574   H     0.48537   0.94124   0.37945   0.00000  Uiso   1.00
H575   H     0.42960   0.92353   0.40284   0.00000  Uiso   1.00
H576   H     0.45848   0.99814   0.28919   0.00000  Uiso   1.00
H577   H     0.50399   0.73428   0.44232   0.00000  Uiso   1.00
H578   H     0.51403   0.86503   0.07264   0.00000  Uiso   1.00
H579   H     0.49891   0.90623   0.03568   0.00000  Uiso   1.00
H580   H     0.47600   0.95045   0.49526   0.00000  Uiso   1.00
H581   H     0.47745   0.77943   0.40385   0.00000  Uiso   1.00
H582   H     0.34804   0.85809   0.21114   0.00000  Uiso   1.00
O583   O     0.50000   0.83333   0.25000   0.00000  Uiso   1.00
O584   O     0.48784   0.79304   0.15459   0.00000  Uiso   1.00
O585   O     0.46274   0.87058   0.34968   0.00000  Uiso   1.00
O586   O     0.54157   0.84425   0.14606   0.00000  Uiso   1.00
O587   O     0.50785   0.82546   0.34968   0.00000  Uiso   1.00
O588   O     0.52640   0.71007   0.00457   0.00000  Uiso   1.00
O589   O     0.51264   0.74686   0.28214   0.00000  Uiso   1.00
O590   O     0.47965   0.92751   0.27014   0.00000  Uiso   1.00
O591   O     0.40745   0.79958   0.23413   0.00000  Uiso   1.00
O592   O     0.60026   0.85939   0.21361   0.00000  Uiso   1.00
O593   O     0.40405   0.85544   0.28213   0.00000  Uiso   1.00
O594   O     0.58824   0.81892   0.27014   0.00000  Uiso   1.00
O595   O     0.47093   0.73610   0.23413   0.00000  Uiso   1.00
O596   O     0.53678   0.92286   0.21361   0.00000  Uiso   1.00
Zn597  Zn    0.52672   0.80661   0.28734   0.00000  Uiso   1.00
Zn598  Zn    0.46713   0.79124   0.21876   0.00000  Uiso   1.00
Zn599  Zn    0.54389   0.86442   0.20657   0.00000  Uiso   1.00
Zn600  Zn    0.46226   0.87106   0.28734   0.00000  Uiso   1.00
C601   C     0.71981   0.82685   0.25943   0.00000  Uiso   1.00
C602   C     0.85094   0.83427   0.05620   0.00000  Uiso   1.00
C603   C     0.86295   0.76389   0.06356   0.00000  Uiso   1.00
C604   C     0.94724   0.84016   0.24050   0.00000  Uiso   1.00
C605   C     0.81282   0.86449   0.41947   0.00000  Uiso   1.00
C606   C     0.99258   0.84137   0.23779   0.00000  Uiso   1.00
C607   C     0.67438   0.82275   0.26654   0.00000  Uiso   1.00
C608   C     0.84699   0.98913   0.23696   0.00000  Uiso   1.00
C609   C     0.81851   0.67850   0.26420   0.00000  Uiso   1.00
C610   C     0.82268   0.72258   0.26041   0.00000  Uiso   1.00
C611   C     0.84318   0.94453   0.24033   0.00000  Uiso   1.00
C612   C     0.81306   0.91913   0.48013   0.00000  Uiso   1.00
C613   C     0.85204   0.81432   0.12952   0.00000  Uiso   1.00
C614   C     0.81565   0.85198   0.37109   0.00000  Uiso   1.00
C615   C     0.85853   0.75158   0.02032   0.00000  Uiso   1.00
C616   C     0.85857   0.80488   0.08152   0.00000  Uiso   1.00
C617   C     0.80629   0.90631   0.43755   0.00000  Uiso   1.00
C618   C     0.98043   0.79928   0.30628   0.00000  Uiso   1.00
C619   C     0.67228   0.78283   0.33507   0.00000  Uiso   1.00
C620   C     0.97568   0.75996   0.37363   0.00000  Uiso   1.00
C621   C     0.90261   0.70336   0.48607   0.00000  Uiso   1.00
C622   C     0.79346   0.93717   0.41097   0.00000  Uiso   1.00
C623   C     0.82636   0.89257   0.00427   0.00000  Uiso   1.00
C624   C     0.78643   0.98088   0.43425   0.00000  Uiso   1.00
C625   C     0.77341   0.67475   0.40410   0.00000  Uiso   1.00
C626   C     0.83102   0.85064   0.48846   0.00000  Uiso   1.00
C627   C     0.82210   0.83612   0.44649   0.00000  Uiso   1.00
C628   C     0.84358   0.82245   0.01341   0.00000  Uiso   1.00
C629   C     0.84685   0.78020   0.49598   0.00000  Uiso   1.00
C630   C     0.83613   0.76641   0.45569   0.00000  Uiso   1.00
C631   C     0.82224   0.79327   0.43251   0.00000  Uiso   1.00
H632   H     0.86784   0.74088   0.08391   0.00000  Uiso   1.00
H633   H     0.95394   0.78133   0.39569   0.00000  Uiso   1.00
H634   H     0.95644   0.73279   0.36051   0.00000  Uiso   1.00
H635   H     0.99464   0.74852   0.39383   0.00000  Uiso   1.00
H636   H     0.69406   0.76087   0.31412   0.00000  Uiso   1.00
H637   H     0.69155   0.80926   0.34938   0.00000  Uiso   1.00
H638   H     0.95889   0.82069   0.32868   0.00000  Uiso   1.00
H639   H     0.96125   0.77192   0.29331   0.00000  Uiso   1.00
H640   H     0.91770   0.72337   0.45801   0.00000  Uiso   1.00
H641   H     0.90357   0.67036   0.47224   0.00000  Uiso   1.00
H642   H     0.92120   0.70868   0.01203   0.00000  Uiso   1.00
H643   H     0.87325   0.67030   0.21201   0.00000  Uiso   1.00
H644   H     0.79956   0.68006   0.37359   0.00000  Uiso   1.00
H645   H     0.74420   0.99299   0.39413   0.00000  Uiso   1.00
H646   H     0.76661   0.70540   0.42244   0.00000  Uiso   1.00
H647   H     0.76077   0.97835   0.46565   0.00000  Uiso   1.00
H648   H     0.81641   0.99622   0.44227   0.00000  Uiso   1.00
H649   H     0.81871   0.94124   0.37945   0.00000  Uiso   1.00
H650   H     0.76294   0.92353   0.40284   0.00000  Uiso   1.00
H651   H     0.79181   0.99814   0.28919   0.00000  Uiso   1.00
H652   H     0.83732   0.73428   0.44232   0.00000  Uiso   1.00
H653   H     0.84736   0.86503   0.07264   0.00000  Uiso   1.00
H654   H     0.83224   0.90623   0.03568   0.00000  Uiso   1.00
H655   H     0.80933   0.95045   0.49526   0.00000  Uiso   1.00
H656   H     0.81078   0.77943   0.40385   0.00000  Uiso   1.00
H657   H     0.68138   0.85809   0.21114   0.00000  Uiso   1.00
O658   O     0.83333   0.83333   0.25000   0.00000  Uiso   1.00
O659   O     0.82118   0.79304   0.15459   0.00000  Uiso   1.00
O660   O     0.79607   0.87058   0.34968   0.00000  Uiso   1.00
O661   O     0.87491   0.84425   0.14606   0.00000  Uiso   1.00
O662   O     0.84118   0.82546   0.34968   0.00000  Uiso   1.00
O663   O     0.85973   0.71007   0.00457   0.00000  Uiso   1.00
O664   O     0.84597   0.74686   0.28214   0.00000  Uiso   1.00
O665   O     0.81298   0.92751   0.27014   0.00000  Uiso   1.00
O666   O     0.74078   0.79958   0.23413   0.00000  Uiso   1.00
O667   O     0.93360   0.85939   0.21361   0.00000  Uiso   1.00
O668   O     0.73738   0.85544   0.28213   0.00000  Uiso   1.00
O669   O     0.92158   0.81892   0.27014   0.00000  Uiso   1.00
O670   O     0.80426   0.73610   0.23413   0.00000  Uiso   1.00
O671   O     0.87012   0.92286   0.21361   0.00000  Uiso   1.00
Zn672  Zn    0.86005   0.80661   0.28734   0.00000  Uiso   1.00
Zn673  Zn    0.80046   0.79124   0.21876   0.00000  Uiso   1.00
Zn674  Zn    0.87723   0.86442   0.20657   0.00000  Uiso   1.00
Zn675  Zn    0.79560   0.87106   0.28734   0.00000  Uiso   1.00
C676   C     0.05315   0.16018   0.75943   0.00000  Uiso   1.00
C677   C     0.18427   0.16760   0.55620   0.00000  Uiso   1.00
C678   C     0.19628   0.09722   0.56356   0.00000  Uiso   1.00
C679   C     0.28058   0.17349   0.74050   0.00000  Uiso   1.00
C680   C     0.14615   0.19782   0.91947   0.00000  Uiso   1.00
C681   C     0.32591   0.17470   0.73779   0.00000  Uiso   1.00
C682   C     0.00772   0.15608   0.76654   0.00000  Uiso   1.00
C683   C     0.18033   0.32246   0.73696   0.00000  Uiso   1.00
C684   C     0.15184   0.01183   0.76420   0.00000  Uiso   1.00
C685   C     0.15602   0.05591   0.76041   0.00000  Uiso   1.00
C686   C     0.17652   0.27786   0.74033   0.00000  Uiso   1.00
C687   C     0.14639   0.25246   0.98013   0.00000  Uiso   1.00
C688   C     0.18537   0.14765   0.62952   0.00000  Uiso   1.00
C689   C     0.14898   0.18531   0.87109   0.00000  Uiso   1.00
C690   C     0.19187   0.08491   0.52032   0.00000  Uiso   1.00
C691   C     0.19191   0.13821   0.58152   0.00000  Uiso   1.00
C692   C     0.13962   0.23965   0.93755   0.00000  Uiso   1.00
C693   C     0.31376   0.13262   0.80628   0.00000  Uiso   1.00
C694   C     0.00562   0.11616   0.83507   0.00000  Uiso   1.00
C695   C     0.30902   0.09330   0.87363   0.00000  Uiso   1.00
C696   C     0.23594   0.03669   0.98607   0.00000  Uiso   1.00
C697   C     0.12679   0.27050   0.91097   0.00000  Uiso   1.00
C698   C     0.15969   0.22591   0.50427   0.00000  Uiso   1.00
C699   C     0.11976   0.31421   0.93425   0.00000  Uiso   1.00
C700   C     0.10675   0.00808   0.90410   0.00000  Uiso   1.00
C701   C     0.16436   0.18398   0.98846   0.00000  Uiso   1.00
C702   C     0.15544   0.16946   0.94649   0.00000  Uiso   1.00
C703   C     0.17691   0.15578   0.51341   0.00000  Uiso   1.00
C704   C     0.18018   0.11353   0.99598   0.00000  Uiso   1.00
C705   C     0.16946   0.09974   0.95569   0.00000  Uiso   1.00
C706   C     0.15558   0.12660   0.93251   0.00000  Uiso   1.00
H707   H     0.20117   0.07422   0.58391   0.00000  Uiso   1.00
H708   H     0.28727   0.11466   0.89569   0.00000  Uiso   1.00
H709   H     0.28978   0.06612   0.86051   0.00000  Uiso   1.00
H710   H     0.32798   0.08185   0.89383   0.00000  Uiso   1.00
H711   H     0.02739   0.09420   0.81412   0.00000  Uiso   1.00
H712   H     0.02488   0.14259   0.84938   0.00000  Uiso   1.00
H713   H     0.29222   0.15402   0.82868   0.00000  Uiso   1.00
H714   H     0.29458   0.10525   0.79331   0.00000  Uiso   1.00
H715   H     0.25104   0.05670   0.95801   0.00000  Uiso   1.00
H716   H     0.23690   0.00369   0.97224   0.00000  Uiso   1.00
H717   H     0.25454   0.04201   0.51203   0.00000  Uiso   1.00
H718   H     0.20658   0.00363   0.71201   0.00000  Uiso   1.00
H719   H     0.13290   0.01339   0.87359   0.00000  Uiso   1.00
H720   H     0.07754   0.32632   0.89413   0.00000  Uiso   1.00
H721   H     0.09995   0.03873   0.92244   0.00000  Uiso   1.00
H722   H     0.09410   0.31169   0.96565   0.00000  Uiso   1.00
H723   H     0.14975   0.32955   0.94227   0.00000  Uiso   1.00
H724   H     0.15204   0.27457   0.87945   0.00000  Uiso   1.00
H725   H     0.09627   0.25686   0.90284   0.00000  Uiso   1.00
H726   H     0.12514   0.33148   0.78919   0.00000  Uiso   1.00
H727   H     0.17066   0.06762   0.94232   0.00000  Uiso   1.00
H728   H     0.18070   0.19837   0.57264   0.00000  Uiso   1.00
H729   H     0.16557   0.23956   0.53568   0.00000  Uiso   1.00
H730   H     0.14267   0.28378   0.99526   0.00000  Uiso   1.00
H731   H     0.14411   0.11276   0.90385   0.00000  Uiso   1.00
H732   H     0.01471   0.19142   0.71114   0.00000  Uiso   1.00
O733   O     0.16667   0.16667   0.75000   0.00000  Uiso   1.00
O734   O     0.15451   0.12637   0.65459   0.00000  Uiso   1.00
O735   O     0.12940   0.20391   0.84968   0.00000  Uiso   1.00
O736   O     0.20824   0.17759   0.64606   0.00000  Uiso   1.00
O737   O     0.17451   0.15880   0.84968   0.00000  Uiso   1.00
O738   O     0.19307   0.04341   0.50457   0.00000  Uiso   1.00
O739   O     0.17930   0.08019   0.78214   0.00000  Uiso   1.00
O740   O     0.14632   0.26085   0.77014   0.00000  Uiso   1.00
O741   O     0.07412   0.13291   0.73413   0.00000  Uiso   1.00
O742   O     0.26693   0.19272   0.71361   0.00000  Uiso   1.00
O743   O     0.07071   0.18878   0.78213   0.00000  Uiso   1.00
O744   O     0.25491   0.15226   0.77014   0.00000  Uiso   1.00
O745   O     0.13760   0.06944   0.73413   0.00000  Uiso   1.00
O746   O     0.20345   0.25620   0.71361   0.00000  Uiso   1.00
Zn747  Zn    0.19338   0.13994   0.78734   0.00000  Uiso   1.00
Zn748  Zn    0.13379   0.12458   0.71876   0.00000  Uiso   1.00
Zn749  Zn    0.21056   0.19775   0.70657   0.00000  Uiso   1.00
Zn750  Zn    0.12893   0.20439   0.78734   0.00000  Uiso   1.00
C751   C     0.38648   0.16018   0.75943   0.00000  Uiso   1.00
C752   C     0.51761   0.16760   0.55620   0.00000  Uiso   1.00
C753   C     0.52962   0.09722   0.56356   0.00000  Uiso   1.00
C754   C     0.61391   0.17349   0.74050   0.00000  Uiso   1.00
C755   C     0.47948   0.19782   0.91947   0.00000  Uiso   1.00
C756   C     0.65924   0.17470   0.73779   0.00000  Uiso   1.00
C757   C     0.34105   0.15608   0.76654   0.00000  Uiso   1.00
C758   C     0.51366   0.32246   0.73696   0.00000  Uiso   1.00
C759   C     0.48518   0.01183   0.76420   0.00000  Uiso   1.00
C760   C     0.48935   0.05591   0.76041   0.00000  Uiso   1.00
C761   C     0.50985   0.27786   0.74033   0.00000  Uiso   1.00
C762   C     0.47972   0.25246   0.98013   0.00000  Uiso   1.00
C763   C     0.51870   0.14765   0.62952   0.00000  Uiso   1.00
C764   C     0.48232   0.18531   0.87109   0.00000  Uiso   1.00
C765   C     0.52520   0.08491   0.52032   0.00000  Uiso   1.00
C766   C     0.52524   0.13821   0.58152   0.00000  Uiso   1.00
C767   C     0.47296   0.23965   0.93755   0.00000  Uiso   1.00
C768   C     0.64710   0.13262   0.80628   0.00000  Uiso   1.00
C769   C     0.33895   0.11616   0.83507   0.00000  Uiso   1.00
C770   C     0.64235   0.09330   0.87363   0.00000  Uiso   1.00
C771   C     0.56928   0.03669   0.98607   0.00000  Uiso   1.00
C772   C     0.46013   0.27050   0.91097   0.00000  Uiso   1.00
C773   C     0.49302   0.22591   0.50427   0.00000  Uiso   1.00
C774   C     0.45309   0.31421   0.93425   0.00000  Uiso   1.00
C775   C     0.44008   0.00808   0.90410   0.00000  Uiso   1.00
C776   C     0.49769   0.18398   0.98846   0.00000  Uiso   1.00
C777   C     0.48877   0.16946   0.94649   0.00000  Uiso   1.00
C778   C     0.51024   0.15578   0.51341   0.00000  Uiso   1.00
C779   C     0.51351   0.11353   0.99598   0.00000  Uiso   1.00
C780   C     0.50279   0.09974   0.95569   0.00000  Uiso   1.00
C781   C     0.48891   0.12660   0.93251   0.00000  Uiso   1.00
H782   H     0.53451   0.07422   0.58391   0.00000  Uiso   1.00
H783   H     0.62060   0.11466   0.89569   0.00000  Uiso   1.00
H784   H     0.62311   0.06612   0.86051   0.00000  Uiso   1.00
H785   H     0.66131   0.08185   0.89383   0.00000  Uiso   1.00
H786   H     0.36072   0.09420   0.81412   0.00000  Uiso   1.00
H787   H     0.35822   0.14259   0.84938   0.00000  Uiso   1.00
H788   H     0.62556   0.15402   0.82868   0.00000  Uiso   1.00
H789   H     0.62792   0.10525   0.79331   0.00000  Uiso   1.00
H790   H     0.58437   0.05670   0.95801   0.00000  Uiso   1.00
H791   H     0.57024   0.00369   0.97224   0.00000  Uiso   1.00
H792   H     0.58787   0.04201   0.51203   0.00000  Uiso   1.00
H793   H     0.53992   0.00363   0.71201   0.00000  Uiso   1.00
H794   H     0.46623   0.01339   0.87359   0.00000  Uiso   1.00
H795   H     0.41087   0.32632   0.89413   0.00000  Uiso   1.00
H796   H     0.43328   0.03873   0.92244   0.00000  Uiso   1.00
H797   H     0.42744   0.31169   0.96565   0.00000  Uiso   1.00
H798   H     0.48308   0.32955   0.94227   0.00000  Uiso   1.00
H799   H     0.48537   0.27457   0.87945   0.00000  Uiso   1.00
H800   H     0.42960   0.25686   0.90284   0.00000  Uiso   1.00
H801   H     0.45848   0.33148   0.78919   0.00000  Uiso   1.00
H802   H     0.50399   0.06762   0.94232   0.00000  Uiso   1.00
H803   H     0.51403   0.19837   0.57264   0.00000  Uiso   1.00
H804   H     0.49891   0.23956   0.53568   0.00000  Uiso   1.00
H805   H     0.47600   0.28378   0.99526   0.00000  Uiso   1.00
H806   H     0.47745   0.11276   0.90385   0.00000  Uiso   1.00
H807   H     0.34804   0.19142   0.71114   0.00000  Uiso   1.00
O808   O     0.50000   0.16667   0.75000   0.00000  Uiso   1.00
O809   O     0.48784   0.12637   0.65459   0.00000  Uiso   1.00
O810   O     0.46274   0.20391   0.84968   0.00000  Uiso   1.00
O811   O     0.54157   0.17759   0.64606   0.00000  Uiso   1.00
O812   O     0.50785   0.15880   0.84968   0.00000  Uiso   1.00
O813   O     0.52640   0.04341   0.50457   0.00000  Uiso   1.00
O814   O     0.51264   0.08019   0.78214   0.00000  Uiso   1.00
O815   O     0.47965   0.26085   0.77014   0.00000  Uiso   1.00
O816   O     0.40745   0.13291   0.73413   0.00000  Uiso   1.00
O817   O     0.60026   0.19272   0.71361   0.00000  Uiso   1.00
O818   O     0.40405   0.18878   0.78213   0.00000  Uiso   1.00
O819   O     0.58824   0.15226   0.77014   0.00000  Uiso   1.00
O820   O     0.47093   0.06944   0.73413   0.00000  Uiso   1.00
O821   O     0.53678   0.25620   0.71361   0.00000  Uiso   1.00
Zn822  Zn    0.52672   0.13994   0.78734   0.00000  Uiso   1.00
Zn823  Zn    0.46713   0.12458   0.71876   0.00000  Uiso   1.00
Zn824  Zn    0.54389   0.19775   0.70657   0.00000  Uiso   1.00
Zn825  Zn    0.46226   0.20439   0.78734   0.00000  Uiso   1.00
C826   C     0.71981   0.16018   0.75943   0.00000  Uiso   1.00
C827   C     0.85094   0.16760   0.55620   0.00000  Uiso   1.00
C828   C     0.86295   0.09722   0.56356   0.00000  Uiso   1.00
C829   C     0.94724   0.17349   0.74050   0.00000  Uiso   1.00
C830   C     0.81282   0.19782   0.91947   0.00000  Uiso   1.00
C831   C     0.99258   0.17470   0.73779   0.00000  Uiso   1.00
C832   C     0.67438   0.15608   0.76654   0.00000  Uiso   1.00
C833   C     0.84699   0.32246   0.73696   0.00000  Uiso   1.00
C834   C     0.81851   0.01183   0.76420   0.00000  Uiso   1.00
C835   C     0.82268   0.05591   0.76041   0.00000  Uiso   1.00
C836   C     0.84318   0.27786   0.74033   0.00000  Uiso   1.00
C837   C     0.81306   0.25246   0.98013   0.00000  Uiso   1.00
C838   C     0.85204   0.14765   0.62952   0.00000  Uiso   1.00
C839   C     0.81565   0.18531   0.87109   0.00000  Uiso   1.00
C840   C     0.85853   0.08491   0.52032   0.00000  Uiso   1.00
C841   C     0.85857   0.13821   0.58152   0.00000  Uiso   1.00
C842   C     0.80629   0.23965   0.93755   0.00000  Uiso   1.00
C843   C     0.98043   0.13262   0.80628   0.00000  Uiso   1.00
C844   C     0.67228   0.11616   0.83507   0.00000  Uiso   1.00
C845   C     0.97568   0.09330   0.87363   0.00000  Uiso   1.00
C846   C     0.90261   0.03669   0.98607   0.00000  Uiso   1.00
C847   C     0.79346   0.27050   0.91097   0.00000  Uiso   1.00
C848   C     0.82636   0.22591   0.50427   0.00000  Uiso   1.00
C849   C     0.78643   0.31421   0.93425   0.00000  Uiso   1.00
C850   C     0.77341   0.00808   0.90410   0.00000  Uiso   1.00
C851   C     0.83102   0.18398   0.98846   0.00000  Uiso   1.00
C852   C     0.82210   0.16946   0.94649   0.00000  Uiso   1.00
C853   C     0.84358   0.15578   0.51341   0.00000  Uiso   1.00
C854   C     0.84685   0.11353   0.99598   0.00000  Uiso   1.00
C855   C     0.83613   0.09974   0.95569   0.00000  Uiso   1.00
C856   C     0.82224   0.12660   0.93251   0.00000  Uiso   1.00
H857   H     0.86784   0.07422   0.58391   0.00000  Uiso   1.00
H858   H     0.95394   0.11466   0.89569   0.00000  Uiso   1.00
H859   H     0.95644   0.06612   0.86051   0.00000  Uiso   1.00
H860   H     0.99464   0.08185   0.89383   0.00000  Uiso   1.00
H861   H     0.69406   0.09420   0.81412   0.00000  Uiso   1.00
H862   H     0.69155   0.14259   0.84938   0.00000  Uiso   1.00
H863   H     0.95889   0.15402   0.82868   0.00000  Uiso   1.00
H864   H     0.96125   0.10525   0.79331   0.00000  Uiso   1.00
H865   H     0.91770   0.05670   0.95801   0.00000  Uiso   1.00
H866   H     0.90357   0.00369   0.97224   0.00000  Uiso   1.00
H867   H     0.92120   0.04201   0.51203   0.00000  Uiso   1.00
H868   H     0.87325   0.00363   0.71201   0.00000  Uiso   1.00
H869   H     0.79956   0.01339   0.87359   0.00000  Uiso   1.00
H870   H     0.74420   0.32632   0.89413   0.00000  Uiso   1.00
H871   H     0.76661   0.03873   0.92244   0.00000  Uiso   1.00
H872   H     0.76077   0.31169   0.96565   0.00000  Uiso   1.00
H873   H     0.81641   0.32955   0.94227   0.00000  Uiso   1.00
H874   H     0.81871   0.27457   0.87945   0.00000  Uiso   1.00
H875   H     0.76294   0.25686   0.90284   0.00000  Uiso   1.00
H876   H     0.79181   0.33148   0.78919   0.00000  Uiso   1.00
H877   H     0.83732   0.06762   0.94232   0.00000  Uiso   1.00
H878   H     0.84736   0.19837   0.57264   0.00000  Uiso   1.00
H879   H     0.83224   0.23956   0.53568   0.00000  Uiso   1.00
H880   H     0.80933   0.28378   0.99526   0.00000  Uiso   1.00
H881   H     0.81078   0.11276   0.90385   0.00000  Uiso   1.00
H882   H     0.68138   0.19142   0.71114   0.00000  Uiso   1.00
O883   O     0.83333   0.16667   0.75000   0.00000  Uiso   1.00
O884   O     0.82118   0.12637   0.65459   0.00000  Uiso   1.00
O885   O     0.79607   0.20391   0.84968   0.00000  Uiso   1.00
O886   O     0.87491   0.17759   0.64606   0.00000  Uiso   1.00
O887   O     0.84118   0.15880   0.84968   0.00000  Uiso   1.00
O888   O     0.85973   0.04341   0.50457   0.00000  Uiso   1.00
O889   O     0.84597   0.08019   0.78214   0.00000  Uiso   1.00
O890   O     0.81298   0.26085   0.77014   0.00000  Uiso   1.00
O891   O     0.74078   0.13291   0.73413   0.00000  Uiso   1.00
O892   O     0.93360   0.19272   0.71361   0.00000  Uiso   1.00
O893   O     0.73738   0.18878   0.78213   0.00000  Uiso   1.00
O894   O     0.92158   0.15226   0.77014   0.00000  Uiso   1.00
O895   O     0.80426   0.06944   0.73413   0.00000  Uiso   1.00
O896   O     0.87012   0.25620   0.71361   0.00000  Uiso   1.00
Zn897  Zn    0.86005   0.13994   0.78734   0.00000  Uiso   1.00
Zn898  Zn    0.80046   0.12458   0.71876   0.00000  Uiso   1.00
Zn899  Zn    0.87723   0.19775   0.70657   0.00000  Uiso   1.00
Zn900  Zn    0.79560   0.20439   0.78734   0.00000  Uiso   1.00
C901   C     0.05315   0.49352   0.75943   0.00000  Uiso   1.00
C902   C     0.18427   0.50093   0.55620   0.00000  Uiso   1.00
C903   C     0.19628   0.43056   0.56356   0.00000  Uiso   1.00
C904   C     0.28058   0.50683   0.74050   0.00000  Uiso   1.00
C905   C     0.14615   0.53116   0.91947   0.00000  Uiso   1.00
C906   C     0.32591   0.50804   0.73779   0.00000  Uiso   1.00
C907   C     0.00772   0.48941   0.76654   0.00000  Uiso   1.00
C908   C     0.18033   0.65580   0.73696   0.00000  Uiso   1.00
C909   C     0.15184   0.34516   0.76420   0.00000  Uiso   1.00
C910   C     0.15602   0.38924   0.76041   0.00000  Uiso   1.00
C911   C     0.17652   0.61119   0.74033   0.00000  Uiso   1.00
C912   C     0.14639   0.58579   0.98013   0.00000  Uiso   1.00
C913   C     0.18537   0.48098   0.62952   0.00000  Uiso   1.00
C914   C     0.14898   0.51865   0.87109   0.00000  Uiso   1.00
C915   C     0.19187   0.41824   0.52032   0.00000  Uiso   1.00
C916   C     0.19191   0.47155   0.58152   0.00000  Uiso   1.00
C917   C     0.13962   0.57298   0.93755   0.00000  Uiso   1.00
C918   C     0.31376   0.46595   0.80628   0.00000  Uiso   1.00
C919   C     0.00562   0.44949   0.83507   0.00000  Uiso   1.00
C920   C     0.30902   0.42663   0.87363   0.00000  Uiso   1.00
C921   C     0.23594   0.37002   0.98607   0.00000  Uiso   1.00
C922   C     0.12679   0.60383   0.91097   0.00000  Uiso   1.00
C923   C     0.15969   0.55924   0.50427   0.00000  Uiso   1.00
C924   C     0.11976   0.64754   0.93425   0.00000  Uiso   1.00
C925   C     0.10675   0.34141   0.90410   0.00000  Uiso   1.00
C926   C     0.16436   0.51731   0.98846   0.00000  Uiso   1.00
C927   C     0.15544   0.50279   0.94649   0.00000  Uiso   1.00
C928   C     0.17691   0.48911   0.51341   0.00000  Uiso   1.00
C929   C     0.18018   0.44686   0.99598   0.00000  Uiso   1.00
C930   C     0.16946   0.43308   0.95569   0.00000  Uiso   1.00
C931   C     0.15558   0.45993   0.93251   0.00000  Uiso   1.00
H932   H     0.20117   0.40755   0.58391   0.00000  Uiso   1.00
H933   H     0.28727   0.44799   0.89569   0.00000  Uiso   1.00
H934   H     0.28978   0.39945   0.86051   0.00000  Uiso   1.00
H935   H     0.32798   0.41519   0.89383   0.00000  Uiso   1.00
H936   H     0.02739   0.42754   0.81412   0.00000  Uiso   1.00
H937   H     0.02488   0.47592   0.84938   0.00000  Uiso   1.00
H938   H     0.29222   0.48736   0.82868   0.00000  Uiso   1.00
H939   H     0.29458   0.43859   0.79331   0.00000  Uiso   1.00
H940   H     0.25104   0.39003   0.95801   0.00000  Uiso   1.00
H941   H     0.23690   0.33703   0.97224   0.00000  Uiso   1.00
H942   H     0.25454   0.37534   0.51203   0.00000  Uiso   1.00
H943   H     0.20658   0.33697   0.71201   0.00000  Uiso   1.00
H944   H     0.13290   0.34672   0.87359   0.00000  Uiso   1.00
H945   H     0.07754   0.65966   0.89413   0.00000  Uiso   1.00
H946   H     0.09995   0.37206   0.92244   0.00000  Uiso   1.00
H947   H     0.09410   0.64502   0.96565   0.00000  Uiso   1.00
H948   H     0.14975   0.66288   0.94227   0.00000  Uiso   1.00
H949   H     0.15204   0.60791   0.87945   0.00000  Uiso   1.00
H950   H     0.09627   0.59019   0.90284   0.00000  Uiso   1.00
H951   H     0.12514   0.66481   0.78919   0.00000  Uiso   1.00
H952   H     0.17066   0.40095   0.94232   0.00000  Uiso   1.00
H953   H     0.18070   0.53170   0.57264   0.00000  Uiso   1.00
H954   H     0.16557   0.57289   0.53568   0.00000  Uiso   1.00
H955   H     0.14267   0.61712   0.99526   0.00000  Uiso   1.00
H956   H     0.14411   0.44609   0.90385   0.00000  Uiso   1.00
H957   H     0.01471   0.52475   0.71114   0.00000  Uiso   1.00
O958   O     0.16667   0.50000   0.75000   0.00000  Uiso   1.00
O959   O     0.15451   0.45970   0.65459   0.00000  Uiso   1.00
O960   O     0.12940   0.53724   0.84968   0.00000  Uiso   1.00
O961   O     0.20824   0.51092   0.64606   0.00000  Uiso   1.00
O962   O     0.17451   0.49213   0.84968   0.00000  Uiso   1.00
O963   O     0.19307   0.37674   0.50457   0.00000  Uiso   1.00
O964   O     0.17930   0.41352   0.78214   0.00000  Uiso   1.00
O965   O     0.14632   0.59418   0.77014   0.00000  Uiso   1.00
O966   O     0.07412   0.46625   0.73413   0.00000  Uiso   1.00
O967   O     0.26693   0.52605   0.71361   0.00000  Uiso   1.00
O968   O     0.07071   0.52211   0.78213   0.00000  Uiso   1.00
O969   O     0.25491   0.48559   0.77014   0.00000  Uiso   1.00
O970   O     0.13760   0.40277   0.73413   0.00000  Uiso   1.00
O971   O     0.20345   0.58953   0.71361   0.00000  Uiso   1.00
Zn972  Zn    0.19338   0.47327   0.78734   0.00000  Uiso   1.00
Zn973  Zn    0.13379   0.45791   0.71876   0.00000  Uiso   1.00
Zn974  Zn    0.21056   0.53109   0.70657   0.00000  Uiso   1.00
Zn975  Zn    0.12893   0.53773   0.78734   0.00000  Uiso   1.00
C976   C     0.38648   0.49352   0.75943   0.00000  Uiso   1.00
C977   C     0.51761   0.50093   0.55620   0.00000  Uiso   1.00
C978   C     0.52962   0.43056   0.56356   0.00000  Uiso   1.00
C979   C     0.61391   0.50683   0.74050   0.00000  Uiso   1.00
C980   C     0.47948   0.53116   0.91947   0.00000  Uiso   1.00
C981   C     0.65924   0.50804   0.73779   0.00000  Uiso   1.00
C982   C     0.34105   0.48941   0.76654   0.00000  Uiso   1.00
C983   C     0.51366   0.65580   0.73696   0.00000  Uiso   1.00
C984   C     0.48518   0.34516   0.76420   0.00000  Uiso   1.00
C985   C     0.48935   0.38924   0.76041   0.00000  Uiso   1.00
C986   C     0.50985   0.61119   0.74033   0.00000  Uiso   1.00
C987   C     0.47972   0.58579   0.98013   0.00000  Uiso   1.00
C988   C     0.51870   0.48098   0.62952   0.00000  Uiso   1.00
C989   C     0.48232   0.51865   0.87109   0.00000  Uiso   1.00
C990   C     0.52520   0.41824   0.52032   0.00000  Uiso   1.00
C991   C     0.52524   0.47155   0.58152   0.00000  Uiso   1.00
C992   C     0.47296   0.57298   0.93755   0.00000  Uiso   1.00
C993   C     0.64710   0.46595   0.80628   0.00000  Uiso   1.00
C994   C     0.33895   0.44949   0.83507   0.00000  Uiso   1.00
C995   C     0.64235   0.42663   0.87363   0.00000  Uiso   1.00
C996   C     0.56928   0.37002   0.98607   0.00000  Uiso   1.00
C997   C     0.46013   0.60383   0.91097   0.00000  Uiso   1.00
C998   C     0.49302   0.55924   0.50427   0.00000  Uiso   1.00
C999   C     0.45309   0.64754   0.93425   0.00000  Uiso   1.00
C1000  C     0.44008   0.34141   0.90410   0.00000  Uiso   1.00
C1001  C     0.49769   0.51731   0.98846   0.00000  Uiso   1.00
C1002  C     0.48877   0.50279   0.94649   0.00000  Uiso   1.00
C1003  C     0.51024   0.48911   0.51341   0.00000  Uiso   1.00
C1004  C     0.51351   0.44686   0.99598   0.00000  Uiso   1.00
C1005  C     0.50279   0.43308   0.95569   0.00000  Uiso   1.00
C1006  C     0.48891   0.45993   0.93251   0.00000  Uiso   1.00
H1007  H     0.53451   0.40755   0.58391   0.00000  Uiso   1.00
H1008  H     0.62060   0.44799   0.89569   0.00000  Uiso   1.00
H1009  H     0.62311   0.39945   0.86051   0.00000  Uiso   1.00
H1010  H     0.66131   0.41519   0.89383   0.00000  Uiso   1.00
H1011  H     0.36072   0.42754   0.81412   0.00000  Uiso   1.00
H1012  H     0.35822   0.47592   0.84938   0.00000  Uiso   1.00
H1013  H     0.62556   0.48736   0.82868   0.00000  Uiso   1.00
H1014  H     0.62792   0.43859   0.79331   0.00000  Uiso   1.00
H1015  H     0.58437   0.39003   0.95801   0.00000  Uiso   1.00
H1016  H     0.57024   0.33703   0.97224   0.00000  Uiso   1.00
H1017  H     0.58787   0.37534   0.51203   0.00000  Uiso   1.00
H1018  H     0.53992   0.33697   0.71201   0.00000  Uiso   1.00
H1019  H     0.46623   0.34672   0.87359   0.00000  Uiso   1.00
H1020  H     0.41087   0.65966   0.89413   0.00000  Uiso   1.00
H1021  H     0.43328   0.37206   0.92244   0.00000  Uiso   1.00
H1022  H     0.42744   0.64502   0.96565   0.00000  Uiso   1.00
H1023  H     0.48308   0.66288   0.94227   0.00000  Uiso   1.00
H1024  H     0.48537   0.60791   0.87945   0.00000  Uiso   1.00
H1025  H     0.42960   0.59019   0.90284   0.00000  Uiso   1.00
H1026  H     0.45848   0.66481   0.78919   0.00000  Uiso   1.00
H1027  H     0.50399   0.40095   0.94232   0.00000  Uiso   1.00
H1028  H     0.51403   0.53170   0.57264   0.00000  Uiso   1.00
H1029  H     0.49891   0.57289   0.53568   0.00000  Uiso   1.00
H1030  H     0.47600   0.61712   0.99526   0.00000  Uiso   1.00
H1031  H     0.47745   0.44609   0.90385   0.00000  Uiso   1.00
H1032  H     0.34804   0.52475   0.71114   0.00000  Uiso   1.00
O1033  O     0.50000   0.50000   0.75000   0.00000  Uiso   1.00
O1034  O     0.48784   0.45970   0.65459   0.00000  Uiso   1.00
O1035  O     0.46274   0.53724   0.84968   0.00000  Uiso   1.00
O1036  O     0.54157   0.51092   0.64606   0.00000  Uiso   1.00
O1037  O     0.50785   0.49213   0.84968   0.00000  Uiso   1.00
O1038  O     0.52640   0.37674   0.50457   0.00000  Uiso   1.00
O1039  O     0.51264   0.41352   0.78214   0.00000  Uiso   1.00
O1040  O     0.47965   0.59418   0.77014   0.00000  Uiso   1.00
O1041  O     0.40745   0.46625   0.73413   0.00000  Uiso   1.00
O1042  O     0.60026   0.52605   0.71361   0.00000  Uiso   1.00
O1043  O     0.40405   0.52211   0.78213   0.00000  Uiso   1.00
O1044  O     0.58824   0.48559   0.77014   0.00000  Uiso   1.00
O1045  O     0.47093   0.40277   0.73413   0.00000  Uiso   1.00
O1046  O     0.53678   0.58953   0.71361   0.00000  Uiso   1.00
Zn1047 Zn    0.52672   0.47327   0.78734   0.00000  Uiso   1.00
Zn1048 Zn    0.46713   0.45791   0.71876   0.00000  Uiso   1.00
Zn1049 Zn    0.54389   0.53109   0.70657   0.00000  Uiso   1.00
Zn1050 Zn    0.46226   0.53773   0.78734   0.00000  Uiso   1.00
C1051  C     0.71981   0.49352   0.75943   0.00000  Uiso   1.00
C1052  C     0.85094   0.50093   0.55620   0.00000  Uiso   1.00
C1053  C     0.86295   0.43056   0.56356   0.00000  Uiso   1.00
C1054  C     0.94724   0.50683   0.74050   0.00000  Uiso   1.00
C1055  C     0.81282   0.53116   0.91947   0.00000  Uiso   1.00
C1056  C     0.99258   0.50804   0.73779   0.00000  Uiso   1.00
C1057  C     0.67438   0.48941   0.76654   0.00000  Uiso   1.00
C1058  C     0.84699   0.65580   0.73696   0.00000  Uiso   1.00
C1059  C     0.81851   0.34516   0.76420   0.00000  Uiso   1.00
C1060  C     0.82268   0.38924   0.76041   0.00000  Uiso   1.00
C1061  C     0.84318   0.61119   0.74033   0.00000  Uiso   1.00
C1062  C     0.81306   0.58579   0.98013   0.00000  Uiso   1.00
C1063  C     0.85204   0.48098   0.62952   0.00000  Uiso   1.00
C1064  C     0.81565   0.51865   0.87109   0.00000  Uiso   1.00
C1065  C     0.85853   0.41824   0.52032   0.00000  Uiso   1.00
C1066  C     0.85857   0.47155   0.58152   0.00000  Uiso   1.00
C1067  C     0.80629   0.57298   0.93755   0.00000  Uiso   1.00
C1068  C     0.98043   0.46595   0.80628   0.00000  Uiso   1.00
C1069  C     0.67228   0.44949   0.83507   0.00000  Uiso   1.00
C1070  C     0.97568   0.42663   0.87363   0.00000  Uiso   1.00
C1071  C     0.90261   0.37002   0.98607   0.00000  Uiso   1.00
C1072  C     0.79346   0.60383   0.91097   0.00000  Uiso   1.00
C1073  C     0.82636   0.55924   0.50427   0.00000  Uiso   1.00
C1074  C     0.78643   0.64754   0.93425   0.00000  Uiso   1.00
C1075  C     0.77341   0.34141   0.90410   0.00000  Uiso   1.00
C1076  C     0.83102   0.51731   0.98846   0.00000  Uiso   1.00
C1077  C     0.82210   0.50279   0.94649   0.00000  Uiso   1.00
C1078  C     0.84358   0.48911   0.51341   0.00000  Uiso   1.00
C1079  C     0.84685   0.44686   0.99598   0.00000  Uiso   1.00
C1080  C     0.83613   0.43308   0.95569   0.00000  Uiso   1.00
C1081  C     0.82224   0.45993   0.93251   0.00000  Uiso   1.00
H1082  H     0.86784   0.40755   0.58391   0.00000  Uiso   1.00
H1083  H     0.95394   0.44799   0.89569   0.00000  Uiso   1.00
H1084  H     0.95644   0.39945   0.86051   0.00000  Uiso   1.00
H1085  H     0.99464   0.41519   0.89383   0.00000  Uiso   1.00
H1086  H     0.69406   0.42754   0.81412   0.00000  Uiso   1.00
H1087  H     0.69155   0.47592   0.84938   0.00000  Uiso   1.00
H1088  H     0.95889   0.48736   0.82868   0.00000  Uiso   1.00
H1089  H     0.96125   0.43859   0.79331   0.00000  Uiso   1.00
H1090  H     0.91770   0.39003   0.95801   0.00000  Uiso   1.00
H1091  H     0.90357   0.33703   0.97224   0.00000  Uiso   1.00
H1092  H     0.92120   0.37534   0.51203   0.00000  Uiso   1.00
H1093  H     0.87325   0.33697   0.71201   0.00000  Uiso   1.00
H1094  H     0.79956   0.34672   0.87359   0.00000  Uiso   1.00
H1095  H     0.74420   0.65966   0.89413   0.00000  Uiso   1.00
H1096  H     0.76661   0.37206   0.92244   0.00000  Uiso   1.00
H1097  H     0.76077   0.64502   0.96565   0.00000  Uiso   1.00
H1098  H     0.81641   0.66288   0.94227   0.00000  Uiso   1.00
H1099  H     0.81871   0.60791   0.87945   0.00000  Uiso   1.00
H1100  H     0.76294   0.59019   0.90284   0.00000  Uiso   1.00
H1101  H     0.79181   0.66481   0.78919   0.00000  Uiso   1.00
H1102  H     0.83732   0.40095   0.94232   0.00000  Uiso   1.00
H1103  H     0.84736   0.53170   0.57264   0.00000  Uiso   1.00
H1104  H     0.83224   0.57289   0.53568   0.00000  Uiso   1.00
H1105  H     0.80933   0.61712   0.99526   0.00000  Uiso   1.00
H1106  H     0.81078   0.44609   0.90385   0.00000  Uiso   1.00
H1107  H     0.68138   0.52475   0.71114   0.00000  Uiso   1.00
O1108  O     0.83333   0.50000   0.75000   0.00000  Uiso   1.00
O1109  O     0.82118   0.45970   0.65459   0.00000  Uiso   1.00
O1110  O     0.79607   0.53724   0.84968   0.00000  Uiso   1.00
O1111  O     0.87491   0.51092   0.64606   0.00000  Uiso   1.00
O1112  O     0.84118   0.49213   0.84968   0.00000  Uiso   1.00
O1113  O     0.85973   0.37674   0.50457   0.00000  Uiso   1.00
O1114  O     0.84597   0.41352   0.78214   0.00000  Uiso   1.00
O1115  O     0.81298   0.59418   0.77014   0.00000  Uiso   1.00
O1116  O     0.74078   0.46625   0.73413   0.00000  Uiso   1.00
O1117  O     0.93360   0.52605   0.71361   0.00000  Uiso   1.00
O1118  O     0.73738   0.52211   0.78213   0.00000  Uiso   1.00
O1119  O     0.92158   0.48559   0.77014   0.00000  Uiso   1.00
O1120  O     0.80426   0.40277   0.73413   0.00000  Uiso   1.00
O1121  O     0.87012   0.58953   0.71361   0.00000  Uiso   1.00
Zn1122 Zn    0.86005   0.47327   0.78734   0.00000  Uiso   1.00
Zn1123 Zn    0.80046   0.45791   0.71876   0.00000  Uiso   1.00
Zn1124 Zn    0.87723   0.53109   0.70657   0.00000  Uiso   1.00
Zn1125 Zn    0.79560   0.53773   0.78734   0.00000  Uiso   1.00
C1126  C     0.05315   0.82685   0.75943   0.00000  Uiso   1.00
C1127  C     0.18427   0.83427   0.55620   0.00000  Uiso   1.00
C1128  C     0.19628   0.76389   0.56356   0.00000  Uiso   1.00
C1129  C     0.28058   0.84016   0.74050   0.00000  Uiso   1.00
C1130  C     0.14615   0.86449   0.91947   0.00000  Uiso   1.00
C1131  C     0.32591   0.84137   0.73779   0.00000  Uiso   1.00
C1132  C     0.00772   0.82275   0.76654   0.00000  Uiso   1.00
C1133  C     0.18033   0.98913   0.73696   0.00000  Uiso   1.00
C1134  C     0.15184   0.67850   0.76420   0.00000  Uiso   1.00
C1135  C     0.15602   0.72258   0.76041   0.00000  Uiso   1.00
C1136  C     0.17652   0.94453   0.74033   0.00000  Uiso   1.00
C1137  C     0.14639   0.91913   0.98013   0.00000  Uiso   1.00
C1138  C     0.18537   0.81432   0.62952   0.00000  Uiso   1.00
C1139  C     0.14898   0.85198   0.87109   0.00000  Uiso   1.00
C1140  C     0.19187   0.75158   0.52032   0.00000  Uiso   1.00
C1141  C     0.19191   0.80488   0.58152   0.00000  Uiso   1.00
C1142  C     0.13962   0.90631   0.93755   0.00000  Uiso   1.00
C1143  C     0.31376   0.79928   0.80628   0.00000  Uiso   1.00
C1144  C     0.00562   0.78283   0.83507   0.00000  Uiso   1.00
C1145  C     0.30902   0.75996   0.87363   0.00000  Uiso   1.00
C1146  C     0.23594   0.70336   0.98607   0.00000  Uiso   1.00
C1147  C     0.12679   0.93717   0.91097   0.00000  Uiso   1.00
C1148  C     0.15969   0.89257   0.50427   0.00000  Uiso   1.00
C1149  C     0.11976   0.98088   0.93425   0.00000  Uiso   1.00
C1150  C     0.10675   0.67475   0.90410   0.00000  Uiso   1.00
C1151  C     0.16436   0.85064   0.98846   0.00000  Uiso   1.00
C1152  C     0.15544   0.83612   0.94649   0.00000  Uiso   1.00
C1153  C     0.17691   0.82245   0.51341   0.00000  Uiso   1.00
C1154  C     0.18018   0.78020   0.99598   0.00000  Uiso   1.00
C1155  C     0.16946   0.76641   0.95569   0.00000  Uiso   1.00
C1156  C     0.15558   0.79327   0.93251   0.00000  Uiso   1.00
H1157  H     0.20117   0.74088   0.58391   0.00000  Uiso   1.00
H1158  H     0.28727   0.78133   0.89569   0.00000  Uiso   1.00
H1159  H     0.28978   0.73279   0.86051   0.00000  Uiso   1.00
H1160  H     0.32798   0.74852   0.89383   0.00000  Uiso   1.00
H1161  H     0.02739   0.76087   0.81412   0.00000  Uiso   1.00
H1162  H     0.02488   0.80926   0.84938   0.00000  Uiso   1.00
H1163  H     0.29222   0.82069   0.82868   0.00000  Uiso   1.00
H1164  H     0.29458   0.77192   0.79331   0.00000  Uiso   1.00
H1165  H     0.25104   0.72337   0.95801   0.00000  Uiso   1.00
H1166  H     0.23690   0.67036   0.97224   0.00000  Uiso   1.00
H1167  H     0.25454   0.70868   0.51203   0.00000  Uiso   1.00
H1168  H     0.20658   0.67030   0.71201   0.00000  Uiso   1.00
H1169  H     0.13290   0.68006   0.87359   0.00000  Uiso   1.00
H1170  H     0.07754   0.99299   0.89413   0.00000  Uiso   1.00
H1171  H     0.09995   0.70540   0.92244   0.00000  Uiso   1.00
H1172  H     0.09410   0.97835   0.96565   0.00000  Uiso   1.00
H1173  H     0.14975   0.99622   0.94227   0.00000  Uiso   1.00
H1174  H     0.15204   0.94124   0.87945   0.00000  Uiso   1.00
H1175  H     0.09627   0.92353   0.90284   0.00000  Uiso   1.00
H1176  H     0.12514   0.99814   0.78919   0.00000  Uiso   1.00
H1177  H     0.17066   0.73428   0.94232   0.00000  Uiso   1.00
H1178  H     0.18070   0.86503   0.57264   0.00000  Uiso   1.00
H1179  H     0.16557   0.90623   0.53568   0.00000  Uiso   1.00
H1180  H     0.14267   0.95045   0.99526   0.00000  Uiso   1.00
H1181  H     0.14411   0.77943   0.90385   0.00000  Uiso   1.00
H1182  H     0.01471   0.85809   0.71114   0.00000  Uiso   1.00
O1183  O     0.16667   0.83333   0.75000   0.00000  Uiso   1.00
O1184  O     0.15451   0.79304   0.65459   0.00000  Uiso   1.00
O1185  O     0.12940   0.87058   0.84968   0.00000  Uiso   1.00
O1186  O     0.20824   0.84425   0.64606   0.00000  Uiso   1.00
O1187  O     0.17451   0.82546   0.84968   0.00000  Uiso   1.00
O1188  O     0.19307   0.71007   0.50457   0.00000  Uiso   1.00
O1189  O     0.17930   0.74686   0.78214   0.00000  Uiso   1.00
O1190  O     0.14632   0.92751   0.77014   0.00000  Uiso   1.00
O1191  O     0.07412   0.79958   0.73413   0.00000  Uiso   1.00
O1192  O     0.26693   0.85939   0.71361   0.00000  Uiso   1.00
O1193  O     0.07071   0.85544   0.78213   0.00000  Uiso   1.00
O1194  O     0.25491   0.81892   0.77014   0.00000  Uiso   1.00
O1195  O     0.13760   0.73610   0.73413   0.00000  Uiso   1.00
O1196  O     0.20345   0.92286   0.71361   0.00000  Uiso   1.00
Zn1197 Zn    0.19338   0.80661   0.78734   0.00000  Uiso   1.00
Zn1198 Zn    0.13379   0.79124   0.71876   0.00000  Uiso   1.00
Zn1199 Zn    0.21056   0.86442   0.70657   0.00000  Uiso   1.00
Zn1200 Zn    0.12893   0.87106   0.78734   0.00000  Uiso   1.00
C1201  C     0.38648   0.82685   0.75943   0.00000  Uiso   1.00
C1202  C     0.51761   0.83427   0.55620   0.00000  Uiso   1.00
C1203  C     0.52962   0.76389   0.56356   0.00000  Uiso   1.00
C1204  C     0.61391   0.84016   0.74050   0.00000  Uiso   1.00
C1205  C     0.47948   0.86449   0.91947   0.00000  Uiso   1.00
C1206  C     0.65924   0.84137   0.73779   0.00000  Uiso   1.00
C1207  C     0.34105   0.82275   0.76654   0.00000  Uiso   1.00
C1208  C     0.51366   0.98913   0.73696   0.00000  Uiso   1.00
C1209  C     0.48518   0.67850   0.76420   0.00000  Uiso   1.00
C1210  C     0.48935   0.72258   0.76041   0.00000  Uiso   1.00
C1211  C     0.50985   0.94453   0.74033   0.00000  Uiso   1.00
C1212  C     0.47972   0.91913   0.98013   0.00000  Uiso   1.00
C1213  C     0.51870   0.81432   0.62952   0.00000  Uiso   1.00
C1214  C     0.48232   0.85198   0.87109   0.00000  Uiso   1.00
C1215  C     0.52520   0.75158   0.52032   0.00000  Uiso   1.00
C1216  C     0.52524   0.80488   0.58152   0.00000  Uiso   1.00
C1217  C     0.47296   0.90631   0.93755   0.00000  Uiso   1.00
C1218  C     0.64710   0.79928   0.80628   0.00000  Uiso   1.00
C1219  C     0.33895   0.78283   0.83507   0.00000  Uiso   1.00
C1220  C     0.64235   0.75996   0.87363   0.00000  Uiso   1.00
C1221  C     0.56928   0.70336   0.98607   0.00000  Uiso   1.00
C1222  C     0.46013   0.93717   0.91097   0.00000  Uiso   1.00
C1223  C     0.49302   0.89257   0.50427   0.00000  Uiso   1.00
C1224  C     0.45309   0.98088   0.93425   0.00000  Uiso   1.00
C1225  C     0.44008   0.67475   0.90410   0.00000  Uiso   1.00
C1226  C     0.49769   0.85064   0.98846   0.00000  Uiso   1.00
C1227  C     0.48877   0.83612   0.94649   0.00000  Uiso   1.00
C1228  C     0.51024   0.82245   0.51341   0.00000  Uiso   1.00
C1229  C     0.51351   0.78020   0.99598   0.00000  Uiso   1.00
C1230  C     0.50279   0.76641   0.95569   0.00000  Uiso   1.00
C1231  C     0.48891   0.79327   0.93251   0.00000  Uiso   1.00
H1232  H     0.53451   0.74088   0.58391   0.00000  Uiso   1.00
H1233  H     0.62060   0.78133   0.89569   0.00000  Uiso   1.00
H1234  H     0.62311   0.73279   0.86051   0.00000  Uiso   1.00
H1235  H     0.66131   0.74852   0.89383   0.00000  Uiso   1.00
H1236  H     0.36072   0.76087   0.81412   0.00000  Uiso   1.00
H1237  H     0.35822   0.80926   0.84938   0.00000  Uiso   1.00
H1238  H     0.62556   0.82069   0.82868   0.00000  Uiso   1.00
H1239  H     0.62792   0.77192   0.79331   0.00000  Uiso   1.00
H1240  H     0.58437   0.72337   0.95801   0.00000  Uiso   1.00
H1241  H     0.57024   0.67036   0.97224   0.00000  Uiso   1.00
H1242  H     0.58787   0.70868   0.51203   0.00000  Uiso   1.00
H1243  H     0.53992   0.67030   0.71201   0.00000  Uiso   1.00
H1244  H     0.46623   0.68006   0.87359   0.00000  Uiso   1.00
H1245  H     0.41087   0.99299   0.89413   0.00000  Uiso   1.00
H1246  H     0.43328   0.70540   0.92244   0.00000  Uiso   1.00
H1247  H     0.42744   0.97835   0.96565   0.00000  Uiso   1.00
H1248  H     0.48308   0.99622   0.94227   0.00000  Uiso   1.00
H1249  H     0.48537   0.94124   0.87945   0.00000  Uiso   1.00
H1250  H     0.42960   0.92353   0.90284   0.00000  Uiso   1.00
H1251  H     0.45848   0.99814   0.78919   0.00000  Uiso   1.00
H1252  H     0.50399   0.73428   0.94232   0.00000  Uiso   1.00
H1253  H     0.51403   0.86503   0.57264   0.00000  Uiso   1.00
H1254  H     0.49891   0.90623   0.53568   0.00000  Uiso   1.00
H1255  H     0.47600   0.95045   0.99526   0.00000  Uiso   1.00
H1256  H     0.47745   0.77943   0.90385   0.00000  Uiso   1.00
H1257  H     0.34804   0.85809   0.71114   0.00000  Uiso   1.00
O1258  O     0.50000   0.83333   0.75000   0.00000  Uiso   1.00
O1259  O     0.48784   0.79304   0.65459   0.00000  Uiso   1.00
O1260  O     0.46274   0.87058   0.84968   0.00000  Uiso   1.00
O1261  O     0.54157   0.84425   0.64606   0.00000  Uiso   1.00
O1262  O     0.50785   0.82546   0.84968   0.00000  Uiso   1.00
O1263  O     0.52640   0.71007   0.50457   0.00000  Uiso   1.00
O1264  O     0.51264   0.74686   0.78214   0.00000  Uiso   1.00
O1265  O     0.47965   0.92751   0.77014   0.00000  Uiso   1.00
O1266  O     0.40745   0.79958   0.73413   0.00000  Uiso   1.00
O1267  O     0.60026   0.85939   0.71361   0.00000  Uiso   1.00
O1268  O     0.40405   0.85544   0.78213   0.00000  Uiso   1.00
O1269  O     0.58824   0.81892   0.77014   0.00000  Uiso   1.00
O1270  O     0.47093   0.73610   0.73413   0.00000  Uiso   1.00
O1271  O     0.53678   0.92286   0.71361   0.00000  Uiso   1.00
Zn1272 Zn    0.52672   0.80661   0.78734   0.00000  Uiso   1.00
Zn1273 Zn    0.46713   0.79124   0.71876   0.00000  Uiso   1.00
Zn1274 Zn    0.54389   0.86442   0.70657   0.00000  Uiso   1.00
Zn1275 Zn    0.46226   0.87106   0.78734   0.00000  Uiso   1.00
C1276  C     0.71981   0.82685   0.75943   0.00000  Uiso   1.00
C1277  C     0.85094   0.83427   0.55620   0.00000  Uiso   1.00
C1278  C     0.86295   0.76389   0.56356   0.00000  Uiso   1.00
C1279  C     0.94724   0.84016   0.74050   0.00000  Uiso   1.00
C1280  C     0.81282   0.86449   0.91947   0.00000  Uiso   1.00
C1281  C     0.99258   0.84137   0.73779   0.00000  Uiso   1.00
C1282  C     0.67438   0.82275   0.76654   0.00000  Uiso   1.00
C1283  C     0.84699   0.98913   0.73696   0.00000  Uiso   1.00
C1284  C     0.81851   0.67850   0.76420   0.00000  Uiso   1.00
C1285  C     0.82268   0.72258   0.76041   0.00000  Uiso   1.00
C1286  C     0.84318   0.94453   0.74033   0.00000  Uiso   1.00
C1287  C     0.81306   0.91913   0.98013   0.00000  Uiso   1.00
C1288  C     0.85204   0.81432   0.62952   0.00000  Uiso   1.00
C1289  C     0.81565   0.85198   0.87109   0.00000  Uiso   1.00
C1290  C     0.85853   0.75158   0.52032   0.00000  Uiso   1.00
C1291  C     0.85857   0.80488   0.58152   0.00000  Uiso   1.00
C1292  C     0.80629   0.90631   0.93755   0.00000  Uiso   1.00
C1293  C     0.98043   0.79928   0.80628   0.00000  Uiso   1.00
C1294  C     0.67228   0.78283   0.83507   0.00000  Uiso   1.00
C1295  C     0.97568   0.75996   0.87363   0.00000  Uiso   1.00
C1296  C     0.90261   0.70336   0.98607   0.00000  Uiso   1.00
C1297  C     0.79346   0.93717   0.91097   0.00000  Uiso   1.00
C1298  C     0.82636   0.89257   0.50427   0.00000  Uiso   1.00
C1299  C     0.78643   0.98088   0.93425   0.00000  Uiso   1.00
C1300  C     0.77341   0.67475   0.90410   0.00000  Uiso   1.00
C1301  C     0.83102   0.85064   0.98846   0.00000  Uiso   1.00
C1302  C     0.82210   0.83612   0.94649   0.00000  Uiso   1.00
C1303  C     0.84358   0.82245   0.51341   0.00000  Uiso   1.00
C1304  C     0.84685   0.78020   0.99598   0.00000  Uiso   1.00
C1305  C     0.83613   0.76641   0.95569   0.00000  Uiso   1.00
C1306  C     0.82224   0.79327   0.93251   0.00000  Uiso   1.00
H1307  H     0.86784   0.74088   0.58391   0.00000  Uiso   1.00
H1308  H     0.95394   0.78133   0.89569   0.00000  Uiso   1.00
H1309  H     0.95644   0.73279   0.86051   0.00000  Uiso   1.00
H1310  H     0.99464   0.74852   0.89383   0.00000  Uiso   1.00
H1311  H     0.69406   0.76087   0.81412   0.00000  Uiso   1.00
H1312  H     0.69155   0.80926   0.84938   0.00000  Uiso   1.00
H1313  H     0.95889   0.82069   0.82868   0.00000  Uiso   1.00
H1314  H     0.96125   0.77192   0.79331   0.00000  Uiso   1.00
H1315  H     0.91770   0.72337   0.95801   0.00000  Uiso   1.00
H1316  H     0.90357   0.67036   0.97224   0.00000  Uiso   1.00
H1317  H     0.92120   0.70868   0.51203   0.00000  Uiso   1.00
H1318  H     0.87325   0.67030   0.71201   0.00000  Uiso   1.00
H1319  H     0.79956   0.68006   0.87359   0.00000  Uiso   1.00
H1320  H     0.74420   0.99299   0.89413   0.00000  Uiso   1.00
H1321  H     0.76661   0.70540   0.92244   0.00000  Uiso   1.00
H1322  H     0.76077   0.97835   0.96565   0.00000  Uiso   1.00
H1323  H     0.81641   0.99622   0.94227   0.00000  Uiso   1.00
H1324  H     0.81871   0.94124   0.87945   0.00000  Uiso   1.00
H1325  H     0.76294   0.92353   0.90284   0.00000  Uiso   1.00
H1326  H     0.79181   0.99814   0.78919   0.00000  Uiso   1.00
H1327  H     0.83732   0.73428   0.94232   0.00000  Uiso   1.00
H1328  H     0.84736   0.86503   0.57264   0.00000  Uiso   1.00
H1329  H     0.83224   0.90623   0.53568   0.00000  Uiso   1.00
H1330  H     0.80933   0.95045   0.99526   0.00000  Uiso   1.00
H1331  H     0.81078   0.77943   0.90385   0.00000  Uiso   1.00
H1332  H     0.68138   0.85809   0.71114   0.00000  Uiso   1.00
O1333  O     0.83333   0.83333   0.75000   0.00000  Uiso   1.00
O1334  O     0.82118   0.79304   0.65459   0.00000  Uiso   1.00
O1335  O     0.79607   0.87058   0.84968   0.00000  Uiso   1.00
O1336  O     0.87491   0.84425   0.64606   0.00000  Uiso   1.00
O1337  O     0.84118   0.82546   0.84968   0.00000  Uiso   1.00
O1338  O     0.85973   0.71007   0.50457   0.00000  Uiso   1.00
O1339  O     0.84597   0.74686   0.78214   0.00000  Uiso   1.00
O1340  O     0.81298   0.92751   0.77014   0.00000  Uiso   1.00
O1341  O     0.74078   0.79958   0.73413   0.00000  Uiso   1.00
O1342  O     0.93360   0.85939   0.71361   0.00000  Uiso   1.00
O1343  O     0.73738   0.85544   0.78213   0.00000  Uiso   1.00
O1344  O     0.92158   0.81892   0.77014   0.00000  Uiso   1.00
O1345  O     0.80426   0.73610   0.73413   0.00000  Uiso   1.00
O1346  O     0.87012   0.92286   0.71361   0.00000  Uiso   1.00
Zn1347 Zn    0.86005   0.80661   0.78734   0.00000  Uiso   1.00
Zn1348 Zn    0.80046   0.79124   0.71876   0.00000  Uiso   1.00
Zn1349 Zn    0.87723   0.86442   0.70657   0.00000  Uiso   1.00
Zn1350 Zn    0.79560   0.87106   0.78734   0.00000  Uiso   1.00
loop_
_geom_bond_atom_site_label_1
_geom_bond_atom_site_label_2
_geom_bond_distance
_geom_bond_site_symmetry_2
_ccdc_geom_bond_type
C1     O68     1.264   .     A
C1     O66     1.267   .     A
C1     C7      1.433   .     S
C2     C16     1.389   .     A
C2     H53     1.076   .     S
C2     C28     1.410   .     A
C3     C15     1.393   .     A
C3     H32     1.084   .     S
C3     C16     1.395   .     A
C4     O69     1.268   .     A
C4     C6      1.458   .     S
C4     O67     1.294   .     A
C5     C17     1.432   .     A
C5     C27     1.424   .     A
C5     C14     1.491   .     S
C6     C82     1.357   .     S
C6     H132    1.088   .     S
C7     C156    1.357   1_455 S
C7     C168    1.533   1_455 S
C8     C11     1.450   .     S
C8     C234    1.330   .     S
C8     H268    1.088   .     S
C9     C10     1.434   .     S
C9     C458    1.330   1_545 S
C9     H501    1.086   1_545 S
C10    O70     1.276   .     A
C10    O64     1.277   .     A
C11    O71     1.274   .     A
C11    O65     1.275   .     A
C12    C17     1.402   .     A
C12    H55     1.080   .     S
C12    C698    1.383   .     S
C13    O59     1.273   .     A
C13    O61     1.283   .     A
C13    C16     1.451   .     S
C14    O62     1.291   .     A
C14    O60     1.279   .     A
C15    O63     1.383   .     S
C15    C704    1.410   1_554 S
C17    C22     1.531   .     S
C18    H39     1.112   .     S
C18    H38     1.112   .     S
C18    C82     1.533   .     S
C18    C94     1.540   .     S
C19    H36     1.112   .     S
C19    H37     1.112   .     S
C19    C168    1.540   1_455 S
C19    C170    1.527   1_455 S
C20    H35     1.111   .     S
C20    H34     1.111   .     S
C20    H33     1.111   .     S
C20    C94     1.527   .     S
C21    H41     1.109   .     S
C21    H40     1.113   .     S
C21    H717    1.113   .     S
C21    O738    1.409   .     S
C22    H50     1.112   .     S
C22    H49     1.112   .     S
C22    C24     1.537   .     S
C23    H54     1.075   .     S
C23    C687    1.383   1_554 S
C23    C701    1.409   1_554 S
C24    H48     1.110   .     S
C24    H47     1.112   .     S
C24    C250    1.528   .     S
C25    H44     1.111   .     S
C25    H46     1.110   .     S
C25    C474    1.528   1_545 S
C25    H495    1.111   1_545 S
C26    C27     1.421   .     A
C26    C698    1.409   .     S
C26    C703    1.427   .     S
C27    C31     1.410   .     A
C28    C701    1.427   1_554 S
C28    C704    1.424   1_554 S
C29    C30     1.392   .     A
C29    C703    1.424   .     S
C29    C690    1.410   .     S
C30    C31     1.381   .     A
C30    H52     1.080   .     S
C31    H56     1.080   .     S
H42    C696    1.113   1_554 S
H43    C458    1.088   1_545 S
H45    C250    1.111   .     S
H51    C234    1.086   .     S
H57    C156    1.088   1_455 S
O58    Zn75    1.931   .     S
O58    Zn74    1.949   .     S
O58    Zn72    1.955   .     S
O58    Zn73    1.945   .     S
O59    Zn73    1.934   .     S
O60    Zn75    1.939   .     S
O61    Zn74    1.933   .     S
O62    Zn72    1.927   .     S
O63    C696    1.409   1_554 S
O64    Zn72    1.928   .     S
O65    Zn75    1.934   .     S
O66    Zn73    1.936   .     S
O67    Zn74    1.942   .     S
O68    Zn75    1.943   .     S
O69    Zn72    1.939   .     S
O70    Zn73    1.933   .     S
O71    Zn74    1.925   .     S
C76    O143    1.264   .     A
C76    O141    1.267   .     A
C76    C82     1.433   .     S
C77    C91     1.389   .     A
C77    H128    1.076   .     S
C77    C103    1.410   .     A
C78    C90     1.393   .     A
C78    H107    1.084   .     S
C78    C91     1.395   .     A
C79    O144    1.268   .     A
C79    C81     1.458   .     S
C79    O142    1.294   .     A
C80    C92     1.432   .     A
C80    C102    1.424   .     A
C80    C89     1.491   .     S
C81    C157    1.357   .     S
C81    H207    1.088   .     S
C83    C86     1.450   .     S
C83    C309    1.330   .     S
C83    H343    1.088   .     S
C84    C85     1.434   .     S
C84    C533    1.330   1_545 S
C84    H576    1.086   1_545 S
C85    O145    1.276   .     A
C85    O139    1.277   .     A
C86    O146    1.274   .     A
C86    O140    1.275   .     A
C87    C92     1.402   .     A
C87    H130    1.080   .     S
C87    C773    1.383   .     S
C88    O134    1.273   .     A
C88    O136    1.283   .     A
C88    C91     1.451   .     S
C89    O137    1.291   .     A
C89    O135    1.279   .     A
C90    O138    1.383   .     S
C90    C779    1.410   1_554 S
C92    C97     1.531   .     S
C93    H114    1.112   .     S
C93    H113    1.112   .     S
C93    C157    1.533   .     S
C93    C169    1.540   .     S
C94    H111    1.112   .     S
C94    H112    1.112   .     S
C95    H110    1.111   .     S
C95    H109    1.111   .     S
C95    H108    1.111   .     S
C95    C169    1.527   .     S
C96    H116    1.109   .     S
C96    H115    1.113   .     S
C96    H792    1.113   .     S
C96    O813    1.409   .     S
C97    H125    1.112   .     S
C97    H124    1.112   .     S
C97    C99     1.537   .     S
C98    H129    1.075   .     S
C98    C762    1.383   1_554 S
C98    C776    1.409   1_554 S
C99    H123    1.110   .     S
C99    H122    1.112   .     S
C99    C325    1.528   .     S
C100   H119    1.111   .     S
C100   H121    1.110   .     S
C100   C549    1.528   1_545 S
C100   H570    1.111   1_545 S
C101   C102    1.421   .     A
C101   C773    1.409   .     S
C101   C778    1.427   .     S
C102   C106    1.410   .     A
C103   C776    1.427   1_554 S
C103   C779    1.424   1_554 S
C104   C105    1.392   .     A
C104   C778    1.424   .     S
C104   C765    1.410   .     S
C105   C106    1.381   .     A
C105   H127    1.080   .     S
C106   H131    1.080   .     S
H117   C771    1.113   1_554 S
H118   C533    1.088   1_545 S
H120   C325    1.111   .     S
H126   C309    1.086   .     S
O133   Zn150   1.931   .     S
O133   Zn149   1.949   .     S
O133   Zn147   1.955   .     S
O133   Zn148   1.945   .     S
O134   Zn148   1.934   .     S
O135   Zn150   1.939   .     S
O136   Zn149   1.933   .     S
O137   Zn147   1.927   .     S
O138   C771    1.409   1_554 S
O139   Zn147   1.928   .     S
O140   Zn150   1.934   .     S
O141   Zn148   1.936   .     S
O142   Zn149   1.942   .     S
O143   Zn150   1.943   .     S
O144   Zn147   1.939   .     S
O145   Zn148   1.933   .     S
O146   Zn149   1.925   .     S
C151   O218    1.264   .     A
C151   O216    1.267   .     A
C151   C157    1.433   .     S
C152   C166    1.389   .     A
C152   H203    1.076   .     S
C152   C178    1.410   .     A
C153   C165    1.393   .     A
C153   H182    1.084   .     S
C153   C166    1.395   .     A
C154   O219    1.268   .     A
C154   C156    1.458   .     S
C154   O217    1.294   .     A
C155   C167    1.432   .     A
C155   C177    1.424   .     A
C155   C164    1.491   .     S
C156   C7      1.357   1_655 S
C156   H57     1.088   1_655 S
C158   C161    1.450   .     S
C158   C384    1.330   .     S
C158   H418    1.088   .     S
C159   C160    1.434   .     S
C159   C608    1.330   1_545 S
C159   H651    1.086   1_545 S
C160   O220    1.276   .     A
C160   O214    1.277   .     A
C161   O221    1.274   .     A
C161   O215    1.275   .     A
C162   C167    1.402   .     A
C162   H205    1.080   .     S
C162   C848    1.383   .     S
C163   O209    1.273   .     A
C163   O211    1.283   .     A
C163   C166    1.451   .     S
C164   O212    1.291   .     A
C164   O210    1.279   .     A
C165   O213    1.383   .     S
C165   C854    1.410   1_554 S
C167   C172    1.531   .     S
C168   H189    1.112   .     S
C168   H188    1.112   .     S
C168   C7      1.533   1_655 S
C168   C19     1.540   1_655 S
C169   H186    1.112   .     S
C169   H187    1.112   .     S
C170   H185    1.111   .     S
C170   H184    1.111   .     S
C170   H183    1.111   .     S
C170   C19     1.527   1_655 S
C171   H191    1.109   .     S
C171   H190    1.113   .     S
C171   H867    1.113   .     S
C171   O888    1.409   .     S
C172   H200    1.112   .     S
C172   H199    1.112   .     S
C172   C174    1.537   .     S
C173   H204    1.075   .     S
C173   C837    1.383   1_554 S
C173   C851    1.409   1_554 S
C174   H198    1.110   .     S
C174   H197    1.112   .     S
C174   C400    1.528   .     S
C175   H194    1.111   .     S
C175   H196    1.110   .     S
C175   C624    1.528   1_545 S
C175   H645    1.111   1_545 S
C176   C177    1.421   .     A
C176   C848    1.409   .     S
C176   C853    1.427   .     S
C177   C181    1.410   .     A
C178   C851    1.427   1_554 S
C178   C854    1.424   1_554 S
C179   C180    1.392   .     A
C179   C853    1.424   .     S
C179   C840    1.410   .     S
C180   C181    1.381   .     A
C180   H202    1.080   .     S
C181   H206    1.080   .     S
H192   C846    1.113   1_554 S
H193   C608    1.088   1_545 S
H195   C400    1.111   .     S
H201   C384    1.086   .     S
O208   Zn225   1.931   .     S
O208   Zn224   1.949   .     S
O208   Zn222   1.955   .     S
O208   Zn223   1.945   .     S
O209   Zn223   1.934   .     S
O210   Zn225   1.939   .     S
O211   Zn224   1.933   .     S
O212   Zn222   1.927   .     S
O213   C846    1.409   1_554 S
O214   Zn222   1.928   .     S
O215   Zn225   1.934   .     S
O216   Zn223   1.936   .     S
O217   Zn224   1.942   .     S
O218   Zn225   1.943   .     S
O219   Zn222   1.939   .     S
O220   Zn223   1.933   .     S
O221   Zn224   1.925   .     S
C226   O293    1.264   .     A
C226   O291    1.267   .     A
C226   C232    1.433   .     S
C227   C241    1.389   .     A
C227   H278    1.076   .     S
C227   C253    1.410   .     A
C228   C240    1.393   .     A
C228   H257    1.084   .     S
C228   C241    1.395   .     A
C229   O294    1.268   .     A
C229   C231    1.458   .     S
C229   O292    1.294   .     A
C230   C242    1.432   .     A
C230   C252    1.424   .     A
C230   C239    1.491   .     S
C231   C307    1.357   .     S
C231   H357    1.088   .     S
C232   C381    1.357   1_455 S
C232   C393    1.533   1_455 S
C233   C236    1.450   .     S
C233   C459    1.330   .     S
C233   H493    1.088   .     S
C234   C235    1.434   .     S
C235   O295    1.276   .     A
C235   O289    1.277   .     A
C236   O296    1.274   .     A
C236   O290    1.275   .     A
C237   C242    1.402   .     A
C237   H280    1.080   .     S
C237   C923    1.383   .     S
C238   O284    1.273   .     A
C238   O286    1.283   .     A
C238   C241    1.451   .     S
C239   O287    1.291   .     A
C239   O285    1.279   .     A
C240   O288    1.383   .     S
C240   C929    1.410   1_554 S
C242   C247    1.531   .     S
C243   H264    1.112   .     S
C243   H263    1.112   .     S
C243   C307    1.533   .     S
C243   C319    1.540   .     S
C244   H261    1.112   .     S
C244   H262    1.112   .     S
C244   C393    1.540   1_455 S
C244   C395    1.527   1_455 S
C245   H260    1.111   .     S
C245   H259    1.111   .     S
C245   H258    1.111   .     S
C245   C319    1.527   .     S
C246   H266    1.109   .     S
C246   H265    1.113   .     S
C246   H942    1.113   .     S
C246   O963    1.409   .     S
C247   H275    1.112   .     S
C247   H274    1.112   .     S
C247   C249    1.537   .     S
C248   H279    1.075   .     S
C248   C912    1.383   1_554 S
C248   C926    1.409   1_554 S
C249   H273    1.110   .     S
C249   H272    1.112   .     S
C249   C475    1.528   .     S
C250   H269    1.111   .     S
C250   H271    1.110   .     S
C251   C252    1.421   .     A
C251   C923    1.409   .     S
C251   C928    1.427   .     S
C252   C256    1.410   .     A
C253   C926    1.427   1_554 S
C253   C929    1.424   1_554 S
C254   C255    1.392   .     A
C254   C928    1.424   .     S
C254   C915    1.410   .     S
C255   C256    1.381   .     A
C255   H277    1.080   .     S
C256   H281    1.080   .     S
H267   C921    1.113   1_554 S
H270   C475    1.111   .     S
H276   C459    1.086   .     S
H282   C381    1.088   1_455 S
O283   Zn300   1.931   .     S
O283   Zn299   1.949   .     S
O283   Zn297   1.955   .     S
O283   Zn298   1.945   .     S
O284   Zn298   1.934   .     S
O285   Zn300   1.939   .     S
O286   Zn299   1.933   .     S
O287   Zn297   1.927   .     S
O288   C921    1.409   1_554 S
O289   Zn297   1.928   .     S
O290   Zn300   1.934   .     S
O291   Zn298   1.936   .     S
O292   Zn299   1.942   .     S
O293   Zn300   1.943   .     S
O294   Zn297   1.939   .     S
O295   Zn298   1.933   .     S
O296   Zn299   1.925   .     S
C301   O368    1.264   .     A
C301   O366    1.267   .     A
C301   C307    1.433   .     S
C302   C316    1.389   .     A
C302   H353    1.076   .     S
C302   C328    1.410   .     A
C303   C315    1.393   .     A
C303   H332    1.084   .     S
C303   C316    1.395   .     A
C304   O369    1.268   .     A
C304   C306    1.458   .     S
C304   O367    1.294   .     A
C305   C317    1.432   .     A
C305   C327    1.424   .     A
C305   C314    1.491   .     S
C306   C382    1.357   .     S
C306   H432    1.088   .     S
C308   C311    1.450   .     S
C308   C534    1.330   .     S
C308   H568    1.088   .     S
C309   C310    1.434   .     S
C310   O370    1.276   .     A
C310   O364    1.277   .     A
C311   O371    1.274   .     A
C311   O365    1.275   .     A
C312   C317    1.402   .     A
C312   H355    1.080   .     S
C312   C998    1.383   .     S
C313   O359    1.273   .     A
C313   O361    1.283   .     A
C313   C316    1.451   .     S
C314   O362    1.291   .     A
C314   O360    1.279   .     A
C315   O363    1.383   .     S
C315   C1004   1.410   1_554 S
C317   C322    1.531   .     S
C318   H339    1.112   .     S
C318   H338    1.112   .     S
C318   C382    1.533   .     S
C318   C394    1.540   .     S
C319   H336    1.112   .     S
C319   H337    1.112   .     S
C320   H335    1.111   .     S
C320   H334    1.111   .     S
C320   H333    1.111   .     S
C320   C394    1.527   .     S
C321   H341    1.109   .     S
C321   H340    1.113   .     S
C321   H1017   1.113   .     S
C321   O1038   1.409   .     S
C322   H350    1.112   .     S
C322   H349    1.112   .     S
C322   C324    1.537   .     S
C323   H354    1.075   .     S
C323   C987    1.383   1_554 S
C323   C1001   1.409   1_554 S
C324   H348    1.110   .     S
C324   H347    1.112   .     S
C324   C550    1.528   .     S
C325   H344    1.111   .     S
C325   H346    1.110   .     S
C326   C327    1.421   .     A
C326   C998    1.409   .     S
C326   C1003   1.427   .     S
C327   C331    1.410   .     A
C328   C1001   1.427   1_554 S
C328   C1004   1.424   1_554 S
C329   C330    1.392   .     A
C329   C1003   1.424   .     S
C329   C990    1.410   .     S
C330   C331    1.381   .     A
C330   H352    1.080   .     S
C331   H356    1.080   .     S
H342   C996    1.113   1_554 S
H345   C550    1.111   .     S
H351   C534    1.086   .     S
O358   Zn375   1.931   .     S
O358   Zn374   1.949   .     S
O358   Zn372   1.955   .     S
O358   Zn373   1.945   .     S
O359   Zn373   1.934   .     S
O360   Zn375   1.939   .     S
O361   Zn374   1.933   .     S
O362   Zn372   1.927   .     S
O363   C996    1.409   1_554 S
O364   Zn372   1.928   .     S
O365   Zn375   1.934   .     S
O366   Zn373   1.936   .     S
O367   Zn374   1.942   .     S
O368   Zn375   1.943   .     S
O369   Zn372   1.939   .     S
O370   Zn373   1.933   .     S
O371   Zn374   1.925   .     S
C376   O443    1.264   .     A
C376   O441    1.267   .     A
C376   C382    1.433   .     S
C377   C391    1.389   .     A
C377   H428    1.076   .     S
C377   C403    1.410   .     A
C378   C390    1.393   .     A
C378   H407    1.084   .     S
C378   C391    1.395   .     A
C379   O444    1.268   .     A
C379   C381    1.458   .     S
C379   O442    1.294   .     A
C380   C392    1.432   .     A
C380   C402    1.424   .     A
C380   C389    1.491   .     S
C381   C232    1.357   1_655 S
C381   H282    1.088   1_655 S
C383   C386    1.450   .     S
C383   C609    1.330   .     S
C383   H643    1.088   .     S
C384   C385    1.434   .     S
C385   O445    1.276   .     A
C385   O439    1.277   .     A
C386   O446    1.274   .     A
C386   O440    1.275   .     A
C387   C392    1.402   .     A
C387   H430    1.080   .     S
C387   C1073   1.383   .     S
C388   O434    1.273   .     A
C388   O436    1.283   .     A
C388   C391    1.451   .     S
C389   O437    1.291   .     A
C389   O435    1.279   .     A
C390   O438    1.383   .     S
C390   C1079   1.410   1_554 S
C392   C397    1.531   .     S
C393   H414    1.112   .     S
C393   H413    1.112   .     S
C393   C232    1.533   1_655 S
C393   C244    1.540   1_655 S
C394   H411    1.112   .     S
C394   H412    1.112   .     S
C395   H410    1.111   .     S
C395   H409    1.111   .     S
C395   H408    1.111   .     S
C395   C244    1.527   1_655 S
C396   H416    1.109   .     S
C396   H415    1.113   .     S
C396   H1092   1.113   .     S
C396   O1113   1.409   .     S
C397   H425    1.112   .     S
C397   H424    1.112   .     S
C397   C399    1.537   .     S
C398   H429    1.075   .     S
C398   C1062   1.383   1_554 S
C398   C1076   1.409   1_554 S
C399   H423    1.110   .     S
C399   H422    1.112   .     S
C399   C625    1.528   .     S
C400   H419    1.111   .     S
C400   H421    1.110   .     S
C401   C402    1.421   .     A
C401   C1073   1.409   .     S
C401   C1078   1.427   .     S
C402   C406    1.410   .     A
C403   C1076   1.427   1_554 S
C403   C1079   1.424   1_554 S
C404   C405    1.392   .     A
C404   C1078   1.424   .     S
C404   C1065   1.410   .     S
C405   C406    1.381   .     A
C405   H427    1.080   .     S
C406   H431    1.080   .     S
H417   C1071   1.113   1_554 S
H420   C625    1.111   .     S
H426   C609    1.086   .     S
O433   Zn450   1.931   .     S
O433   Zn449   1.949   .     S
O433   Zn447   1.955   .     S
O433   Zn448   1.945   .     S
O434   Zn448   1.934   .     S
O435   Zn450   1.939   .     S
O436   Zn449   1.933   .     S
O437   Zn447   1.927   .     S
O438   C1071   1.409   1_554 S
O439   Zn447   1.928   .     S
O440   Zn450   1.934   .     S
O441   Zn448   1.936   .     S
O442   Zn449   1.942   .     S
O443   Zn450   1.943   .     S
O444   Zn447   1.939   .     S
O445   Zn448   1.933   .     S
O446   Zn449   1.925   .     S
C451   O518    1.264   .     A
C451   O516    1.267   .     A
C451   C457    1.433   .     S
C452   C466    1.389   .     A
C452   H503    1.076   .     S
C452   C478    1.410   .     A
C453   C465    1.393   .     A
C453   H482    1.084   .     S
C453   C466    1.395   .     A
C454   O519    1.268   .     A
C454   C456    1.458   .     S
C454   O517    1.294   .     A
C455   C467    1.432   .     A
C455   C477    1.424   .     A
C455   C464    1.491   .     S
C456   C532    1.357   .     S
C456   H582    1.088   .     S
C457   C606    1.357   1_455 S
C457   C618    1.533   1_455 S
C458   C461    1.450   .     S
C458   C9      1.330   1_565 S
C458   H43     1.088   1_565 S
C459   C460    1.434   .     S
C460   O520    1.276   .     A
C460   O514    1.277   .     A
C461   O521    1.274   .     A
C461   O515    1.275   .     A
C462   C467    1.402   .     A
C462   H505    1.080   .     S
C462   C1148   1.383   .     S
C463   O509    1.273   .     A
C463   O511    1.283   .     A
C463   C466    1.451   .     S
C464   O512    1.291   .     A
C464   O510    1.279   .     A
C465   O513    1.383   .     S
C465   C1154   1.410   1_554 S
C467   C472    1.531   .     S
C468   H489    1.112   .     S
C468   H488    1.112   .     S
C468   C532    1.533   .     S
C468   C544    1.540   .     S
C469   H486    1.112   .     S
C469   H487    1.112   .     S
C469   C618    1.540   1_455 S
C469   C620    1.527   1_455 S
C470   H485    1.111   .     S
C470   H484    1.111   .     S
C470   H483    1.111   .     S
C470   C544    1.527   .     S
C471   H491    1.109   .     S
C471   H490    1.113   .     S
C471   H1167   1.113   .     S
C471   O1188   1.409   .     S
C472   H500    1.112   .     S
C472   H499    1.112   .     S
C472   C474    1.537   .     S
C473   H504    1.075   .     S
C473   C1137   1.383   1_554 S
C473   C1151   1.409   1_554 S
C474   H498    1.110   .     S
C474   H497    1.112   .     S
C474   C25     1.528   1_565 S
C475   H494    1.111   .     S
C475   H496    1.110   .     S
C476   C477    1.421   .     A
C476   C1148   1.409   .     S
C476   C1153   1.427   .     S
C477   C481    1.410   .     A
C478   C1151   1.427   1_554 S
C478   C1154   1.424   1_554 S
C479   C480    1.392   .     A
C479   C1153   1.424   .     S
C479   C1140   1.410   .     S
C480   C481    1.381   .     A
C480   H502    1.080   .     S
C481   H506    1.080   .     S
H492   C1146   1.113   1_554 S
H495   C25     1.111   1_565 S
H501   C9      1.086   1_565 S
H507   C606    1.088   1_455 S
O508   Zn525   1.931   .     S
O508   Zn524   1.949   .     S
O508   Zn522   1.955   .     S
O508   Zn523   1.945   .     S
O509   Zn523   1.934   .     S
O510   Zn525   1.939   .     S
O511   Zn524   1.933   .     S
O512   Zn522   1.927   .     S
O513   C1146   1.409   1_554 S
O514   Zn522   1.928   .     S
O515   Zn525   1.934   .     S
O516   Zn523   1.936   .     S
O517   Zn524   1.942   .     S
O518   Zn525   1.943   .     S
O519   Zn522   1.939   .     S
O520   Zn523   1.933   .     S
O521   Zn524   1.925   .     S
C526   O593    1.264   .     A
C526   O591    1.267   .     A
C526   C532    1.433   .     S
C527   C541    1.389   .     A
C527   H578    1.076   .     S
C527   C553    1.410   .     A
C528   C540    1.393   .     A
C528   H557    1.084   .     S
C528   C541    1.395   .     A
C529   O594    1.268   .     A
C529   C531    1.458   .     S
C529   O592    1.294   .     A
C530   C542    1.432   .     A
C530   C552    1.424   .     A
C530   C539    1.491   .     S
C531   C607    1.357   .     S
C531   H657    1.088   .     S
C533   C536    1.450   .     S
C533   C84     1.330   1_565 S
C533   H118    1.088   1_565 S
C534   C535    1.434   .     S
C535   O595    1.276   .     A
C535   O589    1.277   .     A
C536   O596    1.274   .     A
C536   O590    1.275   .     A
C537   C542    1.402   .     A
C537   H580    1.080   .     S
C537   C1223   1.383   .     S
C538   O584    1.273   .     A
C538   O586    1.283   .     A
C538   C541    1.451   .     S
C539   O587    1.291   .     A
C539   O585    1.279   .     A
C540   O588    1.383   .     S
C540   C1229   1.410   1_554 S
C542   C547    1.531   .     S
C543   H564    1.112   .     S
C543   H563    1.112   .     S
C543   C607    1.533   .     S
C543   C619    1.540   .     S
C544   H561    1.112   .     S
C544   H562    1.112   .     S
C545   H560    1.111   .     S
C545   H559    1.111   .     S
C545   H558    1.111   .     S
C545   C619    1.527   .     S
C546   H566    1.109   .     S
C546   H565    1.113   .     S
C546   H1242   1.113   .     S
C546   O1263   1.409   .     S
C547   H575    1.112   .     S
C547   H574    1.112   .     S
C547   C549    1.537   .     S
C548   H579    1.075   .     S
C548   C1212   1.383   1_554 S
C548   C1226   1.409   1_554 S
C549   H573    1.110   .     S
C549   H572    1.112   .     S
C549   C100    1.528   1_565 S
C550   H569    1.111   .     S
C550   H571    1.110   .     S
C551   C552    1.421   .     A
C551   C1223   1.409   .     S
C551   C1228   1.427   .     S
C552   C556    1.410   .     A
C553   C1226   1.427   1_554 S
C553   C1229   1.424   1_554 S
C554   C555    1.392   .     A
C554   C1228   1.424   .     S
C554   C1215   1.410   .     S
C555   C556    1.381   .     A
C555   H577    1.080   .     S
C556   H581    1.080   .     S
H567   C1221   1.113   1_554 S
H570   C100    1.111   1_565 S
H576   C84     1.086   1_565 S
O583   Zn600   1.931   .     S
O583   Zn599   1.949   .     S
O583   Zn597   1.955   .     S
O583   Zn598   1.945   .     S
O584   Zn598   1.934   .     S
O585   Zn600   1.939   .     S
O586   Zn599   1.933   .     S
O587   Zn597   1.927   .     S
O588   C1221   1.409   1_554 S
O589   Zn597   1.928   .     S
O590   Zn600   1.934   .     S
O591   Zn598   1.936   .     S
O592   Zn599   1.942   .     S
O593   Zn600   1.943   .     S
O594   Zn597   1.939   .     S
O595   Zn598   1.933   .     S
O596   Zn599   1.925   .     S
C601   O668    1.264   .     A
C601   O666    1.267   .     A
C601   C607    1.433   .     S
C602   C616    1.389   .     A
C602   H653    1.076   .     S
C602   C628    1.410   .     A
C603   C615    1.393   .     A
C603   H632    1.084   .     S
C603   C616    1.395   .     A
C604   O669    1.268   .     A
C604   C606    1.458   .     S
C604   O667    1.294   .     A
C605   C617    1.432   .     A
C605   C627    1.424   .     A
C605   C614    1.491   .     S
C606   C457    1.357   1_655 S
C606   H507    1.088   1_655 S
C608   C611    1.450   .     S
C608   C159    1.330   1_565 S
C608   H193    1.088   1_565 S
C609   C610    1.434   .     S
C610   O670    1.276   .     A
C610   O664    1.277   .     A
C611   O671    1.274   .     A
C611   O665    1.275   .     A
C612   C617    1.402   .     A
C612   H655    1.080   .     S
C612   C1298   1.383   .     S
C613   O659    1.273   .     A
C613   O661    1.283   .     A
C613   C616    1.451   .     S
C614   O662    1.291   .     A
C614   O660    1.279   .     A
C615   O663    1.383   .     S
C615   C1304   1.410   1_554 S
C617   C622    1.531   .     S
C618   H639    1.112   .     S
C618   H638    1.112   .     S
C618   C457    1.533   1_655 S
C618   C469    1.540   1_655 S
C619   H636    1.112   .     S
C619   H637    1.112   .     S
C620   H635    1.111   .     S
C620   H634    1.111   .     S
C620   H633    1.111   .     S
C620   C469    1.527   1_655 S
C621   H641    1.109   .     S
C621   H640    1.113   .     S
C621   H1317   1.113   .     S
C621   O1338   1.409   .     S
C622   H650    1.112   .     S
C622   H649    1.112   .     S
C622   C624    1.537   .     S
C623   H654    1.075   .     S
C623   C1287   1.383   1_554 S
C623   C1301   1.409   1_554 S
C624   H648    1.110   .     S
C624   H647    1.112   .     S
C624   C175    1.528   1_565 S
C625   H644    1.111   .     S
C625   H646    1.110   .     S
C626   C627    1.421   .     A
C626   C1298   1.409   .     S
C626   C1303   1.427   .     S
C627   C631    1.410   .     A
C628   C1301   1.427   1_554 S
C628   C1304   1.424   1_554 S
C629   C630    1.392   .     A
C629   C1303   1.424   .     S
C629   C1290   1.410   .     S
C630   C631    1.381   .     A
C630   H652    1.080   .     S
C631   H656    1.080   .     S
H642   C1296   1.113   1_554 S
H645   C175    1.111   1_565 S
H651   C159    1.086   1_565 S
O658   Zn675   1.931   .     S
O658   Zn674   1.949   .     S
O658   Zn672   1.955   .     S
O658   Zn673   1.945   .     S
O659   Zn673   1.934   .     S
O660   Zn675   1.939   .     S
O661   Zn674   1.933   .     S
O662   Zn672   1.927   .     S
O663   C1296   1.409   1_554 S
O664   Zn672   1.928   .     S
O665   Zn675   1.934   .     S
O666   Zn673   1.936   .     S
O667   Zn674   1.942   .     S
O668   Zn675   1.943   .     S
O669   Zn672   1.939   .     S
O670   Zn673   1.933   .     S
O671   Zn674   1.925   .     S
C676   O743    1.264   .     A
C676   O741    1.267   .     A
C676   C682    1.433   .     S
C677   C691    1.389   .     A
C677   H728    1.076   .     S
C677   C703    1.410   .     A
C678   C690    1.393   .     A
C678   H707    1.084   .     S
C678   C691    1.395   .     A
C679   O744    1.268   .     A
C679   C681    1.458   .     S
C679   O742    1.294   .     A
C680   C692    1.432   .     A
C680   C702    1.424   .     A
C680   C689    1.491   .     S
C681   C757    1.357   .     S
C681   H807    1.088   .     S
C682   C831    1.357   1_455 S
C682   C843    1.533   1_455 S
C683   C686    1.450   .     S
C683   C909    1.330   .     S
C683   H943    1.088   .     S
C684   C685    1.434   .     S
C684   C1133   1.330   1_545 S
C684   H1176   1.086   1_545 S
C685   O745    1.276   .     A
C685   O739    1.277   .     A
C686   O746    1.274   .     A
C686   O740    1.275   .     A
C687   C692    1.402   .     A
C687   H730    1.080   .     S
C687   C23     1.383   1_556 S
C688   O734    1.273   .     A
C688   O736    1.283   .     A
C688   C691    1.451   .     S
C689   O737    1.291   .     A
C689   O735    1.279   .     A
C690   O738    1.383   .     S
C692   C697    1.531   .     S
C693   H714    1.112   .     S
C693   H713    1.112   .     S
C693   C757    1.533   .     S
C693   C769    1.540   .     S
C694   H711    1.112   .     S
C694   H712    1.112   .     S
C694   C843    1.540   1_455 S
C694   C845    1.527   1_455 S
C695   H710    1.111   .     S
C695   H709    1.111   .     S
C695   H708    1.111   .     S
C695   C769    1.527   .     S
C696   H716    1.109   .     S
C696   H715    1.113   .     S
C696   H42     1.113   1_556 S
C696   O63     1.409   1_556 S
C697   H725    1.112   .     S
C697   H724    1.112   .     S
C697   C699    1.537   .     S
C698   H729    1.075   .     S
C699   H723    1.110   .     S
C699   H722    1.112   .     S
C699   C925    1.528   .     S
C700   H719    1.111   .     S
C700   H721    1.110   .     S
C700   C1149   1.528   1_545 S
C700   H1170   1.111   1_545 S
C701   C702    1.421   .     A
C701   C23     1.409   1_556 S
C701   C28     1.427   1_556 S
C702   C706    1.410   .     A
C704   C705    1.392   .     A
C704   C28     1.424   1_556 S
C704   C15     1.410   1_556 S
C705   C706    1.381   .     A
C705   H727    1.080   .     S
C706   H731    1.080   .     S
H718   C1133   1.088   1_545 S
H720   C925    1.111   .     S
H726   C909    1.086   .     S
H732   C831    1.088   1_455 S
O733   Zn750   1.931   .     S
O733   Zn749   1.949   .     S
O733   Zn747   1.955   .     S
O733   Zn748   1.945   .     S
O734   Zn748   1.934   .     S
O735   Zn750   1.939   .     S
O736   Zn749   1.933   .     S
O737   Zn747   1.927   .     S
O739   Zn747   1.928   .     S
O740   Zn750   1.934   .     S
O741   Zn748   1.936   .     S
O742   Zn749   1.942   .     S
O743   Zn750   1.943   .     S
O744   Zn747   1.939   .     S
O745   Zn748   1.933   .     S
O746   Zn749   1.925   .     S
C751   O818    1.264   .     A
C751   O816    1.267   .     A
C751   C757    1.433   .     S
C752   C766    1.389   .     A
C752   H803    1.076   .     S
C752   C778    1.410   .     A
C753   C765    1.393   .     A
C753   H782    1.084   .     S
C753   C766    1.395   .     A
C754   O819    1.268   .     A
C754   C756    1.458   .     S
C754   O817    1.294   .     A
C755   C767    1.432   .     A
C755   C777    1.424   .     A
C755   C764    1.491   .     S
C756   C832    1.357   .     S
C756   H882    1.088   .     S
C758   C761    1.450   .     S
C758   C984    1.330   .     S
C758   H1018   1.088   .     S
C759   C760    1.434   .     S
C759   C1208   1.330   1_545 S
C759   H1251   1.086   1_545 S
C760   O820    1.276   .     A
C760   O814    1.277   .     A
C761   O821    1.274   .     A
C761   O815    1.275   .     A
C762   C767    1.402   .     A
C762   H805    1.080   .     S
C762   C98     1.383   1_556 S
C763   O809    1.273   .     A
C763   O811    1.283   .     A
C763   C766    1.451   .     S
C764   O812    1.291   .     A
C764   O810    1.279   .     A
C765   O813    1.383   .     S
C767   C772    1.531   .     S
C768   H789    1.112   .     S
C768   H788    1.112   .     S
C768   C832    1.533   .     S
C768   C844    1.540   .     S
C769   H786    1.112   .     S
C769   H787    1.112   .     S
C770   H785    1.111   .     S
C770   H784    1.111   .     S
C770   H783    1.111   .     S
C770   C844    1.527   .     S
C771   H791    1.109   .     S
C771   H790    1.113   .     S
C771   H117    1.113   1_556 S
C771   O138    1.409   1_556 S
C772   H800    1.112   .     S
C772   H799    1.112   .     S
C772   C774    1.537   .     S
C773   H804    1.075   .     S
C774   H798    1.110   .     S
C774   H797    1.112   .     S
C774   C1000   1.528   .     S
C775   H794    1.111   .     S
C775   H796    1.110   .     S
C775   C1224   1.528   1_545 S
C775   H1245   1.111   1_545 S
C776   C777    1.421   .     A
C776   C98     1.409   1_556 S
C776   C103    1.427   1_556 S
C777   C781    1.410   .     A
C779   C780    1.392   .     A
C779   C103    1.424   1_556 S
C779   C90     1.410   1_556 S
C780   C781    1.381   .     A
C780   H802    1.080   .     S
C781   H806    1.080   .     S
H793   C1208   1.088   1_545 S
H795   C1000   1.111   .     S
H801   C984    1.086   .     S
O808   Zn825   1.931   .     S
O808   Zn824   1.949   .     S
O808   Zn822   1.955   .     S
O808   Zn823   1.945   .     S
O809   Zn823   1.934   .     S
O810   Zn825   1.939   .     S
O811   Zn824   1.933   .     S
O812   Zn822   1.927   .     S
O814   Zn822   1.928   .     S
O815   Zn825   1.934   .     S
O816   Zn823   1.936   .     S
O817   Zn824   1.942   .     S
O818   Zn825   1.943   .     S
O819   Zn822   1.939   .     S
O820   Zn823   1.933   .     S
O821   Zn824   1.925   .     S
C826   O893    1.264   .     A
C826   O891    1.267   .     A
C826   C832    1.433   .     S
C827   C841    1.389   .     A
C827   H878    1.076   .     S
C827   C853    1.410   .     A
C828   C840    1.393   .     A
C828   H857    1.084   .     S
C828   C841    1.395   .     A
C829   O894    1.268   .     A
C829   C831    1.458   .     S
C829   O892    1.294   .     A
C830   C842    1.432   .     A
C830   C852    1.424   .     A
C830   C839    1.491   .     S
C831   C682    1.357   1_655 S
C831   H732    1.088   1_655 S
C833   C836    1.450   .     S
C833   C1059   1.330   .     S
C833   H1093   1.088   .     S
C834   C835    1.434   .     S
C834   C1283   1.330   1_545 S
C834   H1326   1.086   1_545 S
C835   O895    1.276   .     A
C835   O889    1.277   .     A
C836   O896    1.274   .     A
C836   O890    1.275   .     A
C837   C842    1.402   .     A
C837   H880    1.080   .     S
C837   C173    1.383   1_556 S
C838   O884    1.273   .     A
C838   O886    1.283   .     A
C838   C841    1.451   .     S
C839   O887    1.291   .     A
C839   O885    1.279   .     A
C840   O888    1.383   .     S
C842   C847    1.531   .     S
C843   H864    1.112   .     S
C843   H863    1.112   .     S
C843   C682    1.533   1_655 S
C843   C694    1.540   1_655 S
C844   H861    1.112   .     S
C844   H862    1.112   .     S
C845   H860    1.111   .     S
C845   H859    1.111   .     S
C845   H858    1.111   .     S
C845   C694    1.527   1_655 S
C846   H866    1.109   .     S
C846   H865    1.113   .     S
C846   H192    1.113   1_556 S
C846   O213    1.409   1_556 S
C847   H875    1.112   .     S
C847   H874    1.112   .     S
C847   C849    1.537   .     S
C848   H879    1.075   .     S
C849   H873    1.110   .     S
C849   H872    1.112   .     S
C849   C1075   1.528   .     S
C850   H869    1.111   .     S
C850   H871    1.110   .     S
C850   C1299   1.528   1_545 S
C850   H1320   1.111   1_545 S
C851   C852    1.421   .     A
C851   C173    1.409   1_556 S
C851   C178    1.427   1_556 S
C852   C856    1.410   .     A
C854   C855    1.392   .     A
C854   C178    1.424   1_556 S
C854   C165    1.410   1_556 S
C855   C856    1.381   .     A
C855   H877    1.080   .     S
C856   H881    1.080   .     S
H868   C1283   1.088   1_545 S
H870   C1075   1.111   .     S
H876   C1059   1.086   .     S
O883   Zn900   1.931   .     S
O883   Zn899   1.949   .     S
O883   Zn897   1.955   .     S
O883   Zn898   1.945   .     S
O884   Zn898   1.934   .     S
O885   Zn900   1.939   .     S
O886   Zn899   1.933   .     S
O887   Zn897   1.927   .     S
O889   Zn897   1.928   .     S
O890   Zn900   1.934   .     S
O891   Zn898   1.936   .     S
O892   Zn899   1.942   .     S
O893   Zn900   1.943   .     S
O894   Zn897   1.939   .     S
O895   Zn898   1.933   .     S
O896   Zn899   1.925   .     S
C901   O968    1.264   .     A
C901   O966    1.267   .     A
C901   C907    1.433   .     S
C902   C916    1.389   .     A
C902   H953    1.076   .     S
C902   C928    1.410   .     A
C903   C915    1.393   .     A
C903   H932    1.084   .     S
C903   C916    1.395   .     A
C904   O969    1.268   .     A
C904   C906    1.458   .     S
C904   O967    1.294   .     A
C905   C917    1.432   .     A
C905   C927    1.424   .     A
C905   C914    1.491   .     S
C906   C982    1.357   .     S
C906   H1032   1.088   .     S
C907   C1056   1.357   1_455 S
C907   C1068   1.533   1_455 S
C908   C911    1.450   .     S
C908   C1134   1.330   .     S
C908   H1168   1.088   .     S
C909   C910    1.434   .     S
C910   O970    1.276   .     A
C910   O964    1.277   .     A
C911   O971    1.274   .     A
C911   O965    1.275   .     A
C912   C917    1.402   .     A
C912   H955    1.080   .     S
C912   C248    1.383   1_556 S
C913   O959    1.273   .     A
C913   O961    1.283   .     A
C913   C916    1.451   .     S
C914   O962    1.291   .     A
C914   O960    1.279   .     A
C915   O963    1.383   .     S
C917   C922    1.531   .     S
C918   H939    1.112   .     S
C918   H938    1.112   .     S
C918   C982    1.533   .     S
C918   C994    1.540   .     S
C919   H936    1.112   .     S
C919   H937    1.112   .     S
C919   C1068   1.540   1_455 S
C919   C1070   1.527   1_455 S
C920   H935    1.111   .     S
C920   H934    1.111   .     S
C920   H933    1.111   .     S
C920   C994    1.527   .     S
C921   H941    1.109   .     S
C921   H940    1.113   .     S
C921   H267    1.113   1_556 S
C921   O288    1.409   1_556 S
C922   H950    1.112   .     S
C922   H949    1.112   .     S
C922   C924    1.537   .     S
C923   H954    1.075   .     S
C924   H948    1.110   .     S
C924   H947    1.112   .     S
C924   C1150   1.528   .     S
C925   H944    1.111   .     S
C925   H946    1.110   .     S
C926   C927    1.421   .     A
C926   C248    1.409   1_556 S
C926   C253    1.427   1_556 S
C927   C931    1.410   .     A
C929   C930    1.392   .     A
C929   C253    1.424   1_556 S
C929   C240    1.410   1_556 S
C930   C931    1.381   .     A
C930   H952    1.080   .     S
C931   H956    1.080   .     S
H945   C1150   1.111   .     S
H951   C1134   1.086   .     S
H957   C1056   1.088   1_455 S
O958   Zn975   1.931   .     S
O958   Zn974   1.949   .     S
O958   Zn972   1.955   .     S
O958   Zn973   1.945   .     S
O959   Zn973   1.934   .     S
O960   Zn975   1.939   .     S
O961   Zn974   1.933   .     S
O962   Zn972   1.927   .     S
O964   Zn972   1.928   .     S
O965   Zn975   1.934   .     S
O966   Zn973   1.936   .     S
O967   Zn974   1.942   .     S
O968   Zn975   1.943   .     S
O969   Zn972   1.939   .     S
O970   Zn973   1.933   .     S
O971   Zn974   1.925   .     S
C976   O1043   1.264   .     A
C976   O1041   1.267   .     A
C976   C982    1.433   .     S
C977   C991    1.389   .     A
C977   H1028   1.076   .     S
C977   C1003   1.410   .     A
C978   C990    1.393   .     A
C978   H1007   1.084   .     S
C978   C991    1.395   .     A
C979   O1044   1.268   .     A
C979   C981    1.458   .     S
C979   O1042   1.294   .     A
C980   C992    1.432   .     A
C980   C1002   1.424   .     A
C980   C989    1.491   .     S
C981   C1057   1.357   .     S
C981   H1107   1.088   .     S
C983   C986    1.450   .     S
C983   C1209   1.330   .     S
C983   H1243   1.088   .     S
C984   C985    1.434   .     S
C985   O1045   1.276   .     A
C985   O1039   1.277   .     A
C986   O1046   1.274   .     A
C986   O1040   1.275   .     A
C987   C992    1.402   .     A
C987   H1030   1.080   .     S
C987   C323    1.383   1_556 S
C988   O1034   1.273   .     A
C988   O1036   1.283   .     A
C988   C991    1.451   .     S
C989   O1037   1.291   .     A
C989   O1035   1.279   .     A
C990   O1038   1.383   .     S
C992   C997    1.531   .     S
C993   H1014   1.112   .     S
C993   H1013   1.112   .     S
C993   C1057   1.533   .     S
C993   C1069   1.540   .     S
C994   H1011   1.112   .     S
C994   H1012   1.112   .     S
C995   H1010   1.111   .     S
C995   H1009   1.111   .     S
C995   H1008   1.111   .     S
C995   C1069   1.527   .     S
C996   H1016   1.109   .     S
C996   H1015   1.113   .     S
C996   H342    1.113   1_556 S
C996   O363    1.409   1_556 S
C997   H1025   1.112   .     S
C997   H1024   1.112   .     S
C997   C999    1.537   .     S
C998   H1029   1.075   .     S
C999   H1023   1.110   .     S
C999   H1022   1.112   .     S
C999   C1225   1.528   .     S
C1000  H1019   1.111   .     S
C1000  H1021   1.110   .     S
C1001  C1002   1.421   .     A
C1001  C323    1.409   1_556 S
C1001  C328    1.427   1_556 S
C1002  C1006   1.410   .     A
C1004  C1005   1.392   .     A
C1004  C328    1.424   1_556 S
C1004  C315    1.410   1_556 S
C1005  C1006   1.381   .     A
C1005  H1027   1.080   .     S
C1006  H1031   1.080   .     S
H1020  C1225   1.111   .     S
H1026  C1209   1.086   .     S
O1033  Zn1050  1.931   .     S
O1033  Zn1049  1.949   .     S
O1033  Zn1047  1.955   .     S
O1033  Zn1048  1.945   .     S
O1034  Zn1048  1.934   .     S
O1035  Zn1050  1.939   .     S
O1036  Zn1049  1.933   .     S
O1037  Zn1047  1.927   .     S
O1039  Zn1047  1.928   .     S
O1040  Zn1050  1.934   .     S
O1041  Zn1048  1.936   .     S
O1042  Zn1049  1.942   .     S
O1043  Zn1050  1.943   .     S
O1044  Zn1047  1.939   .     S
O1045  Zn1048  1.933   .     S
O1046  Zn1049  1.925   .     S
C1051  O1118   1.264   .     A
C1051  O1116   1.267   .     A
C1051  C1057   1.433   .     S
C1052  C1066   1.389   .     A
C1052  H1103   1.076   .     S
C1052  C1078   1.410   .     A
C1053  C1065   1.393   .     A
C1053  H1082   1.084   .     S
C1053  C1066   1.395   .     A
C1054  O1119   1.268   .     A
C1054  C1056   1.458   .     S
C1054  O1117   1.294   .     A
C1055  C1067   1.432   .     A
C1055  C1077   1.424   .     A
C1055  C1064   1.491   .     S
C1056  C907    1.357   1_655 S
C1056  H957    1.088   1_655 S
C1058  C1061   1.450   .     S
C1058  C1284   1.330   .     S
C1058  H1318   1.088   .     S
C1059  C1060   1.434   .     S
C1060  O1120   1.276   .     A
C1060  O1114   1.277   .     A
C1061  O1121   1.274   .     A
C1061  O1115   1.275   .     A
C1062  C1067   1.402   .     A
C1062  H1105   1.080   .     S
C1062  C398    1.383   1_556 S
C1063  O1109   1.273   .     A
C1063  O1111   1.283   .     A
C1063  C1066   1.451   .     S
C1064  O1112   1.291   .     A
C1064  O1110   1.279   .     A
C1065  O1113   1.383   .     S
C1067  C1072   1.531   .     S
C1068  H1089   1.112   .     S
C1068  H1088   1.112   .     S
C1068  C907    1.533   1_655 S
C1068  C919    1.540   1_655 S
C1069  H1086   1.112   .     S
C1069  H1087   1.112   .     S
C1070  H1085   1.111   .     S
C1070  H1084   1.111   .     S
C1070  H1083   1.111   .     S
C1070  C919    1.527   1_655 S
C1071  H1091   1.109   .     S
C1071  H1090   1.113   .     S
C1071  H417    1.113   1_556 S
C1071  O438    1.409   1_556 S
C1072  H1100   1.112   .     S
C1072  H1099   1.112   .     S
C1072  C1074   1.537   .     S
C1073  H1104   1.075   .     S
C1074  H1098   1.110   .     S
C1074  H1097   1.112   .     S
C1074  C1300   1.528   .     S
C1075  H1094   1.111   .     S
C1075  H1096   1.110   .     S
C1076  C1077   1.421   .     A
C1076  C398    1.409   1_556 S
C1076  C403    1.427   1_556 S
C1077  C1081   1.410   .     A
C1079  C1080   1.392   .     A
C1079  C403    1.424   1_556 S
C1079  C390    1.410   1_556 S
C1080  C1081   1.381   .     A
C1080  H1102   1.080   .     S
C1081  H1106   1.080   .     S
H1095  C1300   1.111   .     S
H1101  C1284   1.086   .     S
O1108  Zn1125  1.931   .     S
O1108  Zn1124  1.949   .     S
O1108  Zn1122  1.955   .     S
O1108  Zn1123  1.945   .     S
O1109  Zn1123  1.934   .     S
O1110  Zn1125  1.939   .     S
O1111  Zn1124  1.933   .     S
O1112  Zn1122  1.927   .     S
O1114  Zn1122  1.928   .     S
O1115  Zn1125  1.934   .     S
O1116  Zn1123  1.936   .     S
O1117  Zn1124  1.942   .     S
O1118  Zn1125  1.943   .     S
O1119  Zn1122  1.939   .     S
O1120  Zn1123  1.933   .     S
O1121  Zn1124  1.925   .     S
C1126  O1193   1.264   .     A
C1126  O1191   1.267   .     A
C1126  C1132   1.433   .     S
C1127  C1141   1.389   .     A
C1127  H1178   1.076   .     S
C1127  C1153   1.410   .     A
C1128  C1140   1.393   .     A
C1128  H1157   1.084   .     S
C1128  C1141   1.395   .     A
C1129  O1194   1.268   .     A
C1129  C1131   1.458   .     S
C1129  O1192   1.294   .     A
C1130  C1142   1.432   .     A
C1130  C1152   1.424   .     A
C1130  C1139   1.491   .     S
C1131  C1207   1.357   .     S
C1131  H1257   1.088   .     S
C1132  C1281   1.357   1_455 S
C1132  C1293   1.533   1_455 S
C1133  C1136   1.450   .     S
C1133  C684    1.330   1_565 S
C1133  H718    1.088   1_565 S
C1134  C1135   1.434   .     S
C1135  O1195   1.276   .     A
C1135  O1189   1.277   .     A
C1136  O1196   1.274   .     A
C1136  O1190   1.275   .     A
C1137  C1142   1.402   .     A
C1137  H1180   1.080   .     S
C1137  C473    1.383   1_556 S
C1138  O1184   1.273   .     A
C1138  O1186   1.283   .     A
C1138  C1141   1.451   .     S
C1139  O1187   1.291   .     A
C1139  O1185   1.279   .     A
C1140  O1188   1.383   .     S
C1142  C1147   1.531   .     S
C1143  H1164   1.112   .     S
C1143  H1163   1.112   .     S
C1143  C1207   1.533   .     S
C1143  C1219   1.540   .     S
C1144  H1161   1.112   .     S
C1144  H1162   1.112   .     S
C1144  C1293   1.540   1_455 S
C1144  C1295   1.527   1_455 S
C1145  H1160   1.111   .     S
C1145  H1159   1.111   .     S
C1145  H1158   1.111   .     S
C1145  C1219   1.527   .     S
C1146  H1166   1.109   .     S
C1146  H1165   1.113   .     S
C1146  H492    1.113   1_556 S
C1146  O513    1.409   1_556 S
C1147  H1175   1.112   .     S
C1147  H1174   1.112   .     S
C1147  C1149   1.537   .     S
C1148  H1179   1.075   .     S
C1149  H1173   1.110   .     S
C1149  H1172   1.112   .     S
C1149  C700    1.528   1_565 S
C1150  H1169   1.111   .     S
C1150  H1171   1.110   .     S
C1151  C1152   1.421   .     A
C1151  C473    1.409   1_556 S
C1151  C478    1.427   1_556 S
C1152  C1156   1.410   .     A
C1154  C1155   1.392   .     A
C1154  C478    1.424   1_556 S
C1154  C465    1.410   1_556 S
C1155  C1156   1.381   .     A
C1155  H1177   1.080   .     S
C1156  H1181   1.080   .     S
H1170  C700    1.111   1_565 S
H1176  C684    1.086   1_565 S
H1182  C1281   1.088   1_455 S
O1183  Zn1200  1.931   .     S
O1183  Zn1199  1.949   .     S
O1183  Zn1197  1.955   .     S
O1183  Zn1198  1.945   .     S
O1184  Zn1198  1.934   .     S
O1185  Zn1200  1.939   .     S
O1186  Zn1199  1.933   .     S
O1187  Zn1197  1.927   .     S
O1189  Zn1197  1.928   .     S
O1190  Zn1200  1.934   .     S
O1191  Zn1198  1.936   .     S
O1192  Zn1199  1.942   .     S
O1193  Zn1200  1.943   .     S
O1194  Zn1197  1.939   .     S
O1195  Zn1198  1.933   .     S
O1196  Zn1199  1.925   .     S
C1201  O1268   1.264   .     A
C1201  O1266   1.267   .     A
C1201  C1207   1.433   .     S
C1202  C1216   1.389   .     A
C1202  H1253   1.076   .     S
C1202  C1228   1.410   .     A
C1203  C1215   1.393   .     A
C1203  H1232   1.084   .     S
C1203  C1216   1.395   .     A
C1204  O1269   1.268   .     A
C1204  C1206   1.458   .     S
C1204  O1267   1.294   .     A
C1205  C1217   1.432   .     A
C1205  C1227   1.424   .     A
C1205  C1214   1.491   .     S
C1206  C1282   1.357   .     S
C1206  H1332   1.088   .     S
C1208  C1211   1.450   .     S
C1208  C759    1.330   1_565 S
C1208  H793    1.088   1_565 S
C1209  C1210   1.434   .     S
C1210  O1270   1.276   .     A
C1210  O1264   1.277   .     A
C1211  O1271   1.274   .     A
C1211  O1265   1.275   .     A
C1212  C1217   1.402   .     A
C1212  H1255   1.080   .     S
C1212  C548    1.383   1_556 S
C1213  O1259   1.273   .     A
C1213  O1261   1.283   .     A
C1213  C1216   1.451   .     S
C1214  O1262   1.291   .     A
C1214  O1260   1.279   .     A
C1215  O1263   1.383   .     S
C1217  C1222   1.531   .     S
C1218  H1239   1.112   .     S
C1218  H1238   1.112   .     S
C1218  C1282   1.533   .     S
C1218  C1294   1.540   .     S
C1219  H1236   1.112   .     S
C1219  H1237   1.112   .     S
C1220  H1235   1.111   .     S
C1220  H1234   1.111   .     S
C1220  H1233   1.111   .     S
C1220  C1294   1.527   .     S
C1221  H1241   1.109   .     S
C1221  H1240   1.113   .     S
C1221  H567    1.113   1_556 S
C1221  O588    1.409   1_556 S
C1222  H1250   1.112   .     S
C1222  H1249   1.112   .     S
C1222  C1224   1.537   .     S
C1223  H1254   1.075   .     S
C1224  H1248   1.110   .     S
C1224  H1247   1.112   .     S
C1224  C775    1.528   1_565 S
C1225  H1244   1.111   .     S
C1225  H1246   1.110   .     S
C1226  C1227   1.421   .     A
C1226  C548    1.409   1_556 S
C1226  C553    1.427   1_556 S
C1227  C1231   1.410   .     A
C1229  C1230   1.392   .     A
C1229  C553    1.424   1_556 S
C1229  C540    1.410   1_556 S
C1230  C1231   1.381   .     A
C1230  H1252   1.080   .     S
C1231  H1256   1.080   .     S
H1245  C775    1.111   1_565 S
H1251  C759    1.086   1_565 S
O1258  Zn1275  1.931   .     S
O1258  Zn1274  1.949   .     S
O1258  Zn1272  1.955   .     S
O1258  Zn1273  1.945   .     S
O1259  Zn1273  1.934   .     S
O1260  Zn1275  1.939   .     S
O1261  Zn1274  1.933   .     S
O1262  Zn1272  1.927   .     S
O1264  Zn1272  1.928   .     S
O1265  Zn1275  1.934   .     S
O1266  Zn1273  1.936   .     S
O1267  Zn1274  1.942   .     S
O1268  Zn1275  1.943   .     S
O1269  Zn1272  1.939   .     S
O1270  Zn1273  1.933   .     S
O1271  Zn1274  1.925   .     S
C1276  O1343   1.264   .     A
C1276  O1341   1.267   .     A
C1276  C1282   1.433   .     S
C1277  C1291   1.389   .     A
C1277  H1328   1.076   .     S
C1277  C1303   1.410   .     A
C1278  C1290   1.393   .     A
C1278  H1307   1.084   .     S
C1278  C1291   1.395   .     A
C1279  O1344   1.268   .     A
C1279  C1281   1.458   .     S
C1279  O1342   1.294   .     A
C1280  C1292   1.432   .     A
C1280  C1302   1.424   .     A
C1280  C1289   1.491   .     S
C1281  C1132   1.357   1_655 S
C1281  H1182   1.088   1_655 S
C1283  C1286   1.450   .     S
C1283  C834    1.330   1_565 S
C1283  H868    1.088   1_565 S
C1284  C1285   1.434   .     S
C1285  O1345   1.276   .     A
C1285  O1339   1.277   .     A
C1286  O1346   1.274   .     A
C1286  O1340   1.275   .     A
C1287  C1292   1.402   .     A
C1287  H1330   1.080   .     S
C1287  C623    1.383   1_556 S
C1288  O1334   1.273   .     A
C1288  O1336   1.283   .     A
C1288  C1291   1.451   .     S
C1289  O1337   1.291   .     A
C1289  O1335   1.279   .     A
C1290  O1338   1.383   .     S
C1292  C1297   1.531   .     S
C1293  H1314   1.112   .     S
C1293  H1313   1.112   .     S
C1293  C1132   1.533   1_655 S
C1293  C1144   1.540   1_655 S
C1294  H1311   1.112   .     S
C1294  H1312   1.112   .     S
C1295  H1310   1.111   .     S
C1295  H1309   1.111   .     S
C1295  H1308   1.111   .     S
C1295  C1144   1.527   1_655 S
C1296  H1316   1.109   .     S
C1296  H1315   1.113   .     S
C1296  H642    1.113   1_556 S
C1296  O663    1.409   1_556 S
C1297  H1325   1.112   .     S
C1297  H1324   1.112   .     S
C1297  C1299   1.537   .     S
C1298  H1329   1.075   .     S
C1299  H1323   1.110   .     S
C1299  H1322   1.112   .     S
C1299  C850    1.528   1_565 S
C1300  H1319   1.111   .     S
C1300  H1321   1.110   .     S
C1301  C1302   1.421   .     A
C1301  C623    1.409   1_556 S
C1301  C628    1.427   1_556 S
C1302  C1306   1.410   .     A
C1304  C1305   1.392   .     A
C1304  C628    1.424   1_556 S
C1304  C615    1.410   1_556 S
C1305  C1306   1.381   .     A
C1305  H1327   1.080   .     S
C1306  H1331   1.080   .     S
H1320  C850    1.111   1_565 S
H1326  C834    1.086   1_565 S
O1333  Zn1350  1.931   .     S
O1333  Zn1349  1.949   .     S
O1333  Zn1347  1.955   .     S
O1333  Zn1348  1.945   .     S
O1334  Zn1348  1.934   .     S
O1335  Zn1350  1.939   .     S
O1336  Zn1349  1.933   .     S
O1337  Zn1347  1.927   .     S
O1339  Zn1347  1.928   .     S
O1340  Zn1350  1.934   .     S
O1341  Zn1348  1.936   .     S
O1342  Zn1349  1.942   .     S
O1343  Zn1350  1.943   .     S
O1344  Zn1347  1.939   .     S
O1345  Zn1348  1.933   .     S
O1346  Zn1349  1.925   .     S
