data_str_m1_o1_o17_pcu_sym.48
_audit_creation_date              2020-01-03
_audit_creation_method            'Materials Studio'
_symmetry_space_group_name_H-M    'P1'
_symmetry_Int_Tables_number       1
_symmetry_cell_setting            triclinic
loop_
_symmetry_equiv_pos_as_xyz
  x,y,z
_cell_length_a                    36.6182
_cell_length_b                    36.6182
_cell_length_c                    34.5185
_cell_angle_alpha                 90.0006
_cell_angle_beta                  90.0008
_cell_angle_gamma                 89.9666
loop_
_atom_site_label
_atom_site_type_symbol
_atom_site_fract_x
_atom_site_fract_y
_atom_site_fract_z
_atom_site_U_iso_or_equiv
_atom_site_adp_type
_atom_site_occupancy
C1     C     0.47842   0.27534   0.41823   0.00000  Uiso   1.00
C2     C     0.27159   0.47468   0.08176   0.00000  Uiso   1.00
C3     C     0.22768   0.02533   0.54104   0.00000  Uiso   1.00
C4     C     0.47479   0.27244   0.45896   0.00000  Uiso   1.00
C5     C     0.02521   0.22757   0.54104   0.00000  Uiso   1.00
C6     C     0.22767   0.02532   0.45896   0.00000  Uiso   1.00
C7     C     0.27224   0.47464   0.54104   0.00000  Uiso   1.00
C8     C     0.27522   0.47758   0.95896   0.00000  Uiso   1.00
C9     C     0.22478   0.02244   0.04104   0.00000  Uiso   1.00
C10    C     0.02246   0.22482   0.95896   0.00000  Uiso   1.00
C11    C     0.47752   0.27518   0.04104   0.00000  Uiso   1.00
C12    C     0.22478   0.02243   0.95896   0.00000  Uiso   1.00
C13    C     0.47463   0.27155   0.91823   0.00000  Uiso   1.00
C14    C     0.27522   0.47758   0.04104   0.00000  Uiso   1.00
C15    C     0.47752   0.27518   0.95896   0.00000  Uiso   1.00
C16    C     0.02247   0.22482   0.04104   0.00000  Uiso   1.00
C17    C     0.09806   0.34806   0.25000   0.00000  Uiso   1.00
C18    C     0.40194   0.15194   0.75000   0.00000  Uiso   1.00
C19    C     0.15194   0.09806   0.25000   0.00000  Uiso   1.00
C20    C     0.34806   0.40194   0.75000   0.00000  Uiso   1.00
C21    C     0.40194   0.15194   0.25000   0.00000  Uiso   1.00
C22    C     0.09806   0.34806   0.75000   0.00000  Uiso   1.00
C23    C     0.34806   0.40194   0.25000   0.00000  Uiso   1.00
C24    C     0.02537   0.22846   0.08177   0.00000  Uiso   1.00
C25    C     0.15194   0.09806   0.75000   0.00000  Uiso   1.00
C26    C     0.09806   0.15194   0.75000   0.00000  Uiso   1.00
C27    C     0.40194   0.34806   0.25000   0.00000  Uiso   1.00
C28    C     0.15194   0.40194   0.75000   0.00000  Uiso   1.00
C29    C     0.34806   0.09806   0.25000   0.00000  Uiso   1.00
C30    C     0.40194   0.34806   0.75000   0.00000  Uiso   1.00
C31    C     0.09806   0.15194   0.25000   0.00000  Uiso   1.00
C32    C     0.34806   0.09806   0.75000   0.00000  Uiso   1.00
C33    C     0.15194   0.40194   0.25000   0.00000  Uiso   1.00
C34    C     0.00000   0.25001   0.47950   0.00000  Uiso   1.00
C35    C     0.27159   0.47467   0.91824   0.00000  Uiso   1.00
C36    C     0.00000   0.25001   0.52050   0.00000  Uiso   1.00
C37    C     0.24996   0.49999   0.47950   0.00000  Uiso   1.00
C38    C     0.24996   0.49999   0.52050   0.00000  Uiso   1.00
C39    C     0.25000   0.00001   0.97950   0.00000  Uiso   1.00
C40    C     0.25000   0.00001   0.02050   0.00000  Uiso   1.00
C41    C     0.49999   0.25000   0.97950   0.00000  Uiso   1.00
C42    C     0.49999   0.25000   0.02050   0.00000  Uiso   1.00
C43    C     0.08497   0.19400   0.45985   0.00000  Uiso   1.00
C44    C     0.41505   0.30604   0.54014   0.00000  Uiso   1.00
C45    C     0.30543   0.41468   0.45984   0.00000  Uiso   1.00
C46    C     0.22841   0.02533   0.08176   0.00000  Uiso   1.00
C47    C     0.19444   0.08527   0.54015   0.00000  Uiso   1.00
C48    C     0.41506   0.30605   0.45985   0.00000  Uiso   1.00
C49    C     0.08495   0.19397   0.54015   0.00000  Uiso   1.00
C50    C     0.19438   0.08524   0.45985   0.00000  Uiso   1.00
C51    C     0.30539   0.41466   0.54015   0.00000  Uiso   1.00
C52    C     0.33498   0.44402   0.95985   0.00000  Uiso   1.00
C53    C     0.16503   0.05602   0.04014   0.00000  Uiso   1.00
C54    C     0.05613   0.16512   0.95986   0.00000  Uiso   1.00
C55    C     0.44382   0.33486   0.04015   0.00000  Uiso   1.00
C56    C     0.16503   0.05600   0.95985   0.00000  Uiso   1.00
C57    C     0.02535   0.22845   0.91824   0.00000  Uiso   1.00
C58    C     0.33498   0.44403   0.04015   0.00000  Uiso   1.00
C59    C     0.44383   0.33487   0.95986   0.00000  Uiso   1.00
C60    C     0.05617   0.16514   0.04015   0.00000  Uiso   1.00
C61    C     0.15996   0.39495   0.17884   0.00000  Uiso   1.00
C62    C     0.34005   0.10504   0.82116   0.00000  Uiso   1.00
C63    C     0.05006   0.10500   0.26078   0.00000  Uiso   1.00
C64    C     0.44994   0.39500   0.73922   0.00000  Uiso   1.00
C65    C     0.34000   0.10509   0.17885   0.00000  Uiso   1.00
C66    C     0.15996   0.39495   0.82116   0.00000  Uiso   1.00
C67    C     0.44994   0.39500   0.26079   0.00000  Uiso   1.00
C68    C     0.47463   0.27154   0.08177   0.00000  Uiso   1.00
C69    C     0.05006   0.10500   0.73922   0.00000  Uiso   1.00
C70    C     0.10500   0.05006   0.73922   0.00000  Uiso   1.00
C71    C     0.39500   0.44994   0.26078   0.00000  Uiso   1.00
C72    C     0.10506   0.34004   0.82116   0.00000  Uiso   1.00
C73    C     0.39491   0.16000   0.17885   0.00000  Uiso   1.00
C74    C     0.39500   0.44994   0.73922   0.00000  Uiso   1.00
C75    C     0.10500   0.05006   0.26078   0.00000  Uiso   1.00
C76    C     0.39495   0.15996   0.82116   0.00000  Uiso   1.00
C77    C     0.10506   0.34003   0.17884   0.00000  Uiso   1.00
C78    C     0.40995   0.14496   0.67883   0.00000  Uiso   1.00
C79    C     0.00000   0.25000   0.39816   0.00000  Uiso   1.00
C80    C     0.09003   0.35506   0.32116   0.00000  Uiso   1.00
C81    C     0.30006   0.35500   0.76078   0.00000  Uiso   1.00
C82    C     0.19994   0.14500   0.23922   0.00000  Uiso   1.00
C83    C     0.09004   0.35505   0.67884   0.00000  Uiso   1.00
C84    C     0.41001   0.14491   0.32115   0.00000  Uiso   1.00
C85    C     0.19994   0.14500   0.76078   0.00000  Uiso   1.00
C86    C     0.30006   0.35500   0.23921   0.00000  Uiso   1.00
C87    C     0.35500   0.30006   0.23921   0.00000  Uiso   1.00
C88    C     0.14500   0.19994   0.76078   0.00000  Uiso   1.00
C89    C     0.35509   0.09000   0.32115   0.00000  Uiso   1.00
C90    C    -0.00000   0.25000   0.60184   0.00000  Uiso   1.00
C91    C     0.14495   0.40996   0.67884   0.00000  Uiso   1.00
C92    C     0.14500   0.19994   0.23922   0.00000  Uiso   1.00
C93    C     0.35500   0.30006   0.76078   0.00000  Uiso   1.00
C94    C     0.14494   0.40997   0.32116   0.00000  Uiso   1.00
C95    C     0.35503   0.09005   0.67883   0.00000  Uiso   1.00
C96    C     0.46320   0.30595   0.39677   0.00000  Uiso   1.00
C97    C     0.03680   0.19405   0.60323   0.00000  Uiso   1.00
C98    C     0.19422   0.03708   0.39677   0.00000  Uiso   1.00
C99    C     0.30573   0.46288   0.60319   0.00000  Uiso   1.00
C100   C     0.03680   0.19406   0.39678   0.00000  Uiso   1.00
C101   C     0.24998  -0.00000   0.39816   0.00000  Uiso   1.00
C102   C     0.46319   0.30594   0.60323   0.00000  Uiso   1.00
C103   C     0.30575   0.46291   0.39681   0.00000  Uiso   1.00
C104   C     0.19423   0.03710   0.60322   0.00000  Uiso   1.00
C105   C     0.21319   0.05594   0.89677   0.00000  Uiso   1.00
C106   C     0.28682   0.44407   0.10322   0.00000  Uiso   1.00
C107   C     0.44401   0.28674   0.89676   0.00000  Uiso   1.00
C108   C     0.05600   0.21328   0.10323   0.00000  Uiso   1.00
C109   C     0.28682   0.44407   0.89678   0.00000  Uiso   1.00
C110   C     0.21318   0.05594   0.10323   0.00000  Uiso   1.00
C111   C     0.05598   0.21326   0.89677   0.00000  Uiso   1.00
C112   C     0.02158   0.22467   0.58176   0.00000  Uiso   1.00
C113   C     0.24999  -0.00000   0.60184   0.00000  Uiso   1.00
C114   C     0.44400   0.28672   0.10324   0.00000  Uiso   1.00
C115   C     0.25000   0.00000   0.89816   0.00000  Uiso   1.00
C116   C     0.25000   0.00000   0.10184   0.00000  Uiso   1.00
C117   C    -0.00000   0.25000   0.89816   0.00000  Uiso   1.00
C118   C    -0.00000   0.25000   0.10184   0.00000  Uiso   1.00
C119   C     0.05346   0.20951   0.47966   0.00000  Uiso   1.00
C120   C     0.44655   0.29051   0.52034   0.00000  Uiso   1.00
C121   C     0.29013   0.44628   0.47966   0.00000  Uiso   1.00
C122   C     0.20977   0.05367   0.52034   0.00000  Uiso   1.00
C123   C     0.44655   0.29052   0.47966   0.00000  Uiso   1.00
C124   C     0.22475   0.02171   0.41824   0.00000  Uiso   1.00
C125   C     0.05346   0.20950   0.52034   0.00000  Uiso   1.00
C126   C     0.20975   0.05366   0.47966   0.00000  Uiso   1.00
C127   C     0.29012   0.44628   0.52034   0.00000  Uiso   1.00
C128   C     0.30347   0.45952   0.97966   0.00000  Uiso   1.00
C129   C     0.19654   0.04050   0.02034   0.00000  Uiso   1.00
C130   C     0.04057   0.19660   0.97966   0.00000  Uiso   1.00
C131   C     0.45940   0.30339   0.02034   0.00000  Uiso   1.00
C132   C     0.19654   0.04050   0.97966   0.00000  Uiso   1.00
C133   C     0.30347   0.45953   0.02034   0.00000  Uiso   1.00
C134   C     0.45940   0.30339   0.97966   0.00000  Uiso   1.00
C135   C     0.27519   0.47827   0.58175   0.00000  Uiso   1.00
C136   C     0.04058   0.19661   0.02034   0.00000  Uiso   1.00
C137   C     0.25000   0.00000   0.35575   0.00000  Uiso   1.00
C138   C     0.25000   0.00000   0.64425   0.00000  Uiso   1.00
C139   C     0.00000   0.25000   0.35575   0.00000  Uiso   1.00
C140   C    -0.00000   0.25000   0.64425   0.00000  Uiso   1.00
C141   C    -0.00000   0.25000   0.85575   0.00000  Uiso   1.00
C142   C     0.00000   0.25000   0.14425   0.00000  Uiso   1.00
C143   C     0.25000   0.00000   0.85575   0.00000  Uiso   1.00
C144   C     0.25000   0.00000   0.14425   0.00000  Uiso   1.00
C145   C     0.18005   0.06995   0.25000   0.00000  Uiso   1.00
C146   C     0.02158   0.22467   0.41824   0.00000  Uiso   1.00
C147   C     0.31995   0.43005   0.75000   0.00000  Uiso   1.00
C148   C     0.43004   0.18004   0.25000   0.00000  Uiso   1.00
C149   C     0.06996   0.31996   0.75000   0.00000  Uiso   1.00
C150   C     0.31995   0.43005   0.25000   0.00000  Uiso   1.00
C151   C     0.18005   0.06995   0.75000   0.00000  Uiso   1.00
C152   C     0.06996   0.31996   0.25000   0.00000  Uiso   1.00
C153   C     0.43004   0.18004   0.75000   0.00000  Uiso   1.00
C154   C     0.18004   0.43004   0.75000   0.00000  Uiso   1.00
C155   C     0.31996   0.06996   0.25000   0.00000  Uiso   1.00
C156   C     0.43005   0.31995   0.75000   0.00000  Uiso   1.00
C157   C     0.47842   0.27534   0.58176   0.00000  Uiso   1.00
C158   C     0.06995   0.18005   0.25000   0.00000  Uiso   1.00
C159   C     0.31996   0.06996   0.75000   0.00000  Uiso   1.00
C160   C     0.18004   0.43004   0.25000   0.00000  Uiso   1.00
C161   C     0.06995   0.18005   0.75000   0.00000  Uiso   1.00
C162   C     0.43005   0.31995   0.25000   0.00000  Uiso   1.00
C163   C     0.14177   0.38525   0.21481   0.00000  Uiso   1.00
C164   C     0.35823   0.11475   0.78519   0.00000  Uiso   1.00
C165   C     0.08801   0.11504   0.25466   0.00000  Uiso   1.00
C166   C     0.41199   0.38496   0.74534   0.00000  Uiso   1.00
C167   C     0.35821   0.11477   0.21481   0.00000  Uiso   1.00
C168   C     0.27519   0.47828   0.41825   0.00000  Uiso   1.00
C169   C     0.14177   0.38525   0.78519   0.00000  Uiso   1.00
C170   C     0.41199   0.38496   0.25466   0.00000  Uiso   1.00
C171   C     0.08801   0.11504   0.74534   0.00000  Uiso   1.00
C172   C     0.11504   0.08801   0.74534   0.00000  Uiso   1.00
C173   C     0.38496   0.41199   0.25466   0.00000  Uiso   1.00
C174   C     0.11475   0.35823   0.78520   0.00000  Uiso   1.00
C175   C     0.38523   0.14179   0.21481   0.00000  Uiso   1.00
C176   C     0.38496   0.41199   0.74534   0.00000  Uiso   1.00
C177   C     0.11504   0.08801   0.25466   0.00000  Uiso   1.00
C178   C     0.38525   0.14177   0.78519   0.00000  Uiso   1.00
C179   C     0.22477   0.02172   0.58176   0.00000  Uiso   1.00
C180   C     0.11475   0.35822   0.21481   0.00000  Uiso   1.00
C181   C     0.39177   0.13526   0.71480   0.00000  Uiso   1.00
C182   C     0.10822   0.36476   0.28519   0.00000  Uiso   1.00
C183   C     0.33801   0.36504   0.75466   0.00000  Uiso   1.00
C184   C     0.16199   0.13496   0.24534   0.00000  Uiso   1.00
C185   C     0.10823   0.36475   0.71481   0.00000  Uiso   1.00
C186   C     0.39179   0.13523   0.28519   0.00000  Uiso   1.00
C187   C     0.16199   0.13496   0.75466   0.00000  Uiso   1.00
C188   C     0.33801   0.36504   0.24534   0.00000  Uiso   1.00
C189   C     0.36504   0.33801   0.24534   0.00000  Uiso   1.00
C190   C     0.22841   0.02533   0.91824   0.00000  Uiso   1.00
C191   C     0.13496   0.16199   0.75466   0.00000  Uiso   1.00
C192   C     0.36477   0.10821   0.28519   0.00000  Uiso   1.00
C193   C     0.13525   0.39177   0.71481   0.00000  Uiso   1.00
C194   C     0.13496   0.16199   0.24534   0.00000  Uiso   1.00
C195   C     0.36504   0.33801   0.75466   0.00000  Uiso   1.00
C196   C     0.13525   0.39178   0.28519   0.00000  Uiso   1.00
C197   C     0.36474   0.10823   0.71481   0.00000  Uiso   1.00
C198   C     0.02522   0.22757   0.45896   0.00000  Uiso   1.00
C199   C     0.47479   0.27244   0.54104   0.00000  Uiso   1.00
C200   C     0.27225   0.47465   0.45896   0.00000  Uiso   1.00
N201   N     0.11020   0.18171   0.44441   0.00000  Uiso   1.00
N202   N     0.13980   0.06832   0.05559   0.00000  Uiso   1.00
N203   N     0.06846   0.13990   0.94441   0.00000  Uiso   1.00
N204   N     0.43147   0.36007   0.05559   0.00000  Uiso   1.00
N205   N     0.13979   0.06829   0.94440   0.00000  Uiso   1.00
N206   N     0.36022   0.43174   0.05560   0.00000  Uiso   1.00
N207   N     0.43149   0.36008   0.94441   0.00000  Uiso   1.00
N208   N     0.06852   0.13993   0.05559   0.00000  Uiso   1.00
N209   N     0.17448   0.40268   0.15021   0.00000  Uiso   1.00
N210   N     0.32554   0.09730   0.84980   0.00000  Uiso   1.00
N211   N     0.01982   0.09703   0.26567   0.00000  Uiso   1.00
N212   N     0.38982   0.31834   0.55558   0.00000  Uiso   1.00
N213   N     0.48018   0.40297   0.73433   0.00000  Uiso   1.00
N214   N     0.32547   0.09737   0.15022   0.00000  Uiso   1.00
N215   N     0.17447   0.40269   0.84980   0.00000  Uiso   1.00
N216   N     0.48018   0.40297   0.26567   0.00000  Uiso   1.00
N217   N     0.01982   0.09703   0.73433   0.00000  Uiso   1.00
N218   N     0.09703   0.01982   0.73433   0.00000  Uiso   1.00
N219   N     0.40297   0.48018   0.26567   0.00000  Uiso   1.00
N220   N     0.09732   0.32552   0.84980   0.00000  Uiso   1.00
N221   N     0.40262   0.17453   0.15022   0.00000  Uiso   1.00
N222   N     0.40297   0.48018   0.73434   0.00000  Uiso   1.00
N223   N     0.31755   0.38937   0.44438   0.00000  Uiso   1.00
N224   N     0.09703   0.01982   0.26567   0.00000  Uiso   1.00
N225   N     0.40269   0.17448   0.84980   0.00000  Uiso   1.00
N226   N     0.09733   0.32551   0.15021   0.00000  Uiso   1.00
N227   N     0.42445   0.15270   0.65020   0.00000  Uiso   1.00
N228   N     0.07551   0.34733   0.34979   0.00000  Uiso   1.00
N229   N     0.26982   0.34703   0.76567   0.00000  Uiso   1.00
N230   N     0.23018   0.15297   0.23433   0.00000  Uiso   1.00
N231   N     0.07553   0.34731   0.65021   0.00000  Uiso   1.00
N232   N     0.42454   0.15263   0.34978   0.00000  Uiso   1.00
N233   N     0.23018   0.15297   0.76567   0.00000  Uiso   1.00
N234   N     0.18229   0.11057   0.55560   0.00000  Uiso   1.00
N235   N     0.26982   0.34703   0.23432   0.00000  Uiso   1.00
N236   N     0.34703   0.26982   0.23432   0.00000  Uiso   1.00
N237   N     0.15297   0.23018   0.76567   0.00000  Uiso   1.00
N238   N     0.34737   0.07548   0.34978   0.00000  Uiso   1.00
N239   N     0.15268   0.42447   0.65021   0.00000  Uiso   1.00
N240   N     0.15297   0.23018   0.23433   0.00000  Uiso   1.00
N241   N     0.34703   0.26982   0.76567   0.00000  Uiso   1.00
N242   N     0.15268   0.42448   0.34979   0.00000  Uiso   1.00
N243   N     0.34729   0.07555   0.65020   0.00000  Uiso   1.00
N244   N     0.45135   0.33029   0.37943   0.00000  Uiso   1.00
N245   N     0.38983   0.31836   0.44440   0.00000  Uiso   1.00
N246   N     0.04865   0.16971   0.62055   0.00000  Uiso   1.00
N247   N     0.16993   0.04905   0.37944   0.00000  Uiso   1.00
N248   N     0.33003   0.45089   0.62050   0.00000  Uiso   1.00
N249   N     0.04866   0.16971   0.37945   0.00000  Uiso   1.00
N250   N     0.45132   0.33028   0.62056   0.00000  Uiso   1.00
N251   N     0.33005   0.45093   0.37950   0.00000  Uiso   1.00
N252   N     0.16995   0.04909   0.62055   0.00000  Uiso   1.00
N253   N     0.20133   0.08028   0.87944   0.00000  Uiso   1.00
N254   N     0.29869   0.41973   0.12055   0.00000  Uiso   1.00
N255   N     0.41966   0.29856   0.87942   0.00000  Uiso   1.00
N256   N     0.11018   0.18166   0.55559   0.00000  Uiso   1.00
N257   N     0.08036   0.20146   0.12057   0.00000  Uiso   1.00
N258   N     0.29868   0.41972   0.87945   0.00000  Uiso   1.00
N259   N     0.20132   0.08028   0.12056   0.00000  Uiso   1.00
N260   N     0.08033   0.20143   0.87944   0.00000  Uiso   1.00
N261   N     0.41965   0.29854   0.12057   0.00000  Uiso   1.00
N262   N     0.18220   0.11052   0.44440   0.00000  Uiso   1.00
N263   N     0.31749   0.38934   0.55561   0.00000  Uiso   1.00
N264   N     0.36021   0.43173   0.94440   0.00000  Uiso   1.00
O265   O     0.25000   0.00000   0.25000   0.00000  Uiso   1.00
O266   O     0.25000   0.46964   0.66245   0.00000  Uiso   1.00
O267   O     0.46963   0.25000   0.33755   0.00000  Uiso   1.00
O268   O     0.03036   0.25000   0.66245   0.00000  Uiso   1.00
O269   O    -0.00000   0.21964   0.83755   0.00000  Uiso   1.00
O270   O     0.00000   0.28037   0.16245   0.00000  Uiso   1.00
O271   O     0.28036   0.00000   0.83755   0.00000  Uiso   1.00
O272   O     0.21963   0.00000   0.16245   0.00000  Uiso   1.00
O273   O    -0.00000   0.28037   0.83755   0.00000  Uiso   1.00
O274   O     0.00000   0.21964   0.16245   0.00000  Uiso   1.00
O275   O     0.21963   0.00000   0.83755   0.00000  Uiso   1.00
O276   O     0.25000   0.00000   0.75000   0.00000  Uiso   1.00
O277   O     0.28036   0.00000   0.16245   0.00000  Uiso   1.00
O278   O     0.20724   0.07308   0.27302   0.00000  Uiso   1.00
O279   O     0.29275   0.42693   0.72698   0.00000  Uiso   1.00
O280   O     0.42692   0.20725   0.27302   0.00000  Uiso   1.00
O281   O     0.07307   0.29276   0.72698   0.00000  Uiso   1.00
O282   O     0.29275   0.42693   0.27302   0.00000  Uiso   1.00
O283   O     0.20724   0.07308   0.72698   0.00000  Uiso   1.00
O284   O     0.07307   0.29276   0.27302   0.00000  Uiso   1.00
O285   O     0.42692   0.20725   0.72698   0.00000  Uiso   1.00
O286   O     0.20724   0.42693   0.72698   0.00000  Uiso   1.00
O287   O     0.00000   0.25000   0.25000   0.00000  Uiso   1.00
O288   O     0.29275   0.07308   0.27302   0.00000  Uiso   1.00
O289   O     0.42692   0.29276   0.72698   0.00000  Uiso   1.00
O290   O     0.07307   0.20725   0.27302   0.00000  Uiso   1.00
O291   O     0.29275   0.07308   0.72698   0.00000  Uiso   1.00
O292   O     0.20724   0.42693   0.27302   0.00000  Uiso   1.00
O293   O     0.07307   0.20725   0.72698   0.00000  Uiso   1.00
O294   O     0.42692   0.29276   0.27302   0.00000  Uiso   1.00
O295   O     0.45724   0.32308   0.77302   0.00000  Uiso   1.00
O296   O     0.04275   0.17693   0.22698   0.00000  Uiso   1.00
O297   O     0.17692   0.45725   0.77302   0.00000  Uiso   1.00
O298   O     0.00000   0.25000   0.75000   0.00000  Uiso   1.00
O299   O     0.32307   0.04276   0.22698   0.00000  Uiso   1.00
O300   O     0.04275   0.17693   0.77302   0.00000  Uiso   1.00
O301   O     0.45724   0.32308   0.22698   0.00000  Uiso   1.00
O302   O     0.32307   0.04276   0.77302   0.00000  Uiso   1.00
O303   O     0.17692   0.45725   0.22698   0.00000  Uiso   1.00
O304   O     0.45724   0.17693   0.22698   0.00000  Uiso   1.00
O305   O     0.04275   0.32308   0.77302   0.00000  Uiso   1.00
O306   O     0.17692   0.04276   0.22698   0.00000  Uiso   1.00
O307   O     0.32307   0.45725   0.77302   0.00000  Uiso   1.00
O308   O     0.04275   0.32308   0.22698   0.00000  Uiso   1.00
O309   O     0.25000   0.46964   0.33755   0.00000  Uiso   1.00
O310   O     0.45724   0.17693   0.77302   0.00000  Uiso   1.00
O311   O     0.32307   0.45725   0.22698   0.00000  Uiso   1.00
O312   O     0.17692   0.04276   0.77302   0.00000  Uiso   1.00
O313   O     0.25000   0.03037   0.66245   0.00000  Uiso   1.00
O314   O     0.03036   0.25000   0.33755   0.00000  Uiso   1.00
O315   O     0.46963   0.25000   0.66245   0.00000  Uiso   1.00
O316   O     0.25000   0.03037   0.33755   0.00000  Uiso   1.00
Zn317  Zn    0.20659   0.00000   0.21735   0.00000  Uiso   1.00
Zn318  Zn    0.04340   0.25000   0.28265   0.00000  Uiso   1.00
Zn319  Zn    0.25000   0.45660   0.71735   0.00000  Uiso   1.00
Zn320  Zn    0.25000   0.04341   0.28265   0.00000  Uiso   1.00
Zn321  Zn    0.04340   0.25000   0.71735   0.00000  Uiso   1.00
Zn322  Zn    0.45659   0.25000   0.28265   0.00000  Uiso   1.00
Zn323  Zn    0.25000   0.04341   0.71735   0.00000  Uiso   1.00
Zn324  Zn    0.25000   0.45660   0.28265   0.00000  Uiso   1.00
Zn325  Zn    0.29340   0.00000   0.78265   0.00000  Uiso   1.00
Zn326  Zn    0.00000   0.20660   0.21735   0.00000  Uiso   1.00
Zn327  Zn    0.00000   0.29341   0.78265   0.00000  Uiso   1.00
Zn328  Zn    0.29340   0.00000   0.21735   0.00000  Uiso   1.00
Zn329  Zn    0.20659   0.00000   0.78265   0.00000  Uiso   1.00
Zn330  Zn    0.00000   0.29341   0.21735   0.00000  Uiso   1.00
Zn331  Zn    0.00000   0.20660   0.78265   0.00000  Uiso   1.00
Zn332  Zn    0.45659   0.25000   0.71735   0.00000  Uiso   1.00
C333   C     0.97842   0.27534   0.41823   0.00000  Uiso   1.00
C334   C     0.77159   0.47468   0.08176   0.00000  Uiso   1.00
C335   C     0.72768   0.02533   0.54104   0.00000  Uiso   1.00
C336   C     0.97479   0.27244   0.45896   0.00000  Uiso   1.00
C337   C     0.52521   0.22757   0.54104   0.00000  Uiso   1.00
C338   C     0.72767   0.02532   0.45896   0.00000  Uiso   1.00
C339   C     0.77224   0.47464   0.54104   0.00000  Uiso   1.00
C340   C     0.77522   0.47758   0.95896   0.00000  Uiso   1.00
C341   C     0.72478   0.02244   0.04104   0.00000  Uiso   1.00
C342   C     0.52246   0.22482   0.95896   0.00000  Uiso   1.00
C343   C     0.97752   0.27518   0.04104   0.00000  Uiso   1.00
C344   C     0.72478   0.02243   0.95896   0.00000  Uiso   1.00
C345   C     0.97463   0.27155   0.91823   0.00000  Uiso   1.00
C346   C     0.77522   0.47758   0.04104   0.00000  Uiso   1.00
C347   C     0.97752   0.27518   0.95896   0.00000  Uiso   1.00
C348   C     0.52247   0.22482   0.04104   0.00000  Uiso   1.00
C349   C     0.59806   0.34806   0.25000   0.00000  Uiso   1.00
C350   C     0.90194   0.15194   0.75000   0.00000  Uiso   1.00
C351   C     0.65194   0.09806   0.25000   0.00000  Uiso   1.00
C352   C     0.84806   0.40194   0.75000   0.00000  Uiso   1.00
C353   C     0.90194   0.15194   0.25000   0.00000  Uiso   1.00
C354   C     0.59806   0.34806   0.75000   0.00000  Uiso   1.00
C355   C     0.84806   0.40194   0.25000   0.00000  Uiso   1.00
C356   C     0.52537   0.22846   0.08177   0.00000  Uiso   1.00
C357   C     0.65194   0.09806   0.75000   0.00000  Uiso   1.00
C358   C     0.59806   0.15194   0.75000   0.00000  Uiso   1.00
C359   C     0.90194   0.34806   0.25000   0.00000  Uiso   1.00
C360   C     0.65194   0.40194   0.75000   0.00000  Uiso   1.00
C361   C     0.84806   0.09806   0.25000   0.00000  Uiso   1.00
C362   C     0.90194   0.34806   0.75000   0.00000  Uiso   1.00
C363   C     0.59806   0.15194   0.25000   0.00000  Uiso   1.00
C364   C     0.84806   0.09806   0.75000   0.00000  Uiso   1.00
C365   C     0.65194   0.40194   0.25000   0.00000  Uiso   1.00
C366   C     0.50000   0.25001   0.47950   0.00000  Uiso   1.00
C367   C     0.77159   0.47467   0.91824   0.00000  Uiso   1.00
C368   C     0.50000   0.25001   0.52050   0.00000  Uiso   1.00
C369   C     0.74996   0.49999   0.47950   0.00000  Uiso   1.00
C370   C     0.74996   0.49999   0.52050   0.00000  Uiso   1.00
C371   C     0.75000   0.00001   0.97950   0.00000  Uiso   1.00
C372   C     0.75000   0.00001   0.02050   0.00000  Uiso   1.00
C373   C     0.99999   0.25000   0.97950   0.00000  Uiso   1.00
C374   C     0.99999   0.25000   0.02050   0.00000  Uiso   1.00
C375   C     0.58497   0.19400   0.45985   0.00000  Uiso   1.00
C376   C     0.91505   0.30604   0.54014   0.00000  Uiso   1.00
C377   C     0.80543   0.41468   0.45984   0.00000  Uiso   1.00
C378   C     0.72841   0.02533   0.08176   0.00000  Uiso   1.00
C379   C     0.69444   0.08527   0.54015   0.00000  Uiso   1.00
C380   C     0.91506   0.30605   0.45985   0.00000  Uiso   1.00
C381   C     0.58495   0.19397   0.54015   0.00000  Uiso   1.00
C382   C     0.69438   0.08524   0.45985   0.00000  Uiso   1.00
C383   C     0.80539   0.41466   0.54015   0.00000  Uiso   1.00
C384   C     0.83498   0.44402   0.95985   0.00000  Uiso   1.00
C385   C     0.66503   0.05602   0.04014   0.00000  Uiso   1.00
C386   C     0.55613   0.16512   0.95986   0.00000  Uiso   1.00
C387   C     0.94382   0.33486   0.04015   0.00000  Uiso   1.00
C388   C     0.66503   0.05600   0.95985   0.00000  Uiso   1.00
C389   C     0.52535   0.22845   0.91824   0.00000  Uiso   1.00
C390   C     0.83498   0.44403   0.04015   0.00000  Uiso   1.00
C391   C     0.94383   0.33487   0.95986   0.00000  Uiso   1.00
C392   C     0.55617   0.16514   0.04015   0.00000  Uiso   1.00
C393   C     0.65996   0.39495   0.17884   0.00000  Uiso   1.00
C394   C     0.84005   0.10504   0.82116   0.00000  Uiso   1.00
C395   C     0.55006   0.10500   0.26078   0.00000  Uiso   1.00
C396   C     0.94994   0.39500   0.73922   0.00000  Uiso   1.00
C397   C     0.84000   0.10509   0.17885   0.00000  Uiso   1.00
C398   C     0.65996   0.39495   0.82116   0.00000  Uiso   1.00
C399   C     0.94994   0.39500   0.26079   0.00000  Uiso   1.00
C400   C     0.97463   0.27154   0.08177   0.00000  Uiso   1.00
C401   C     0.55006   0.10500   0.73922   0.00000  Uiso   1.00
C402   C     0.60500   0.05006   0.73922   0.00000  Uiso   1.00
C403   C     0.89500   0.44994   0.26078   0.00000  Uiso   1.00
C404   C     0.60506   0.34004   0.82116   0.00000  Uiso   1.00
C405   C     0.89491   0.16000   0.17885   0.00000  Uiso   1.00
C406   C     0.89500   0.44994   0.73922   0.00000  Uiso   1.00
C407   C     0.60500   0.05006   0.26078   0.00000  Uiso   1.00
C408   C     0.89495   0.15996   0.82116   0.00000  Uiso   1.00
C409   C     0.60506   0.34003   0.17884   0.00000  Uiso   1.00
C410   C     0.90995   0.14496   0.67883   0.00000  Uiso   1.00
C411   C     0.50000   0.25000   0.39816   0.00000  Uiso   1.00
C412   C     0.59003   0.35506   0.32116   0.00000  Uiso   1.00
C413   C     0.80006   0.35500   0.76078   0.00000  Uiso   1.00
C414   C     0.69994   0.14500   0.23922   0.00000  Uiso   1.00
C415   C     0.59004   0.35505   0.67884   0.00000  Uiso   1.00
C416   C     0.91001   0.14491   0.32115   0.00000  Uiso   1.00
C417   C     0.69994   0.14500   0.76078   0.00000  Uiso   1.00
C418   C     0.80006   0.35500   0.23921   0.00000  Uiso   1.00
C419   C     0.85500   0.30006   0.23921   0.00000  Uiso   1.00
C420   C     0.64500   0.19994   0.76078   0.00000  Uiso   1.00
C421   C     0.85509   0.09000   0.32115   0.00000  Uiso   1.00
C422   C     0.50000   0.25000   0.60184   0.00000  Uiso   1.00
C423   C     0.64495   0.40996   0.67884   0.00000  Uiso   1.00
C424   C     0.64500   0.19994   0.23922   0.00000  Uiso   1.00
C425   C     0.85500   0.30006   0.76078   0.00000  Uiso   1.00
C426   C     0.64494   0.40997   0.32116   0.00000  Uiso   1.00
C427   C     0.85503   0.09005   0.67883   0.00000  Uiso   1.00
C428   C     0.96320   0.30595   0.39677   0.00000  Uiso   1.00
C429   C     0.53680   0.19405   0.60323   0.00000  Uiso   1.00
C430   C     0.69422   0.03708   0.39677   0.00000  Uiso   1.00
C431   C     0.80573   0.46288   0.60319   0.00000  Uiso   1.00
C432   C     0.53680   0.19406   0.39678   0.00000  Uiso   1.00
C433   C     0.74998  -0.00000   0.39816   0.00000  Uiso   1.00
C434   C     0.96319   0.30594   0.60323   0.00000  Uiso   1.00
C435   C     0.80575   0.46291   0.39681   0.00000  Uiso   1.00
C436   C     0.69423   0.03710   0.60322   0.00000  Uiso   1.00
C437   C     0.71319   0.05594   0.89677   0.00000  Uiso   1.00
C438   C     0.78682   0.44407   0.10322   0.00000  Uiso   1.00
C439   C     0.94401   0.28674   0.89676   0.00000  Uiso   1.00
C440   C     0.55600   0.21328   0.10323   0.00000  Uiso   1.00
C441   C     0.78682   0.44407   0.89678   0.00000  Uiso   1.00
C442   C     0.71318   0.05594   0.10323   0.00000  Uiso   1.00
C443   C     0.55598   0.21326   0.89677   0.00000  Uiso   1.00
C444   C     0.52158   0.22467   0.58176   0.00000  Uiso   1.00
C445   C     0.74999  -0.00000   0.60184   0.00000  Uiso   1.00
C446   C     0.94400   0.28672   0.10324   0.00000  Uiso   1.00
C447   C     0.75000   0.00000   0.89816   0.00000  Uiso   1.00
C448   C     0.75000   0.00000   0.10184   0.00000  Uiso   1.00
C449   C     0.50000   0.25000   0.89816   0.00000  Uiso   1.00
C450   C     0.50000   0.25000   0.10184   0.00000  Uiso   1.00
C451   C     0.55346   0.20951   0.47966   0.00000  Uiso   1.00
C452   C     0.94655   0.29051   0.52034   0.00000  Uiso   1.00
C453   C     0.79013   0.44628   0.47966   0.00000  Uiso   1.00
C454   C     0.70977   0.05367   0.52034   0.00000  Uiso   1.00
C455   C     0.94655   0.29052   0.47966   0.00000  Uiso   1.00
C456   C     0.72475   0.02171   0.41824   0.00000  Uiso   1.00
C457   C     0.55346   0.20950   0.52034   0.00000  Uiso   1.00
C458   C     0.70975   0.05366   0.47966   0.00000  Uiso   1.00
C459   C     0.79012   0.44628   0.52034   0.00000  Uiso   1.00
C460   C     0.80347   0.45952   0.97966   0.00000  Uiso   1.00
C461   C     0.69654   0.04050   0.02034   0.00000  Uiso   1.00
C462   C     0.54057   0.19660   0.97966   0.00000  Uiso   1.00
C463   C     0.95940   0.30339   0.02034   0.00000  Uiso   1.00
C464   C     0.69654   0.04050   0.97966   0.00000  Uiso   1.00
C465   C     0.80347   0.45953   0.02034   0.00000  Uiso   1.00
C466   C     0.95940   0.30339   0.97966   0.00000  Uiso   1.00
C467   C     0.77519   0.47827   0.58175   0.00000  Uiso   1.00
C468   C     0.54058   0.19661   0.02034   0.00000  Uiso   1.00
C469   C     0.75000   0.00000   0.35575   0.00000  Uiso   1.00
C470   C     0.75000   0.00000   0.64425   0.00000  Uiso   1.00
C471   C     0.50000   0.25000   0.35575   0.00000  Uiso   1.00
C472   C     0.50000   0.25000   0.64425   0.00000  Uiso   1.00
C473   C     0.50000   0.25000   0.85575   0.00000  Uiso   1.00
C474   C     0.50000   0.25000   0.14425   0.00000  Uiso   1.00
C475   C     0.75000   0.00000   0.85575   0.00000  Uiso   1.00
C476   C     0.75000   0.00000   0.14425   0.00000  Uiso   1.00
C477   C     0.68005   0.06995   0.25000   0.00000  Uiso   1.00
C478   C     0.52158   0.22467   0.41824   0.00000  Uiso   1.00
C479   C     0.81995   0.43005   0.75000   0.00000  Uiso   1.00
C480   C     0.93004   0.18004   0.25000   0.00000  Uiso   1.00
C481   C     0.56996   0.31996   0.75000   0.00000  Uiso   1.00
C482   C     0.81995   0.43005   0.25000   0.00000  Uiso   1.00
C483   C     0.68005   0.06995   0.75000   0.00000  Uiso   1.00
C484   C     0.56996   0.31996   0.25000   0.00000  Uiso   1.00
C485   C     0.93004   0.18004   0.75000   0.00000  Uiso   1.00
C486   C     0.68004   0.43004   0.75000   0.00000  Uiso   1.00
C487   C     0.81996   0.06996   0.25000   0.00000  Uiso   1.00
C488   C     0.93005   0.31995   0.75000   0.00000  Uiso   1.00
C489   C     0.97842   0.27534   0.58176   0.00000  Uiso   1.00
C490   C     0.56995   0.18005   0.25000   0.00000  Uiso   1.00
C491   C     0.81996   0.06996   0.75000   0.00000  Uiso   1.00
C492   C     0.68004   0.43004   0.25000   0.00000  Uiso   1.00
C493   C     0.56995   0.18005   0.75000   0.00000  Uiso   1.00
C494   C     0.93005   0.31995   0.25000   0.00000  Uiso   1.00
C495   C     0.64177   0.38525   0.21481   0.00000  Uiso   1.00
C496   C     0.85823   0.11475   0.78519   0.00000  Uiso   1.00
C497   C     0.58801   0.11504   0.25466   0.00000  Uiso   1.00
C498   C     0.91199   0.38496   0.74534   0.00000  Uiso   1.00
C499   C     0.85821   0.11477   0.21481   0.00000  Uiso   1.00
C500   C     0.77519   0.47828   0.41825   0.00000  Uiso   1.00
C501   C     0.64177   0.38525   0.78519   0.00000  Uiso   1.00
C502   C     0.91199   0.38496   0.25466   0.00000  Uiso   1.00
C503   C     0.58801   0.11504   0.74534   0.00000  Uiso   1.00
C504   C     0.61504   0.08801   0.74534   0.00000  Uiso   1.00
C505   C     0.88496   0.41199   0.25466   0.00000  Uiso   1.00
C506   C     0.61475   0.35823   0.78520   0.00000  Uiso   1.00
C507   C     0.88523   0.14179   0.21481   0.00000  Uiso   1.00
C508   C     0.88496   0.41199   0.74534   0.00000  Uiso   1.00
C509   C     0.61504   0.08801   0.25466   0.00000  Uiso   1.00
C510   C     0.88525   0.14177   0.78519   0.00000  Uiso   1.00
C511   C     0.72477   0.02172   0.58176   0.00000  Uiso   1.00
C512   C     0.61475   0.35822   0.21481   0.00000  Uiso   1.00
C513   C     0.89177   0.13526   0.71480   0.00000  Uiso   1.00
C514   C     0.60822   0.36476   0.28519   0.00000  Uiso   1.00
C515   C     0.83801   0.36504   0.75466   0.00000  Uiso   1.00
C516   C     0.66199   0.13496   0.24534   0.00000  Uiso   1.00
C517   C     0.60823   0.36475   0.71481   0.00000  Uiso   1.00
C518   C     0.89179   0.13523   0.28519   0.00000  Uiso   1.00
C519   C     0.66199   0.13496   0.75466   0.00000  Uiso   1.00
C520   C     0.83801   0.36504   0.24534   0.00000  Uiso   1.00
C521   C     0.86504   0.33801   0.24534   0.00000  Uiso   1.00
C522   C     0.72841   0.02533   0.91824   0.00000  Uiso   1.00
C523   C     0.63496   0.16199   0.75466   0.00000  Uiso   1.00
C524   C     0.86477   0.10821   0.28519   0.00000  Uiso   1.00
C525   C     0.63525   0.39177   0.71481   0.00000  Uiso   1.00
C526   C     0.63496   0.16199   0.24534   0.00000  Uiso   1.00
C527   C     0.86504   0.33801   0.75466   0.00000  Uiso   1.00
C528   C     0.63525   0.39178   0.28519   0.00000  Uiso   1.00
C529   C     0.86474   0.10823   0.71481   0.00000  Uiso   1.00
C530   C     0.52522   0.22757   0.45896   0.00000  Uiso   1.00
C531   C     0.97479   0.27244   0.54104   0.00000  Uiso   1.00
C532   C     0.77225   0.47465   0.45896   0.00000  Uiso   1.00
N533   N     0.61020   0.18171   0.44441   0.00000  Uiso   1.00
N534   N     0.63980   0.06832   0.05559   0.00000  Uiso   1.00
N535   N     0.56846   0.13990   0.94441   0.00000  Uiso   1.00
N536   N     0.93147   0.36007   0.05559   0.00000  Uiso   1.00
N537   N     0.63979   0.06829   0.94440   0.00000  Uiso   1.00
N538   N     0.86022   0.43174   0.05560   0.00000  Uiso   1.00
N539   N     0.93149   0.36008   0.94441   0.00000  Uiso   1.00
N540   N     0.56852   0.13993   0.05559   0.00000  Uiso   1.00
N541   N     0.67448   0.40268   0.15021   0.00000  Uiso   1.00
N542   N     0.82554   0.09730   0.84980   0.00000  Uiso   1.00
N543   N     0.51982   0.09703   0.26567   0.00000  Uiso   1.00
N544   N     0.88982   0.31834   0.55558   0.00000  Uiso   1.00
N545   N     0.98018   0.40297   0.73433   0.00000  Uiso   1.00
N546   N     0.82547   0.09737   0.15022   0.00000  Uiso   1.00
N547   N     0.67447   0.40269   0.84980   0.00000  Uiso   1.00
N548   N     0.98018   0.40297   0.26567   0.00000  Uiso   1.00
N549   N     0.51982   0.09703   0.73433   0.00000  Uiso   1.00
N550   N     0.59703   0.01982   0.73433   0.00000  Uiso   1.00
N551   N     0.90297   0.48018   0.26567   0.00000  Uiso   1.00
N552   N     0.59732   0.32552   0.84980   0.00000  Uiso   1.00
N553   N     0.90262   0.17453   0.15022   0.00000  Uiso   1.00
N554   N     0.90297   0.48018   0.73434   0.00000  Uiso   1.00
N555   N     0.81755   0.38937   0.44438   0.00000  Uiso   1.00
N556   N     0.59703   0.01982   0.26567   0.00000  Uiso   1.00
N557   N     0.90269   0.17448   0.84980   0.00000  Uiso   1.00
N558   N     0.59733   0.32551   0.15021   0.00000  Uiso   1.00
N559   N     0.92445   0.15270   0.65020   0.00000  Uiso   1.00
N560   N     0.57551   0.34733   0.34979   0.00000  Uiso   1.00
N561   N     0.76982   0.34703   0.76567   0.00000  Uiso   1.00
N562   N     0.73018   0.15297   0.23433   0.00000  Uiso   1.00
N563   N     0.57553   0.34731   0.65021   0.00000  Uiso   1.00
N564   N     0.92454   0.15263   0.34978   0.00000  Uiso   1.00
N565   N     0.73018   0.15297   0.76567   0.00000  Uiso   1.00
N566   N     0.68229   0.11057   0.55560   0.00000  Uiso   1.00
N567   N     0.76982   0.34703   0.23432   0.00000  Uiso   1.00
N568   N     0.84703   0.26982   0.23432   0.00000  Uiso   1.00
N569   N     0.65297   0.23018   0.76567   0.00000  Uiso   1.00
N570   N     0.84737   0.07548   0.34978   0.00000  Uiso   1.00
N571   N     0.65268   0.42447   0.65021   0.00000  Uiso   1.00
N572   N     0.65297   0.23018   0.23433   0.00000  Uiso   1.00
N573   N     0.84703   0.26982   0.76567   0.00000  Uiso   1.00
N574   N     0.65268   0.42448   0.34979   0.00000  Uiso   1.00
N575   N     0.84729   0.07555   0.65020   0.00000  Uiso   1.00
N576   N     0.95135   0.33029   0.37943   0.00000  Uiso   1.00
N577   N     0.88983   0.31836   0.44440   0.00000  Uiso   1.00
N578   N     0.54865   0.16971   0.62055   0.00000  Uiso   1.00
N579   N     0.66993   0.04905   0.37944   0.00000  Uiso   1.00
N580   N     0.83003   0.45089   0.62050   0.00000  Uiso   1.00
N581   N     0.54866   0.16971   0.37945   0.00000  Uiso   1.00
N582   N     0.95132   0.33028   0.62056   0.00000  Uiso   1.00
N583   N     0.83005   0.45093   0.37950   0.00000  Uiso   1.00
N584   N     0.66995   0.04909   0.62055   0.00000  Uiso   1.00
N585   N     0.70133   0.08028   0.87944   0.00000  Uiso   1.00
N586   N     0.79869   0.41973   0.12055   0.00000  Uiso   1.00
N587   N     0.91966   0.29856   0.87942   0.00000  Uiso   1.00
N588   N     0.61018   0.18166   0.55559   0.00000  Uiso   1.00
N589   N     0.58036   0.20146   0.12057   0.00000  Uiso   1.00
N590   N     0.79868   0.41972   0.87945   0.00000  Uiso   1.00
N591   N     0.70132   0.08028   0.12056   0.00000  Uiso   1.00
N592   N     0.58033   0.20143   0.87944   0.00000  Uiso   1.00
N593   N     0.91965   0.29854   0.12057   0.00000  Uiso   1.00
N594   N     0.68220   0.11052   0.44440   0.00000  Uiso   1.00
N595   N     0.81749   0.38934   0.55561   0.00000  Uiso   1.00
N596   N     0.86021   0.43173   0.94440   0.00000  Uiso   1.00
O597   O     0.75000   0.00000   0.25000   0.00000  Uiso   1.00
O598   O     0.75000   0.46964   0.66245   0.00000  Uiso   1.00
O599   O     0.96963   0.25000   0.33755   0.00000  Uiso   1.00
O600   O     0.53036   0.25000   0.66245   0.00000  Uiso   1.00
O601   O     0.50000   0.21964   0.83755   0.00000  Uiso   1.00
O602   O     0.50000   0.28037   0.16245   0.00000  Uiso   1.00
O603   O     0.78036   0.00000   0.83755   0.00000  Uiso   1.00
O604   O     0.71963   0.00000   0.16245   0.00000  Uiso   1.00
O605   O     0.50000   0.28037   0.83755   0.00000  Uiso   1.00
O606   O     0.50000   0.21964   0.16245   0.00000  Uiso   1.00
O607   O     0.71963   0.00000   0.83755   0.00000  Uiso   1.00
O608   O     0.75000   0.00000   0.75000   0.00000  Uiso   1.00
O609   O     0.78036   0.00000   0.16245   0.00000  Uiso   1.00
O610   O     0.70724   0.07308   0.27302   0.00000  Uiso   1.00
O611   O     0.79275   0.42693   0.72698   0.00000  Uiso   1.00
O612   O     0.92692   0.20725   0.27302   0.00000  Uiso   1.00
O613   O     0.57307   0.29276   0.72698   0.00000  Uiso   1.00
O614   O     0.79275   0.42693   0.27302   0.00000  Uiso   1.00
O615   O     0.70724   0.07308   0.72698   0.00000  Uiso   1.00
O616   O     0.57307   0.29276   0.27302   0.00000  Uiso   1.00
O617   O     0.92692   0.20725   0.72698   0.00000  Uiso   1.00
O618   O     0.70724   0.42693   0.72698   0.00000  Uiso   1.00
O619   O     0.50000   0.25000   0.25000   0.00000  Uiso   1.00
O620   O     0.79275   0.07308   0.27302   0.00000  Uiso   1.00
O621   O     0.92692   0.29276   0.72698   0.00000  Uiso   1.00
O622   O     0.57307   0.20725   0.27302   0.00000  Uiso   1.00
O623   O     0.79275   0.07308   0.72698   0.00000  Uiso   1.00
O624   O     0.70724   0.42693   0.27302   0.00000  Uiso   1.00
O625   O     0.57307   0.20725   0.72698   0.00000  Uiso   1.00
O626   O     0.92692   0.29276   0.27302   0.00000  Uiso   1.00
O627   O     0.95724   0.32308   0.77302   0.00000  Uiso   1.00
O628   O     0.54275   0.17693   0.22698   0.00000  Uiso   1.00
O629   O     0.67692   0.45725   0.77302   0.00000  Uiso   1.00
O630   O     0.50000   0.25000   0.75000   0.00000  Uiso   1.00
O631   O     0.82307   0.04276   0.22698   0.00000  Uiso   1.00
O632   O     0.54275   0.17693   0.77302   0.00000  Uiso   1.00
O633   O     0.95724   0.32308   0.22698   0.00000  Uiso   1.00
O634   O     0.82307   0.04276   0.77302   0.00000  Uiso   1.00
O635   O     0.67692   0.45725   0.22698   0.00000  Uiso   1.00
O636   O     0.95724   0.17693   0.22698   0.00000  Uiso   1.00
O637   O     0.54275   0.32308   0.77302   0.00000  Uiso   1.00
O638   O     0.67692   0.04276   0.22698   0.00000  Uiso   1.00
O639   O     0.82307   0.45725   0.77302   0.00000  Uiso   1.00
O640   O     0.54275   0.32308   0.22698   0.00000  Uiso   1.00
O641   O     0.75000   0.46964   0.33755   0.00000  Uiso   1.00
O642   O     0.95724   0.17693   0.77302   0.00000  Uiso   1.00
O643   O     0.82307   0.45725   0.22698   0.00000  Uiso   1.00
O644   O     0.67692   0.04276   0.77302   0.00000  Uiso   1.00
O645   O     0.75000   0.03037   0.66245   0.00000  Uiso   1.00
O646   O     0.53036   0.25000   0.33755   0.00000  Uiso   1.00
O647   O     0.96963   0.25000   0.66245   0.00000  Uiso   1.00
O648   O     0.75000   0.03037   0.33755   0.00000  Uiso   1.00
Zn649  Zn    0.70659   0.00000   0.21735   0.00000  Uiso   1.00
Zn650  Zn    0.54340   0.25000   0.28265   0.00000  Uiso   1.00
Zn651  Zn    0.75000   0.45660   0.71735   0.00000  Uiso   1.00
Zn652  Zn    0.75000   0.04341   0.28265   0.00000  Uiso   1.00
Zn653  Zn    0.54340   0.25000   0.71735   0.00000  Uiso   1.00
Zn654  Zn    0.95659   0.25000   0.28265   0.00000  Uiso   1.00
Zn655  Zn    0.75000   0.04341   0.71735   0.00000  Uiso   1.00
Zn656  Zn    0.75000   0.45660   0.28265   0.00000  Uiso   1.00
Zn657  Zn    0.79340   0.00000   0.78265   0.00000  Uiso   1.00
Zn658  Zn    0.50000   0.20660   0.21735   0.00000  Uiso   1.00
Zn659  Zn    0.50000   0.29341   0.78265   0.00000  Uiso   1.00
Zn660  Zn    0.79340   0.00000   0.21735   0.00000  Uiso   1.00
Zn661  Zn    0.70659   0.00000   0.78265   0.00000  Uiso   1.00
Zn662  Zn    0.50000   0.29341   0.21735   0.00000  Uiso   1.00
Zn663  Zn    0.50000   0.20660   0.78265   0.00000  Uiso   1.00
Zn664  Zn    0.95659   0.25000   0.71735   0.00000  Uiso   1.00
C665   C     0.47842   0.77534   0.41823   0.00000  Uiso   1.00
C666   C     0.27159   0.97468   0.08176   0.00000  Uiso   1.00
C667   C     0.22768   0.52533   0.54104   0.00000  Uiso   1.00
C668   C     0.47479   0.77244   0.45896   0.00000  Uiso   1.00
C669   C     0.02521   0.72757   0.54104   0.00000  Uiso   1.00
C670   C     0.22767   0.52532   0.45896   0.00000  Uiso   1.00
C671   C     0.27224   0.97464   0.54104   0.00000  Uiso   1.00
C672   C     0.27522   0.97758   0.95896   0.00000  Uiso   1.00
C673   C     0.22478   0.52244   0.04104   0.00000  Uiso   1.00
C674   C     0.02246   0.72482   0.95896   0.00000  Uiso   1.00
C675   C     0.47752   0.77518   0.04104   0.00000  Uiso   1.00
C676   C     0.22478   0.52243   0.95896   0.00000  Uiso   1.00
C677   C     0.47463   0.77155   0.91823   0.00000  Uiso   1.00
C678   C     0.27522   0.97758   0.04104   0.00000  Uiso   1.00
C679   C     0.47752   0.77518   0.95896   0.00000  Uiso   1.00
C680   C     0.02247   0.72482   0.04104   0.00000  Uiso   1.00
C681   C     0.09806   0.84806   0.25000   0.00000  Uiso   1.00
C682   C     0.40194   0.65194   0.75000   0.00000  Uiso   1.00
C683   C     0.15194   0.59806   0.25000   0.00000  Uiso   1.00
C684   C     0.34806   0.90194   0.75000   0.00000  Uiso   1.00
C685   C     0.40194   0.65194   0.25000   0.00000  Uiso   1.00
C686   C     0.09806   0.84806   0.75000   0.00000  Uiso   1.00
C687   C     0.34806   0.90194   0.25000   0.00000  Uiso   1.00
C688   C     0.02537   0.72846   0.08177   0.00000  Uiso   1.00
C689   C     0.15194   0.59806   0.75000   0.00000  Uiso   1.00
C690   C     0.09806   0.65194   0.75000   0.00000  Uiso   1.00
C691   C     0.40194   0.84806   0.25000   0.00000  Uiso   1.00
C692   C     0.15194   0.90194   0.75000   0.00000  Uiso   1.00
C693   C     0.34806   0.59806   0.25000   0.00000  Uiso   1.00
C694   C     0.40194   0.84806   0.75000   0.00000  Uiso   1.00
C695   C     0.09806   0.65194   0.25000   0.00000  Uiso   1.00
C696   C     0.34806   0.59806   0.75000   0.00000  Uiso   1.00
C697   C     0.15194   0.90194   0.25000   0.00000  Uiso   1.00
C698   C     0.00000   0.75001   0.47950   0.00000  Uiso   1.00
C699   C     0.27159   0.97467   0.91824   0.00000  Uiso   1.00
C700   C     0.00000   0.75001   0.52050   0.00000  Uiso   1.00
C701   C     0.24996   0.99999   0.47950   0.00000  Uiso   1.00
C702   C     0.24996   0.99999   0.52050   0.00000  Uiso   1.00
C703   C     0.25000   0.50001   0.97950   0.00000  Uiso   1.00
C704   C     0.25000   0.50001   0.02050   0.00000  Uiso   1.00
C705   C     0.49999   0.75000   0.97950   0.00000  Uiso   1.00
C706   C     0.49999   0.75000   0.02050   0.00000  Uiso   1.00
C707   C     0.08497   0.69400   0.45985   0.00000  Uiso   1.00
C708   C     0.41505   0.80604   0.54014   0.00000  Uiso   1.00
C709   C     0.30543   0.91468   0.45984   0.00000  Uiso   1.00
C710   C     0.22841   0.52533   0.08176   0.00000  Uiso   1.00
C711   C     0.19444   0.58527   0.54015   0.00000  Uiso   1.00
C712   C     0.41506   0.80605   0.45985   0.00000  Uiso   1.00
C713   C     0.08495   0.69397   0.54015   0.00000  Uiso   1.00
C714   C     0.19438   0.58524   0.45985   0.00000  Uiso   1.00
C715   C     0.30539   0.91466   0.54015   0.00000  Uiso   1.00
C716   C     0.33498   0.94402   0.95985   0.00000  Uiso   1.00
C717   C     0.16503   0.55602   0.04014   0.00000  Uiso   1.00
C718   C     0.05613   0.66512   0.95986   0.00000  Uiso   1.00
C719   C     0.44382   0.83486   0.04015   0.00000  Uiso   1.00
C720   C     0.16503   0.55600   0.95985   0.00000  Uiso   1.00
C721   C     0.02535   0.72845   0.91824   0.00000  Uiso   1.00
C722   C     0.33498   0.94403   0.04015   0.00000  Uiso   1.00
C723   C     0.44383   0.83487   0.95986   0.00000  Uiso   1.00
C724   C     0.05617   0.66514   0.04015   0.00000  Uiso   1.00
C725   C     0.15996   0.89495   0.17884   0.00000  Uiso   1.00
C726   C     0.34005   0.60504   0.82116   0.00000  Uiso   1.00
C727   C     0.05006   0.60500   0.26078   0.00000  Uiso   1.00
C728   C     0.44994   0.89500   0.73922   0.00000  Uiso   1.00
C729   C     0.34000   0.60509   0.17885   0.00000  Uiso   1.00
C730   C     0.15996   0.89495   0.82116   0.00000  Uiso   1.00
C731   C     0.44994   0.89500   0.26079   0.00000  Uiso   1.00
C732   C     0.47463   0.77154   0.08177   0.00000  Uiso   1.00
C733   C     0.05006   0.60500   0.73922   0.00000  Uiso   1.00
C734   C     0.10500   0.55006   0.73922   0.00000  Uiso   1.00
C735   C     0.39500   0.94994   0.26078   0.00000  Uiso   1.00
C736   C     0.10506   0.84004   0.82116   0.00000  Uiso   1.00
C737   C     0.39491   0.66000   0.17885   0.00000  Uiso   1.00
C738   C     0.39500   0.94994   0.73922   0.00000  Uiso   1.00
C739   C     0.10500   0.55006   0.26078   0.00000  Uiso   1.00
C740   C     0.39495   0.65996   0.82116   0.00000  Uiso   1.00
C741   C     0.10506   0.84003   0.17884   0.00000  Uiso   1.00
C742   C     0.40995   0.64496   0.67883   0.00000  Uiso   1.00
C743   C     0.00000   0.75000   0.39816   0.00000  Uiso   1.00
C744   C     0.09003   0.85506   0.32116   0.00000  Uiso   1.00
C745   C     0.30006   0.85500   0.76078   0.00000  Uiso   1.00
C746   C     0.19994   0.64500   0.23922   0.00000  Uiso   1.00
C747   C     0.09004   0.85505   0.67884   0.00000  Uiso   1.00
C748   C     0.41001   0.64491   0.32115   0.00000  Uiso   1.00
C749   C     0.19994   0.64500   0.76078   0.00000  Uiso   1.00
C750   C     0.30006   0.85500   0.23921   0.00000  Uiso   1.00
C751   C     0.35500   0.80006   0.23921   0.00000  Uiso   1.00
C752   C     0.14500   0.69994   0.76078   0.00000  Uiso   1.00
C753   C     0.35509   0.59000   0.32115   0.00000  Uiso   1.00
C754   C    -0.00000   0.75000   0.60184   0.00000  Uiso   1.00
C755   C     0.14495   0.90996   0.67884   0.00000  Uiso   1.00
C756   C     0.14500   0.69994   0.23922   0.00000  Uiso   1.00
C757   C     0.35500   0.80006   0.76078   0.00000  Uiso   1.00
C758   C     0.14494   0.90997   0.32116   0.00000  Uiso   1.00
C759   C     0.35503   0.59005   0.67883   0.00000  Uiso   1.00
C760   C     0.46320   0.80595   0.39677   0.00000  Uiso   1.00
C761   C     0.03680   0.69405   0.60323   0.00000  Uiso   1.00
C762   C     0.19422   0.53708   0.39677   0.00000  Uiso   1.00
C763   C     0.30573   0.96288   0.60319   0.00000  Uiso   1.00
C764   C     0.03680   0.69406   0.39678   0.00000  Uiso   1.00
C765   C     0.24998   0.50000   0.39816   0.00000  Uiso   1.00
C766   C     0.46319   0.80594   0.60323   0.00000  Uiso   1.00
C767   C     0.30575   0.96291   0.39681   0.00000  Uiso   1.00
C768   C     0.19423   0.53710   0.60322   0.00000  Uiso   1.00
C769   C     0.21319   0.55594   0.89677   0.00000  Uiso   1.00
C770   C     0.28682   0.94407   0.10322   0.00000  Uiso   1.00
C771   C     0.44401   0.78674   0.89676   0.00000  Uiso   1.00
C772   C     0.05600   0.71328   0.10323   0.00000  Uiso   1.00
C773   C     0.28682   0.94407   0.89678   0.00000  Uiso   1.00
C774   C     0.21318   0.55594   0.10323   0.00000  Uiso   1.00
C775   C     0.05598   0.71326   0.89677   0.00000  Uiso   1.00
C776   C     0.02158   0.72467   0.58176   0.00000  Uiso   1.00
C777   C     0.24999   0.50000   0.60184   0.00000  Uiso   1.00
C778   C     0.44400   0.78672   0.10324   0.00000  Uiso   1.00
C779   C     0.25000   0.50000   0.89816   0.00000  Uiso   1.00
C780   C     0.25000   0.50000   0.10184   0.00000  Uiso   1.00
C781   C    -0.00000   0.75000   0.89816   0.00000  Uiso   1.00
C782   C    -0.00000   0.75000   0.10184   0.00000  Uiso   1.00
C783   C     0.05346   0.70951   0.47966   0.00000  Uiso   1.00
C784   C     0.44655   0.79051   0.52034   0.00000  Uiso   1.00
C785   C     0.29013   0.94628   0.47966   0.00000  Uiso   1.00
C786   C     0.20977   0.55367   0.52034   0.00000  Uiso   1.00
C787   C     0.44655   0.79052   0.47966   0.00000  Uiso   1.00
C788   C     0.22475   0.52171   0.41824   0.00000  Uiso   1.00
C789   C     0.05346   0.70950   0.52034   0.00000  Uiso   1.00
C790   C     0.20975   0.55366   0.47966   0.00000  Uiso   1.00
C791   C     0.29012   0.94628   0.52034   0.00000  Uiso   1.00
C792   C     0.30347   0.95952   0.97966   0.00000  Uiso   1.00
C793   C     0.19654   0.54050   0.02034   0.00000  Uiso   1.00
C794   C     0.04057   0.69660   0.97966   0.00000  Uiso   1.00
C795   C     0.45940   0.80339   0.02034   0.00000  Uiso   1.00
C796   C     0.19654   0.54050   0.97966   0.00000  Uiso   1.00
C797   C     0.30347   0.95953   0.02034   0.00000  Uiso   1.00
C798   C     0.45940   0.80339   0.97966   0.00000  Uiso   1.00
C799   C     0.27519   0.97827   0.58175   0.00000  Uiso   1.00
C800   C     0.04058   0.69661   0.02034   0.00000  Uiso   1.00
C801   C     0.25000   0.50000   0.35575   0.00000  Uiso   1.00
C802   C     0.25000   0.50000   0.64425   0.00000  Uiso   1.00
C803   C     0.00000   0.75000   0.35575   0.00000  Uiso   1.00
C804   C    -0.00000   0.75000   0.64425   0.00000  Uiso   1.00
C805   C    -0.00000   0.75000   0.85575   0.00000  Uiso   1.00
C806   C     0.00000   0.75000   0.14425   0.00000  Uiso   1.00
C807   C     0.25000   0.50000   0.85575   0.00000  Uiso   1.00
C808   C     0.25000   0.50000   0.14425   0.00000  Uiso   1.00
C809   C     0.18005   0.56995   0.25000   0.00000  Uiso   1.00
C810   C     0.02158   0.72467   0.41824   0.00000  Uiso   1.00
C811   C     0.31995   0.93005   0.75000   0.00000  Uiso   1.00
C812   C     0.43004   0.68004   0.25000   0.00000  Uiso   1.00
C813   C     0.06996   0.81996   0.75000   0.00000  Uiso   1.00
C814   C     0.31995   0.93005   0.25000   0.00000  Uiso   1.00
C815   C     0.18005   0.56995   0.75000   0.00000  Uiso   1.00
C816   C     0.06996   0.81996   0.25000   0.00000  Uiso   1.00
C817   C     0.43004   0.68004   0.75000   0.00000  Uiso   1.00
C818   C     0.18004   0.93004   0.75000   0.00000  Uiso   1.00
C819   C     0.31996   0.56996   0.25000   0.00000  Uiso   1.00
C820   C     0.43005   0.81995   0.75000   0.00000  Uiso   1.00
C821   C     0.47842   0.77534   0.58176   0.00000  Uiso   1.00
C822   C     0.06995   0.68005   0.25000   0.00000  Uiso   1.00
C823   C     0.31996   0.56996   0.75000   0.00000  Uiso   1.00
C824   C     0.18004   0.93004   0.25000   0.00000  Uiso   1.00
C825   C     0.06995   0.68005   0.75000   0.00000  Uiso   1.00
C826   C     0.43005   0.81995   0.25000   0.00000  Uiso   1.00
C827   C     0.14177   0.88525   0.21481   0.00000  Uiso   1.00
C828   C     0.35823   0.61475   0.78519   0.00000  Uiso   1.00
C829   C     0.08801   0.61504   0.25466   0.00000  Uiso   1.00
C830   C     0.41199   0.88496   0.74534   0.00000  Uiso   1.00
C831   C     0.35821   0.61477   0.21481   0.00000  Uiso   1.00
C832   C     0.27519   0.97828   0.41825   0.00000  Uiso   1.00
C833   C     0.14177   0.88525   0.78519   0.00000  Uiso   1.00
C834   C     0.41199   0.88496   0.25466   0.00000  Uiso   1.00
C835   C     0.08801   0.61504   0.74534   0.00000  Uiso   1.00
C836   C     0.11504   0.58801   0.74534   0.00000  Uiso   1.00
C837   C     0.38496   0.91199   0.25466   0.00000  Uiso   1.00
C838   C     0.11475   0.85823   0.78520   0.00000  Uiso   1.00
C839   C     0.38523   0.64179   0.21481   0.00000  Uiso   1.00
C840   C     0.38496   0.91199   0.74534   0.00000  Uiso   1.00
C841   C     0.11504   0.58801   0.25466   0.00000  Uiso   1.00
C842   C     0.38525   0.64177   0.78519   0.00000  Uiso   1.00
C843   C     0.22477   0.52172   0.58176   0.00000  Uiso   1.00
C844   C     0.11475   0.85822   0.21481   0.00000  Uiso   1.00
C845   C     0.39177   0.63526   0.71480   0.00000  Uiso   1.00
C846   C     0.10822   0.86476   0.28519   0.00000  Uiso   1.00
C847   C     0.33801   0.86504   0.75466   0.00000  Uiso   1.00
C848   C     0.16199   0.63496   0.24534   0.00000  Uiso   1.00
C849   C     0.10823   0.86475   0.71481   0.00000  Uiso   1.00
C850   C     0.39179   0.63523   0.28519   0.00000  Uiso   1.00
C851   C     0.16199   0.63496   0.75466   0.00000  Uiso   1.00
C852   C     0.33801   0.86504   0.24534   0.00000  Uiso   1.00
C853   C     0.36504   0.83801   0.24534   0.00000  Uiso   1.00
C854   C     0.22841   0.52533   0.91824   0.00000  Uiso   1.00
C855   C     0.13496   0.66199   0.75466   0.00000  Uiso   1.00
C856   C     0.36477   0.60821   0.28519   0.00000  Uiso   1.00
C857   C     0.13525   0.89177   0.71481   0.00000  Uiso   1.00
C858   C     0.13496   0.66199   0.24534   0.00000  Uiso   1.00
C859   C     0.36504   0.83801   0.75466   0.00000  Uiso   1.00
C860   C     0.13525   0.89178   0.28519   0.00000  Uiso   1.00
C861   C     0.36474   0.60823   0.71481   0.00000  Uiso   1.00
C862   C     0.02522   0.72757   0.45896   0.00000  Uiso   1.00
C863   C     0.47479   0.77244   0.54104   0.00000  Uiso   1.00
C864   C     0.27225   0.97465   0.45896   0.00000  Uiso   1.00
N865   N     0.11020   0.68171   0.44441   0.00000  Uiso   1.00
N866   N     0.13980   0.56832   0.05559   0.00000  Uiso   1.00
N867   N     0.06846   0.63990   0.94441   0.00000  Uiso   1.00
N868   N     0.43147   0.86007   0.05559   0.00000  Uiso   1.00
N869   N     0.13979   0.56829   0.94440   0.00000  Uiso   1.00
N870   N     0.36022   0.93174   0.05560   0.00000  Uiso   1.00
N871   N     0.43149   0.86008   0.94441   0.00000  Uiso   1.00
N872   N     0.06852   0.63993   0.05559   0.00000  Uiso   1.00
N873   N     0.17448   0.90268   0.15021   0.00000  Uiso   1.00
N874   N     0.32554   0.59730   0.84980   0.00000  Uiso   1.00
N875   N     0.01982   0.59703   0.26567   0.00000  Uiso   1.00
N876   N     0.38982   0.81834   0.55558   0.00000  Uiso   1.00
N877   N     0.48018   0.90297   0.73433   0.00000  Uiso   1.00
N878   N     0.32547   0.59737   0.15022   0.00000  Uiso   1.00
N879   N     0.17447   0.90269   0.84980   0.00000  Uiso   1.00
N880   N     0.48018   0.90297   0.26567   0.00000  Uiso   1.00
N881   N     0.01982   0.59703   0.73433   0.00000  Uiso   1.00
N882   N     0.09703   0.51982   0.73433   0.00000  Uiso   1.00
N883   N     0.40297   0.98018   0.26567   0.00000  Uiso   1.00
N884   N     0.09732   0.82552   0.84980   0.00000  Uiso   1.00
N885   N     0.40262   0.67453   0.15022   0.00000  Uiso   1.00
N886   N     0.40297   0.98018   0.73434   0.00000  Uiso   1.00
N887   N     0.31755   0.88937   0.44438   0.00000  Uiso   1.00
N888   N     0.09703   0.51982   0.26567   0.00000  Uiso   1.00
N889   N     0.40269   0.67448   0.84980   0.00000  Uiso   1.00
N890   N     0.09733   0.82551   0.15021   0.00000  Uiso   1.00
N891   N     0.42445   0.65270   0.65020   0.00000  Uiso   1.00
N892   N     0.07551   0.84733   0.34979   0.00000  Uiso   1.00
N893   N     0.26982   0.84703   0.76567   0.00000  Uiso   1.00
N894   N     0.23018   0.65297   0.23433   0.00000  Uiso   1.00
N895   N     0.07553   0.84731   0.65021   0.00000  Uiso   1.00
N896   N     0.42454   0.65263   0.34978   0.00000  Uiso   1.00
N897   N     0.23018   0.65297   0.76567   0.00000  Uiso   1.00
N898   N     0.18229   0.61057   0.55560   0.00000  Uiso   1.00
N899   N     0.26982   0.84703   0.23432   0.00000  Uiso   1.00
N900   N     0.34703   0.76982   0.23432   0.00000  Uiso   1.00
N901   N     0.15297   0.73018   0.76567   0.00000  Uiso   1.00
N902   N     0.34737   0.57548   0.34978   0.00000  Uiso   1.00
N903   N     0.15268   0.92447   0.65021   0.00000  Uiso   1.00
N904   N     0.15297   0.73018   0.23433   0.00000  Uiso   1.00
N905   N     0.34703   0.76982   0.76567   0.00000  Uiso   1.00
N906   N     0.15268   0.92448   0.34979   0.00000  Uiso   1.00
N907   N     0.34729   0.57555   0.65020   0.00000  Uiso   1.00
N908   N     0.45135   0.83029   0.37943   0.00000  Uiso   1.00
N909   N     0.38983   0.81836   0.44440   0.00000  Uiso   1.00
N910   N     0.04865   0.66971   0.62055   0.00000  Uiso   1.00
N911   N     0.16993   0.54905   0.37944   0.00000  Uiso   1.00
N912   N     0.33003   0.95089   0.62050   0.00000  Uiso   1.00
N913   N     0.04866   0.66971   0.37945   0.00000  Uiso   1.00
N914   N     0.45132   0.83028   0.62056   0.00000  Uiso   1.00
N915   N     0.33005   0.95093   0.37950   0.00000  Uiso   1.00
N916   N     0.16995   0.54909   0.62055   0.00000  Uiso   1.00
N917   N     0.20133   0.58028   0.87944   0.00000  Uiso   1.00
N918   N     0.29869   0.91973   0.12055   0.00000  Uiso   1.00
N919   N     0.41966   0.79856   0.87942   0.00000  Uiso   1.00
N920   N     0.11018   0.68166   0.55559   0.00000  Uiso   1.00
N921   N     0.08036   0.70146   0.12057   0.00000  Uiso   1.00
N922   N     0.29868   0.91972   0.87945   0.00000  Uiso   1.00
N923   N     0.20132   0.58028   0.12056   0.00000  Uiso   1.00
N924   N     0.08033   0.70143   0.87944   0.00000  Uiso   1.00
N925   N     0.41965   0.79854   0.12057   0.00000  Uiso   1.00
N926   N     0.18220   0.61052   0.44440   0.00000  Uiso   1.00
N927   N     0.31749   0.88934   0.55561   0.00000  Uiso   1.00
N928   N     0.36021   0.93173   0.94440   0.00000  Uiso   1.00
O929   O     0.25000   0.50000   0.25000   0.00000  Uiso   1.00
O930   O     0.25000   0.96964   0.66245   0.00000  Uiso   1.00
O931   O     0.46963   0.75000   0.33755   0.00000  Uiso   1.00
O932   O     0.03036   0.75000   0.66245   0.00000  Uiso   1.00
O933   O    -0.00000   0.71964   0.83755   0.00000  Uiso   1.00
O934   O     0.00000   0.78037   0.16245   0.00000  Uiso   1.00
O935   O     0.28036   0.50000   0.83755   0.00000  Uiso   1.00
O936   O     0.21963   0.50000   0.16245   0.00000  Uiso   1.00
O937   O    -0.00000   0.78037   0.83755   0.00000  Uiso   1.00
O938   O     0.00000   0.71964   0.16245   0.00000  Uiso   1.00
O939   O     0.21963   0.50000   0.83755   0.00000  Uiso   1.00
O940   O     0.25000   0.50000   0.75000   0.00000  Uiso   1.00
O941   O     0.28036   0.50000   0.16245   0.00000  Uiso   1.00
O942   O     0.20724   0.57308   0.27302   0.00000  Uiso   1.00
O943   O     0.29275   0.92693   0.72698   0.00000  Uiso   1.00
O944   O     0.42692   0.70725   0.27302   0.00000  Uiso   1.00
O945   O     0.07307   0.79276   0.72698   0.00000  Uiso   1.00
O946   O     0.29275   0.92693   0.27302   0.00000  Uiso   1.00
O947   O     0.20724   0.57308   0.72698   0.00000  Uiso   1.00
O948   O     0.07307   0.79276   0.27302   0.00000  Uiso   1.00
O949   O     0.42692   0.70725   0.72698   0.00000  Uiso   1.00
O950   O     0.20724   0.92693   0.72698   0.00000  Uiso   1.00
O951   O     0.00000   0.75000   0.25000   0.00000  Uiso   1.00
O952   O     0.29275   0.57308   0.27302   0.00000  Uiso   1.00
O953   O     0.42692   0.79276   0.72698   0.00000  Uiso   1.00
O954   O     0.07307   0.70725   0.27302   0.00000  Uiso   1.00
O955   O     0.29275   0.57308   0.72698   0.00000  Uiso   1.00
O956   O     0.20724   0.92693   0.27302   0.00000  Uiso   1.00
O957   O     0.07307   0.70725   0.72698   0.00000  Uiso   1.00
O958   O     0.42692   0.79276   0.27302   0.00000  Uiso   1.00
O959   O     0.45724   0.82308   0.77302   0.00000  Uiso   1.00
O960   O     0.04275   0.67693   0.22698   0.00000  Uiso   1.00
O961   O     0.17692   0.95725   0.77302   0.00000  Uiso   1.00
O962   O     0.00000   0.75000   0.75000   0.00000  Uiso   1.00
O963   O     0.32307   0.54276   0.22698   0.00000  Uiso   1.00
O964   O     0.04275   0.67693   0.77302   0.00000  Uiso   1.00
O965   O     0.45724   0.82308   0.22698   0.00000  Uiso   1.00
O966   O     0.32307   0.54276   0.77302   0.00000  Uiso   1.00
O967   O     0.17692   0.95725   0.22698   0.00000  Uiso   1.00
O968   O     0.45724   0.67693   0.22698   0.00000  Uiso   1.00
O969   O     0.04275   0.82308   0.77302   0.00000  Uiso   1.00
O970   O     0.17692   0.54276   0.22698   0.00000  Uiso   1.00
O971   O     0.32307   0.95725   0.77302   0.00000  Uiso   1.00
O972   O     0.04275   0.82308   0.22698   0.00000  Uiso   1.00
O973   O     0.25000   0.96964   0.33755   0.00000  Uiso   1.00
O974   O     0.45724   0.67693   0.77302   0.00000  Uiso   1.00
O975   O     0.32307   0.95725   0.22698   0.00000  Uiso   1.00
O976   O     0.17692   0.54276   0.77302   0.00000  Uiso   1.00
O977   O     0.25000   0.53037   0.66245   0.00000  Uiso   1.00
O978   O     0.03036   0.75000   0.33755   0.00000  Uiso   1.00
O979   O     0.46963   0.75000   0.66245   0.00000  Uiso   1.00
O980   O     0.25000   0.53037   0.33755   0.00000  Uiso   1.00
Zn981  Zn    0.20659   0.50000   0.21735   0.00000  Uiso   1.00
Zn982  Zn    0.04340   0.75000   0.28265   0.00000  Uiso   1.00
Zn983  Zn    0.25000   0.95660   0.71735   0.00000  Uiso   1.00
Zn984  Zn    0.25000   0.54341   0.28265   0.00000  Uiso   1.00
Zn985  Zn    0.04340   0.75000   0.71735   0.00000  Uiso   1.00
Zn986  Zn    0.45659   0.75000   0.28265   0.00000  Uiso   1.00
Zn987  Zn    0.25000   0.54341   0.71735   0.00000  Uiso   1.00
Zn988  Zn    0.25000   0.95660   0.28265   0.00000  Uiso   1.00
Zn989  Zn    0.29340   0.50000   0.78265   0.00000  Uiso   1.00
Zn990  Zn    0.00000   0.70660   0.21735   0.00000  Uiso   1.00
Zn991  Zn    0.00000   0.79341   0.78265   0.00000  Uiso   1.00
Zn992  Zn    0.29340   0.50000   0.21735   0.00000  Uiso   1.00
Zn993  Zn    0.20659   0.50000   0.78265   0.00000  Uiso   1.00
Zn994  Zn    0.00000   0.79341   0.21735   0.00000  Uiso   1.00
Zn995  Zn    0.00000   0.70660   0.78265   0.00000  Uiso   1.00
Zn996  Zn    0.45659   0.75000   0.71735   0.00000  Uiso   1.00
C997   C     0.97842   0.77534   0.41823   0.00000  Uiso   1.00
C998   C     0.77159   0.97468   0.08176   0.00000  Uiso   1.00
C999   C     0.72768   0.52533   0.54104   0.00000  Uiso   1.00
C1000  C     0.97479   0.77244   0.45896   0.00000  Uiso   1.00
C1001  C     0.52521   0.72757   0.54104   0.00000  Uiso   1.00
C1002  C     0.72767   0.52532   0.45896   0.00000  Uiso   1.00
C1003  C     0.77224   0.97464   0.54104   0.00000  Uiso   1.00
C1004  C     0.77522   0.97758   0.95896   0.00000  Uiso   1.00
C1005  C     0.72478   0.52244   0.04104   0.00000  Uiso   1.00
C1006  C     0.52246   0.72482   0.95896   0.00000  Uiso   1.00
C1007  C     0.97752   0.77518   0.04104   0.00000  Uiso   1.00
C1008  C     0.72478   0.52243   0.95896   0.00000  Uiso   1.00
C1009  C     0.97463   0.77155   0.91823   0.00000  Uiso   1.00
C1010  C     0.77522   0.97758   0.04104   0.00000  Uiso   1.00
C1011  C     0.97752   0.77518   0.95896   0.00000  Uiso   1.00
C1012  C     0.52247   0.72482   0.04104   0.00000  Uiso   1.00
C1013  C     0.59806   0.84806   0.25000   0.00000  Uiso   1.00
C1014  C     0.90194   0.65194   0.75000   0.00000  Uiso   1.00
C1015  C     0.65194   0.59806   0.25000   0.00000  Uiso   1.00
C1016  C     0.84806   0.90194   0.75000   0.00000  Uiso   1.00
C1017  C     0.90194   0.65194   0.25000   0.00000  Uiso   1.00
C1018  C     0.59806   0.84806   0.75000   0.00000  Uiso   1.00
C1019  C     0.84806   0.90194   0.25000   0.00000  Uiso   1.00
C1020  C     0.52537   0.72846   0.08177   0.00000  Uiso   1.00
C1021  C     0.65194   0.59806   0.75000   0.00000  Uiso   1.00
C1022  C     0.59806   0.65194   0.75000   0.00000  Uiso   1.00
C1023  C     0.90194   0.84806   0.25000   0.00000  Uiso   1.00
C1024  C     0.65194   0.90194   0.75000   0.00000  Uiso   1.00
C1025  C     0.84806   0.59806   0.25000   0.00000  Uiso   1.00
C1026  C     0.90194   0.84806   0.75000   0.00000  Uiso   1.00
C1027  C     0.59806   0.65194   0.25000   0.00000  Uiso   1.00
C1028  C     0.84806   0.59806   0.75000   0.00000  Uiso   1.00
C1029  C     0.65194   0.90194   0.25000   0.00000  Uiso   1.00
C1030  C     0.50000   0.75001   0.47950   0.00000  Uiso   1.00
C1031  C     0.77159   0.97467   0.91824   0.00000  Uiso   1.00
C1032  C     0.50000   0.75001   0.52050   0.00000  Uiso   1.00
C1033  C     0.74996   0.99999   0.47950   0.00000  Uiso   1.00
C1034  C     0.74996   0.99999   0.52050   0.00000  Uiso   1.00
C1035  C     0.75000   0.50001   0.97950   0.00000  Uiso   1.00
C1036  C     0.75000   0.50001   0.02050   0.00000  Uiso   1.00
C1037  C     0.99999   0.75000   0.97950   0.00000  Uiso   1.00
C1038  C     0.99999   0.75000   0.02050   0.00000  Uiso   1.00
C1039  C     0.58497   0.69400   0.45985   0.00000  Uiso   1.00
C1040  C     0.91505   0.80604   0.54014   0.00000  Uiso   1.00
C1041  C     0.80543   0.91468   0.45984   0.00000  Uiso   1.00
C1042  C     0.72841   0.52533   0.08176   0.00000  Uiso   1.00
C1043  C     0.69444   0.58527   0.54015   0.00000  Uiso   1.00
C1044  C     0.91506   0.80605   0.45985   0.00000  Uiso   1.00
C1045  C     0.58495   0.69397   0.54015   0.00000  Uiso   1.00
C1046  C     0.69438   0.58524   0.45985   0.00000  Uiso   1.00
C1047  C     0.80539   0.91466   0.54015   0.00000  Uiso   1.00
C1048  C     0.83498   0.94402   0.95985   0.00000  Uiso   1.00
C1049  C     0.66503   0.55602   0.04014   0.00000  Uiso   1.00
C1050  C     0.55613   0.66512   0.95986   0.00000  Uiso   1.00
C1051  C     0.94382   0.83486   0.04015   0.00000  Uiso   1.00
C1052  C     0.66503   0.55600   0.95985   0.00000  Uiso   1.00
C1053  C     0.52535   0.72845   0.91824   0.00000  Uiso   1.00
C1054  C     0.83498   0.94403   0.04015   0.00000  Uiso   1.00
C1055  C     0.94383   0.83487   0.95986   0.00000  Uiso   1.00
C1056  C     0.55617   0.66514   0.04015   0.00000  Uiso   1.00
C1057  C     0.65996   0.89495   0.17884   0.00000  Uiso   1.00
C1058  C     0.84005   0.60504   0.82116   0.00000  Uiso   1.00
C1059  C     0.55006   0.60500   0.26078   0.00000  Uiso   1.00
C1060  C     0.94994   0.89500   0.73922   0.00000  Uiso   1.00
C1061  C     0.84000   0.60509   0.17885   0.00000  Uiso   1.00
C1062  C     0.65996   0.89495   0.82116   0.00000  Uiso   1.00
C1063  C     0.94994   0.89500   0.26079   0.00000  Uiso   1.00
C1064  C     0.97463   0.77154   0.08177   0.00000  Uiso   1.00
C1065  C     0.55006   0.60500   0.73922   0.00000  Uiso   1.00
C1066  C     0.60500   0.55006   0.73922   0.00000  Uiso   1.00
C1067  C     0.89500   0.94994   0.26078   0.00000  Uiso   1.00
C1068  C     0.60506   0.84004   0.82116   0.00000  Uiso   1.00
C1069  C     0.89491   0.66000   0.17885   0.00000  Uiso   1.00
C1070  C     0.89500   0.94994   0.73922   0.00000  Uiso   1.00
C1071  C     0.60500   0.55006   0.26078   0.00000  Uiso   1.00
C1072  C     0.89495   0.65996   0.82116   0.00000  Uiso   1.00
C1073  C     0.60506   0.84003   0.17884   0.00000  Uiso   1.00
C1074  C     0.90995   0.64496   0.67883   0.00000  Uiso   1.00
C1075  C     0.50000   0.75000   0.39816   0.00000  Uiso   1.00
C1076  C     0.59003   0.85506   0.32116   0.00000  Uiso   1.00
C1077  C     0.80006   0.85500   0.76078   0.00000  Uiso   1.00
C1078  C     0.69994   0.64500   0.23922   0.00000  Uiso   1.00
C1079  C     0.59004   0.85505   0.67884   0.00000  Uiso   1.00
C1080  C     0.91001   0.64491   0.32115   0.00000  Uiso   1.00
C1081  C     0.69994   0.64500   0.76078   0.00000  Uiso   1.00
C1082  C     0.80006   0.85500   0.23921   0.00000  Uiso   1.00
C1083  C     0.85500   0.80006   0.23921   0.00000  Uiso   1.00
C1084  C     0.64500   0.69994   0.76078   0.00000  Uiso   1.00
C1085  C     0.85509   0.59000   0.32115   0.00000  Uiso   1.00
C1086  C     0.50000   0.75000   0.60184   0.00000  Uiso   1.00
C1087  C     0.64495   0.90996   0.67884   0.00000  Uiso   1.00
C1088  C     0.64500   0.69994   0.23922   0.00000  Uiso   1.00
C1089  C     0.85500   0.80006   0.76078   0.00000  Uiso   1.00
C1090  C     0.64494   0.90997   0.32116   0.00000  Uiso   1.00
C1091  C     0.85503   0.59005   0.67883   0.00000  Uiso   1.00
C1092  C     0.96320   0.80595   0.39677   0.00000  Uiso   1.00
C1093  C     0.53680   0.69405   0.60323   0.00000  Uiso   1.00
C1094  C     0.69422   0.53708   0.39677   0.00000  Uiso   1.00
C1095  C     0.80573   0.96288   0.60319   0.00000  Uiso   1.00
C1096  C     0.53680   0.69406   0.39678   0.00000  Uiso   1.00
C1097  C     0.74998   0.50000   0.39816   0.00000  Uiso   1.00
C1098  C     0.96319   0.80594   0.60323   0.00000  Uiso   1.00
C1099  C     0.80575   0.96291   0.39681   0.00000  Uiso   1.00
C1100  C     0.69423   0.53710   0.60322   0.00000  Uiso   1.00
C1101  C     0.71319   0.55594   0.89677   0.00000  Uiso   1.00
C1102  C     0.78682   0.94407   0.10322   0.00000  Uiso   1.00
C1103  C     0.94401   0.78674   0.89676   0.00000  Uiso   1.00
C1104  C     0.55600   0.71328   0.10323   0.00000  Uiso   1.00
C1105  C     0.78682   0.94407   0.89678   0.00000  Uiso   1.00
C1106  C     0.71318   0.55594   0.10323   0.00000  Uiso   1.00
C1107  C     0.55598   0.71326   0.89677   0.00000  Uiso   1.00
C1108  C     0.52158   0.72467   0.58176   0.00000  Uiso   1.00
C1109  C     0.74999   0.50000   0.60184   0.00000  Uiso   1.00
C1110  C     0.94400   0.78672   0.10324   0.00000  Uiso   1.00
C1111  C     0.75000   0.50000   0.89816   0.00000  Uiso   1.00
C1112  C     0.75000   0.50000   0.10184   0.00000  Uiso   1.00
C1113  C     0.50000   0.75000   0.89816   0.00000  Uiso   1.00
C1114  C     0.50000   0.75000   0.10184   0.00000  Uiso   1.00
C1115  C     0.55346   0.70951   0.47966   0.00000  Uiso   1.00
C1116  C     0.94655   0.79051   0.52034   0.00000  Uiso   1.00
C1117  C     0.79013   0.94628   0.47966   0.00000  Uiso   1.00
C1118  C     0.70977   0.55367   0.52034   0.00000  Uiso   1.00
C1119  C     0.94655   0.79052   0.47966   0.00000  Uiso   1.00
C1120  C     0.72475   0.52171   0.41824   0.00000  Uiso   1.00
C1121  C     0.55346   0.70950   0.52034   0.00000  Uiso   1.00
C1122  C     0.70975   0.55366   0.47966   0.00000  Uiso   1.00
C1123  C     0.79012   0.94628   0.52034   0.00000  Uiso   1.00
C1124  C     0.80347   0.95952   0.97966   0.00000  Uiso   1.00
C1125  C     0.69654   0.54050   0.02034   0.00000  Uiso   1.00
C1126  C     0.54057   0.69660   0.97966   0.00000  Uiso   1.00
C1127  C     0.95940   0.80339   0.02034   0.00000  Uiso   1.00
C1128  C     0.69654   0.54050   0.97966   0.00000  Uiso   1.00
C1129  C     0.80347   0.95953   0.02034   0.00000  Uiso   1.00
C1130  C     0.95940   0.80339   0.97966   0.00000  Uiso   1.00
C1131  C     0.77519   0.97827   0.58175   0.00000  Uiso   1.00
C1132  C     0.54058   0.69661   0.02034   0.00000  Uiso   1.00
C1133  C     0.75000   0.50000   0.35575   0.00000  Uiso   1.00
C1134  C     0.75000   0.50000   0.64425   0.00000  Uiso   1.00
C1135  C     0.50000   0.75000   0.35575   0.00000  Uiso   1.00
C1136  C     0.50000   0.75000   0.64425   0.00000  Uiso   1.00
C1137  C     0.50000   0.75000   0.85575   0.00000  Uiso   1.00
C1138  C     0.50000   0.75000   0.14425   0.00000  Uiso   1.00
C1139  C     0.75000   0.50000   0.85575   0.00000  Uiso   1.00
C1140  C     0.75000   0.50000   0.14425   0.00000  Uiso   1.00
C1141  C     0.68005   0.56995   0.25000   0.00000  Uiso   1.00
C1142  C     0.52158   0.72467   0.41824   0.00000  Uiso   1.00
C1143  C     0.81995   0.93005   0.75000   0.00000  Uiso   1.00
C1144  C     0.93004   0.68004   0.25000   0.00000  Uiso   1.00
C1145  C     0.56996   0.81996   0.75000   0.00000  Uiso   1.00
C1146  C     0.81995   0.93005   0.25000   0.00000  Uiso   1.00
C1147  C     0.68005   0.56995   0.75000   0.00000  Uiso   1.00
C1148  C     0.56996   0.81996   0.25000   0.00000  Uiso   1.00
C1149  C     0.93004   0.68004   0.75000   0.00000  Uiso   1.00
C1150  C     0.68004   0.93004   0.75000   0.00000  Uiso   1.00
C1151  C     0.81996   0.56996   0.25000   0.00000  Uiso   1.00
C1152  C     0.93005   0.81995   0.75000   0.00000  Uiso   1.00
C1153  C     0.97842   0.77534   0.58176   0.00000  Uiso   1.00
C1154  C     0.56995   0.68005   0.25000   0.00000  Uiso   1.00
C1155  C     0.81996   0.56996   0.75000   0.00000  Uiso   1.00
C1156  C     0.68004   0.93004   0.25000   0.00000  Uiso   1.00
C1157  C     0.56995   0.68005   0.75000   0.00000  Uiso   1.00
C1158  C     0.93005   0.81995   0.25000   0.00000  Uiso   1.00
C1159  C     0.64177   0.88525   0.21481   0.00000  Uiso   1.00
C1160  C     0.85823   0.61475   0.78519   0.00000  Uiso   1.00
C1161  C     0.58801   0.61504   0.25466   0.00000  Uiso   1.00
C1162  C     0.91199   0.88496   0.74534   0.00000  Uiso   1.00
C1163  C     0.85821   0.61477   0.21481   0.00000  Uiso   1.00
C1164  C     0.77519   0.97828   0.41825   0.00000  Uiso   1.00
C1165  C     0.64177   0.88525   0.78519   0.00000  Uiso   1.00
C1166  C     0.91199   0.88496   0.25466   0.00000  Uiso   1.00
C1167  C     0.58801   0.61504   0.74534   0.00000  Uiso   1.00
C1168  C     0.61504   0.58801   0.74534   0.00000  Uiso   1.00
C1169  C     0.88496   0.91199   0.25466   0.00000  Uiso   1.00
C1170  C     0.61475   0.85823   0.78520   0.00000  Uiso   1.00
C1171  C     0.88523   0.64179   0.21481   0.00000  Uiso   1.00
C1172  C     0.88496   0.91199   0.74534   0.00000  Uiso   1.00
C1173  C     0.61504   0.58801   0.25466   0.00000  Uiso   1.00
C1174  C     0.88525   0.64177   0.78519   0.00000  Uiso   1.00
C1175  C     0.72477   0.52172   0.58176   0.00000  Uiso   1.00
C1176  C     0.61475   0.85822   0.21481   0.00000  Uiso   1.00
C1177  C     0.89177   0.63526   0.71480   0.00000  Uiso   1.00
C1178  C     0.60822   0.86476   0.28519   0.00000  Uiso   1.00
C1179  C     0.83801   0.86504   0.75466   0.00000  Uiso   1.00
C1180  C     0.66199   0.63496   0.24534   0.00000  Uiso   1.00
C1181  C     0.60823   0.86475   0.71481   0.00000  Uiso   1.00
C1182  C     0.89179   0.63523   0.28519   0.00000  Uiso   1.00
C1183  C     0.66199   0.63496   0.75466   0.00000  Uiso   1.00
C1184  C     0.83801   0.86504   0.24534   0.00000  Uiso   1.00
C1185  C     0.86504   0.83801   0.24534   0.00000  Uiso   1.00
C1186  C     0.72841   0.52533   0.91824   0.00000  Uiso   1.00
C1187  C     0.63496   0.66199   0.75466   0.00000  Uiso   1.00
C1188  C     0.86477   0.60821   0.28519   0.00000  Uiso   1.00
C1189  C     0.63525   0.89177   0.71481   0.00000  Uiso   1.00
C1190  C     0.63496   0.66199   0.24534   0.00000  Uiso   1.00
C1191  C     0.86504   0.83801   0.75466   0.00000  Uiso   1.00
C1192  C     0.63525   0.89178   0.28519   0.00000  Uiso   1.00
C1193  C     0.86474   0.60823   0.71481   0.00000  Uiso   1.00
C1194  C     0.52522   0.72757   0.45896   0.00000  Uiso   1.00
C1195  C     0.97479   0.77244   0.54104   0.00000  Uiso   1.00
C1196  C     0.77225   0.97465   0.45896   0.00000  Uiso   1.00
N1197  N     0.61020   0.68171   0.44441   0.00000  Uiso   1.00
N1198  N     0.63980   0.56832   0.05559   0.00000  Uiso   1.00
N1199  N     0.56846   0.63990   0.94441   0.00000  Uiso   1.00
N1200  N     0.93147   0.86007   0.05559   0.00000  Uiso   1.00
N1201  N     0.63979   0.56829   0.94440   0.00000  Uiso   1.00
N1202  N     0.86022   0.93174   0.05560   0.00000  Uiso   1.00
N1203  N     0.93149   0.86008   0.94441   0.00000  Uiso   1.00
N1204  N     0.56852   0.63993   0.05559   0.00000  Uiso   1.00
N1205  N     0.67448   0.90268   0.15021   0.00000  Uiso   1.00
N1206  N     0.82554   0.59730   0.84980   0.00000  Uiso   1.00
N1207  N     0.51982   0.59703   0.26567   0.00000  Uiso   1.00
N1208  N     0.88982   0.81834   0.55558   0.00000  Uiso   1.00
N1209  N     0.98018   0.90297   0.73433   0.00000  Uiso   1.00
N1210  N     0.82547   0.59737   0.15022   0.00000  Uiso   1.00
N1211  N     0.67447   0.90269   0.84980   0.00000  Uiso   1.00
N1212  N     0.98018   0.90297   0.26567   0.00000  Uiso   1.00
N1213  N     0.51982   0.59703   0.73433   0.00000  Uiso   1.00
N1214  N     0.59703   0.51982   0.73433   0.00000  Uiso   1.00
N1215  N     0.90297   0.98018   0.26567   0.00000  Uiso   1.00
N1216  N     0.59732   0.82552   0.84980   0.00000  Uiso   1.00
N1217  N     0.90262   0.67453   0.15022   0.00000  Uiso   1.00
N1218  N     0.90297   0.98018   0.73434   0.00000  Uiso   1.00
N1219  N     0.81755   0.88937   0.44438   0.00000  Uiso   1.00
N1220  N     0.59703   0.51982   0.26567   0.00000  Uiso   1.00
N1221  N     0.90269   0.67448   0.84980   0.00000  Uiso   1.00
N1222  N     0.59733   0.82551   0.15021   0.00000  Uiso   1.00
N1223  N     0.92445   0.65270   0.65020   0.00000  Uiso   1.00
N1224  N     0.57551   0.84733   0.34979   0.00000  Uiso   1.00
N1225  N     0.76982   0.84703   0.76567   0.00000  Uiso   1.00
N1226  N     0.73018   0.65297   0.23433   0.00000  Uiso   1.00
N1227  N     0.57553   0.84731   0.65021   0.00000  Uiso   1.00
N1228  N     0.92454   0.65263   0.34978   0.00000  Uiso   1.00
N1229  N     0.73018   0.65297   0.76567   0.00000  Uiso   1.00
N1230  N     0.68229   0.61057   0.55560   0.00000  Uiso   1.00
N1231  N     0.76982   0.84703   0.23432   0.00000  Uiso   1.00
N1232  N     0.84703   0.76982   0.23432   0.00000  Uiso   1.00
N1233  N     0.65297   0.73018   0.76567   0.00000  Uiso   1.00
N1234  N     0.84737   0.57548   0.34978   0.00000  Uiso   1.00
N1235  N     0.65268   0.92447   0.65021   0.00000  Uiso   1.00
N1236  N     0.65297   0.73018   0.23433   0.00000  Uiso   1.00
N1237  N     0.84703   0.76982   0.76567   0.00000  Uiso   1.00
N1238  N     0.65268   0.92448   0.34979   0.00000  Uiso   1.00
N1239  N     0.84729   0.57555   0.65020   0.00000  Uiso   1.00
N1240  N     0.95135   0.83029   0.37943   0.00000  Uiso   1.00
N1241  N     0.88983   0.81836   0.44440   0.00000  Uiso   1.00
N1242  N     0.54865   0.66971   0.62055   0.00000  Uiso   1.00
N1243  N     0.66993   0.54905   0.37944   0.00000  Uiso   1.00
N1244  N     0.83003   0.95089   0.62050   0.00000  Uiso   1.00
N1245  N     0.54866   0.66971   0.37945   0.00000  Uiso   1.00
N1246  N     0.95132   0.83028   0.62056   0.00000  Uiso   1.00
N1247  N     0.83005   0.95093   0.37950   0.00000  Uiso   1.00
N1248  N     0.66995   0.54909   0.62055   0.00000  Uiso   1.00
N1249  N     0.70133   0.58028   0.87944   0.00000  Uiso   1.00
N1250  N     0.79869   0.91973   0.12055   0.00000  Uiso   1.00
N1251  N     0.91966   0.79856   0.87942   0.00000  Uiso   1.00
N1252  N     0.61018   0.68166   0.55559   0.00000  Uiso   1.00
N1253  N     0.58036   0.70146   0.12057   0.00000  Uiso   1.00
N1254  N     0.79868   0.91972   0.87945   0.00000  Uiso   1.00
N1255  N     0.70132   0.58028   0.12056   0.00000  Uiso   1.00
N1256  N     0.58033   0.70143   0.87944   0.00000  Uiso   1.00
N1257  N     0.91965   0.79854   0.12057   0.00000  Uiso   1.00
N1258  N     0.68220   0.61052   0.44440   0.00000  Uiso   1.00
N1259  N     0.81749   0.88934   0.55561   0.00000  Uiso   1.00
N1260  N     0.86021   0.93173   0.94440   0.00000  Uiso   1.00
O1261  O     0.75000   0.50000   0.25000   0.00000  Uiso   1.00
O1262  O     0.75000   0.96964   0.66245   0.00000  Uiso   1.00
O1263  O     0.96963   0.75000   0.33755   0.00000  Uiso   1.00
O1264  O     0.53036   0.75000   0.66245   0.00000  Uiso   1.00
O1265  O     0.50000   0.71964   0.83755   0.00000  Uiso   1.00
O1266  O     0.50000   0.78037   0.16245   0.00000  Uiso   1.00
O1267  O     0.78036   0.50000   0.83755   0.00000  Uiso   1.00
O1268  O     0.71963   0.50000   0.16245   0.00000  Uiso   1.00
O1269  O     0.50000   0.78037   0.83755   0.00000  Uiso   1.00
O1270  O     0.50000   0.71964   0.16245   0.00000  Uiso   1.00
O1271  O     0.71963   0.50000   0.83755   0.00000  Uiso   1.00
O1272  O     0.75000   0.50000   0.75000   0.00000  Uiso   1.00
O1273  O     0.78036   0.50000   0.16245   0.00000  Uiso   1.00
O1274  O     0.70724   0.57308   0.27302   0.00000  Uiso   1.00
O1275  O     0.79275   0.92693   0.72698   0.00000  Uiso   1.00
O1276  O     0.92692   0.70725   0.27302   0.00000  Uiso   1.00
O1277  O     0.57307   0.79276   0.72698   0.00000  Uiso   1.00
O1278  O     0.79275   0.92693   0.27302   0.00000  Uiso   1.00
O1279  O     0.70724   0.57308   0.72698   0.00000  Uiso   1.00
O1280  O     0.57307   0.79276   0.27302   0.00000  Uiso   1.00
O1281  O     0.92692   0.70725   0.72698   0.00000  Uiso   1.00
O1282  O     0.70724   0.92693   0.72698   0.00000  Uiso   1.00
O1283  O     0.50000   0.75000   0.25000   0.00000  Uiso   1.00
O1284  O     0.79275   0.57308   0.27302   0.00000  Uiso   1.00
O1285  O     0.92692   0.79276   0.72698   0.00000  Uiso   1.00
O1286  O     0.57307   0.70725   0.27302   0.00000  Uiso   1.00
O1287  O     0.79275   0.57308   0.72698   0.00000  Uiso   1.00
O1288  O     0.70724   0.92693   0.27302   0.00000  Uiso   1.00
O1289  O     0.57307   0.70725   0.72698   0.00000  Uiso   1.00
O1290  O     0.92692   0.79276   0.27302   0.00000  Uiso   1.00
O1291  O     0.95724   0.82308   0.77302   0.00000  Uiso   1.00
O1292  O     0.54275   0.67693   0.22698   0.00000  Uiso   1.00
O1293  O     0.67692   0.95725   0.77302   0.00000  Uiso   1.00
O1294  O     0.50000   0.75000   0.75000   0.00000  Uiso   1.00
O1295  O     0.82307   0.54276   0.22698   0.00000  Uiso   1.00
O1296  O     0.54275   0.67693   0.77302   0.00000  Uiso   1.00
O1297  O     0.95724   0.82308   0.22698   0.00000  Uiso   1.00
O1298  O     0.82307   0.54276   0.77302   0.00000  Uiso   1.00
O1299  O     0.67692   0.95725   0.22698   0.00000  Uiso   1.00
O1300  O     0.95724   0.67693   0.22698   0.00000  Uiso   1.00
O1301  O     0.54275   0.82308   0.77302   0.00000  Uiso   1.00
O1302  O     0.67692   0.54276   0.22698   0.00000  Uiso   1.00
O1303  O     0.82307   0.95725   0.77302   0.00000  Uiso   1.00
O1304  O     0.54275   0.82308   0.22698   0.00000  Uiso   1.00
O1305  O     0.75000   0.96964   0.33755   0.00000  Uiso   1.00
O1306  O     0.95724   0.67693   0.77302   0.00000  Uiso   1.00
O1307  O     0.82307   0.95725   0.22698   0.00000  Uiso   1.00
O1308  O     0.67692   0.54276   0.77302   0.00000  Uiso   1.00
O1309  O     0.75000   0.53037   0.66245   0.00000  Uiso   1.00
O1310  O     0.53036   0.75000   0.33755   0.00000  Uiso   1.00
O1311  O     0.96963   0.75000   0.66245   0.00000  Uiso   1.00
O1312  O     0.75000   0.53037   0.33755   0.00000  Uiso   1.00
Zn1313 Zn    0.70659   0.50000   0.21735   0.00000  Uiso   1.00
Zn1314 Zn    0.54340   0.75000   0.28265   0.00000  Uiso   1.00
Zn1315 Zn    0.75000   0.95660   0.71735   0.00000  Uiso   1.00
Zn1316 Zn    0.75000   0.54341   0.28265   0.00000  Uiso   1.00
Zn1317 Zn    0.54340   0.75000   0.71735   0.00000  Uiso   1.00
Zn1318 Zn    0.95659   0.75000   0.28265   0.00000  Uiso   1.00
Zn1319 Zn    0.75000   0.54341   0.71735   0.00000  Uiso   1.00
Zn1320 Zn    0.75000   0.95660   0.28265   0.00000  Uiso   1.00
Zn1321 Zn    0.79340   0.50000   0.78265   0.00000  Uiso   1.00
Zn1322 Zn    0.50000   0.70660   0.21735   0.00000  Uiso   1.00
Zn1323 Zn    0.50000   0.79341   0.78265   0.00000  Uiso   1.00
Zn1324 Zn    0.79340   0.50000   0.21735   0.00000  Uiso   1.00
Zn1325 Zn    0.70659   0.50000   0.78265   0.00000  Uiso   1.00
Zn1326 Zn    0.50000   0.79341   0.21735   0.00000  Uiso   1.00
Zn1327 Zn    0.50000   0.70660   0.78265   0.00000  Uiso   1.00
Zn1328 Zn    0.95659   0.75000   0.71735   0.00000  Uiso   1.00
loop_
_geom_bond_atom_site_label_1
_geom_bond_atom_site_label_2
_geom_bond_distance
_geom_bond_site_symmetry_2
_ccdc_geom_bond_type
C1     C4      1.416   .     A
C1     C96     1.454   .     S
C1     C411    1.402   .     S
C2     C14     1.416   .     A
C2     C106    1.454   .     S
C2     C780    1.402   .     S
C3     C179    1.416   .     A
C3     C122    1.420   .     A
C3     C702    1.424   1_545 S
C4     C123    1.420   .     A
C4     C366    1.424   .     S
C5     C36     1.424   .     A
C5     C125    1.420   .     A
C5     C112    1.416   .     A
C6     C126    1.420   .     A
C6     C124    1.416   .     A
C6     C701    1.424   1_545 S
C7     C127    1.420   .     A
C7     C135    1.416   .     A
C7     C38     1.424   .     A
C8     C35     1.416   .     A
C8     C128    1.420   .     A
C8     C703    1.424   .     S
C9     C46     1.416   .     A
C9     C40     1.424   .     A
C9     C129    1.420   .     A
C10    C130    1.420   .     A
C10    C57     1.416   .     A
C10    C373    1.424   1_455 S
C11    C68     1.416   .     A
C11    C42     1.424   .     A
C11    C131    1.420   .     A
C12    C132    1.420   .     A
C12    C39     1.424   .     A
C12    C190    1.416   .     A
C13    C449    1.402   .     A
C13    C107    1.454   .     S
C13    C15     1.416   .     A
C14    C133    1.420   .     A
C14    C704    1.424   .     S
C15    C134    1.420   .     A
C15    C41     1.424   .     A
C16    C136    1.420   .     A
C16    C24     1.416   .     A
C16    C374    1.424   1_455 S
C17    C182    1.410   .     A
C17    C152    1.456   .     S
C17    C180    1.410   .     A
C18    C181    1.410   .     A
C18    C178    1.410   .     A
C18    C153    1.456   .     S
C19    C177    1.410   .     A
C19    C145    1.455   .     S
C19    C184    1.410   .     A
C20    C183    1.410   .     A
C20    C176    1.410   .     A
C20    C147    1.455   .     S
C21    C186    1.410   .     A
C21    C175    1.410   .     A
C21    C148    1.456   .     S
C22    C149    1.456   .     S
C22    C174    1.410   .     A
C22    C185    1.410   .     A
C23    C188    1.410   .     A
C23    C150    1.455   .     S
C23    C173    1.410   .     A
C24    C108    1.454   .     S
C24    C118    1.402   .     S
C25    C187    1.410   .     A
C25    C151    1.455   .     S
C25    C172    1.410   .     A
C26    C191    1.410   .     A
C26    C161    1.455   .     S
C26    C171    1.410   .     A
C27    C162    1.455   .     S
C27    C170    1.410   .     A
C27    C189    1.410   .     A
C28    C169    1.410   .     A
C28    C154    1.456   .     S
C28    C193    1.410   .     A
C29    C155    1.456   .     S
C29    C167    1.410   .     A
C29    C192    1.410   .     A
C30    C156    1.455   .     S
C30    C195    1.410   .     A
C30    C166    1.410   .     A
C31    C165    1.410   .     A
C31    C158    1.455   .     S
C31    C194    1.410   .     A
C32    C164    1.410   .     A
C32    C159    1.456   .     S
C32    C197    1.410   .     A
C33    C163    1.410   .     A
C33    C196    1.410   .     A
C33    C160    1.456   .     S
C34    C198    1.424   .     A
C34    C36     1.416   .     A
C34    C336    1.424   1_455 S
C35    C109    1.454   .     S
C35    C779    1.402   .     S
C36    C531    1.424   1_455 S
C37    C38     1.415   .     A
C37    C200    1.424   .     A
C37    C670    1.424   .     S
C38    C667    1.424   .     S
C39    C672    1.424   1_545 S
C39    C40     1.416   1_556 S
C40    C678    1.424   1_545 S
C40    C39     1.416   1_554 S
C41    C342    1.424   .     S
C41    C42     1.416   1_556 S
C42    C348    1.424   .     S
C42    C41     1.416   1_554 S
C43    N201    1.158   .     T
C43    C119    1.456   .     S
C44    C120    1.456   .     S
C44    N212    1.158   .     T
C45    C121    1.456   .     S
C45    N223    1.158   .     T
C46    C110    1.454   .     S
C46    C116    1.402   .     A
C47    N234    1.158   .     T
C47    C122    1.456   .     S
C48    C123    1.456   .     S
C48    N245    1.158   .     T
C49    N256    1.158   .     T
C49    C125    1.456   .     S
C50    N262    1.158   .     T
C50    C126    1.456   .     S
C51    C127    1.456   .     S
C51    N263    1.158   .     T
C52    C128    1.456   .     S
C52    N264    1.158   .     T
C53    C129    1.456   .     S
C53    N202    1.158   .     T
C54    N203    1.158   .     T
C54    C130    1.456   .     S
C55    C131    1.456   .     S
C55    N204    1.158   .     T
C56    N205    1.158   .     T
C56    C132    1.456   .     S
C57    C111    1.454   .     S
C57    C117    1.402   .     S
C58    N206    1.158   .     T
C58    C133    1.456   .     S
C59    N207    1.158   .     T
C59    C134    1.456   .     S
C60    N208    1.158   .     T
C60    C136    1.456   .     S
C61    C163    1.453   .     S
C61    N209    1.157   .     T
C62    N210    1.157   .     T
C62    C164    1.453   .     S
C63    N211    1.157   .     T
C63    C165    1.453   .     S
C64    N213    1.157   .     T
C64    C166    1.453   .     S
C65    N214    1.157   .     T
C65    C167    1.453   .     S
C66    N215    1.157   .     T
C66    C169    1.453   .     S
C67    N216    1.157   .     T
C67    C170    1.453   .     S
C68    C450    1.402   .     A
C68    C114    1.454   .     S
C69    N217    1.157   .     T
C69    C171    1.453   .     S
C70    N218    1.157   .     T
C70    C172    1.453   .     S
C71    N219    1.157   .     T
C71    C173    1.453   .     S
C72    N220    1.157   .     T
C72    C174    1.453   .     S
C73    C175    1.453   .     S
C73    N221    1.157   .     T
C74    C176    1.453   .     S
C74    N222    1.157   .     T
C75    C177    1.453   .     S
C75    N224    1.157   .     T
C76    N225    1.157   .     T
C76    C178    1.453   .     S
C77    C180    1.453   .     S
C77    N226    1.157   .     T
C78    C181    1.453   .     S
C78    N227    1.157   .     T
C79    C139    1.464   .     S
C79    C146    1.402   .     A
C79    C333    1.402   1_455 S
C80    C182    1.453   .     S
C80    N228    1.158   .     T
C81    N229    1.157   .     T
C81    C183    1.453   .     S
C82    C184    1.453   .     S
C82    N230    1.157   .     T
C83    N231    1.157   .     T
C83    C185    1.453   .     S
C84    N232    1.157   .     T
C84    C186    1.453   .     S
C85    N233    1.157   .     T
C85    C187    1.453   .     S
C86    C188    1.453   .     S
C86    N235    1.157   .     T
C87    N236    1.157   .     T
C87    C189    1.453   .     S
C88    C191    1.453   .     S
C88    N237    1.157   .     T
C89    N238    1.157   .     T
C89    C192    1.453   .     S
C90    C140    1.464   .     S
C90    C489    1.402   1_455 A
C90    C112    1.402   .     S
C91    C193    1.453   .     S
C91    N239    1.157   .     T
C92    C194    1.453   .     S
C92    N240    1.157   .     T
C93    N241    1.157   .     T
C93    C195    1.453   .     S
C94    C196    1.453   .     S
C94    N242    1.157   .     T
C95    C197    1.453   .     S
C95    N243    1.157   .     T
C96    N244    1.158   .     T
C97    C112    1.454   .     S
C97    N246    1.158   .     T
C98    C124    1.454   .     S
C98    N247    1.158   .     T
C99    C135    1.454   .     S
C99    N248    1.158   .     T
C100   N249    1.158   .     T
C100   C146    1.454   .     S
C101   C832    1.402   1_545 A
C101   C124    1.402   .     S
C101   C137    1.464   .     S
C102   C157    1.454   .     S
C102   N250    1.158   .     T
C103   N251    1.158   .     T
C103   C168    1.454   .     S
C104   N252    1.158   .     T
C104   C179    1.454   .     S
C105   N253    1.158   .     T
C105   C190    1.454   .     S
C106   N254    1.158   .     T
C107   N255    1.158   .     T
C108   N257    1.158   .     T
C109   N258    1.158   .     T
C110   N259    1.158   .     T
C111   N260    1.158   .     T
C113   C799    1.402   1_545 A
C113   C138    1.464   .     S
C113   C179    1.402   .     S
C114   N261    1.158   .     T
C115   C190    1.402   .     A
C115   C143    1.464   .     S
C115   C699    1.402   1_545 S
C116   C144    1.464   .     S
C116   C666    1.402   1_545 S
C117   C141    1.464   .     S
C117   C345    1.402   1_455 A
C118   C400    1.402   1_455 A
C118   C142    1.464   .     S
C119   C198    1.420   .     A
C119   C125    1.404   .     A
C120   C199    1.420   .     A
C120   C123    1.404   .     A
C121   C127    1.404   .     A
C121   C200    1.420   .     A
C122   C126    1.404   .     A
C128   C133    1.404   1_556 S
C129   C132    1.404   1_554 S
C130   C136    1.404   1_556 S
C131   C134    1.404   1_554 S
C132   C129    1.404   1_556 S
C133   C128    1.404   1_554 S
C134   C131    1.404   1_556 S
C135   C777    1.402   .     A
C136   C130    1.404   1_554 S
C137   O316    1.277   .     A
C137   O973    1.277   1_545 S
C138   O930    1.277   1_545 A
C138   O313    1.277   .     S
C139   O314    1.277   .     A
C139   O599    1.277   1_455 S
C140   O647    1.277   1_455 A
C140   O268    1.277   .     S
C141   O273    1.277   .     A
C141   O269    1.277   .     A
C142   O270    1.277   .     A
C142   O274    1.277   .     A
C143   O271    1.277   .     A
C143   O275    1.277   .     A
C144   O277    1.277   .     A
C144   O272    1.277   .     A
C145   O306    1.279   .     A
C145   O278    1.279   .     A
C146   C198    1.416   .     A
C147   O307    1.279   .     A
C147   O279    1.279   .     A
C148   O304    1.279   .     A
C148   O280    1.279   .     A
C149   O281    1.279   .     A
C149   O305    1.279   .     A
C150   O311    1.279   .     A
C150   O282    1.279   .     A
C151   O312    1.279   .     A
C151   O283    1.279   .     A
C152   O284    1.279   .     A
C152   O308    1.279   .     A
C153   O285    1.279   .     A
C153   O310    1.279   .     A
C154   O297    1.279   .     A
C154   O286    1.279   .     A
C155   O288    1.279   .     A
C155   O299    1.279   .     A
C156   O295    1.279   .     A
C156   O289    1.279   .     A
C157   C199    1.416   .     A
C157   C422    1.402   .     A
C158   O290    1.279   .     A
C158   O296    1.279   .     A
C159   O302    1.279   .     A
C159   O291    1.279   .     A
C160   O303    1.279   .     A
C160   O292    1.279   .     A
C161   O300    1.279   .     A
C161   O293    1.279   .     A
C162   O301    1.279   .     A
C162   O294    1.279   .     A
C163   C180    1.400   .     A
C164   C178    1.400   .     A
C165   C177    1.399   .     A
C166   C176    1.399   .     A
C167   C175    1.400   .     A
C168   C765    1.402   .     A
C168   C200    1.416   .     A
C169   C174    1.400   .     A
C170   C173    1.399   .     A
C171   C172    1.399   .     A
C181   C197    1.400   .     A
C182   C196    1.400   .     A
C183   C195    1.399   .     A
C184   C194    1.399   .     A
C185   C193    1.400   .     A
C186   C192    1.400   .     A
C187   C191    1.399   .     A
C188   C189    1.399   .     A
C199   C368    1.424   .     S
O265   Zn320   1.948   .     S
O265   Zn328   1.948   .     S
O265   Zn317   1.948   .     S
O265   Zn988   1.948   1_545 S
O266   Zn319   1.954   .     S
O266   C802    1.277   .     A
O267   Zn322   1.954   .     S
O267   C471    1.277   .     S
O268   Zn321   1.954   .     S
O269   Zn331   1.954   .     S
O270   Zn330   1.954   .     S
O271   Zn325   1.954   .     S
O272   Zn317   1.954   .     S
O273   Zn327   1.954   .     S
O274   Zn326   1.954   .     S
O275   Zn329   1.954   .     S
O276   Zn323   1.948   .     S
O276   Zn325   1.948   .     S
O276   Zn329   1.948   .     S
O276   Zn983   1.948   1_545 S
O277   Zn328   1.954   .     S
O278   Zn320   1.934   .     S
O279   Zn319   1.934   .     S
O280   Zn322   1.935   .     S
O281   Zn321   1.935   .     S
O282   Zn324   1.934   .     S
O283   Zn323   1.934   .     S
O284   Zn318   1.935   .     S
O285   Zn332   1.935   .     S
O286   Zn319   1.935   .     S
O287   Zn326   1.948   .     S
O287   Zn318   1.948   .     S
O287   Zn330   1.948   .     S
O287   Zn654   1.948   1_455 S
O288   Zn320   1.935   .     S
O289   Zn332   1.934   .     S
O290   Zn318   1.934   .     S
O291   Zn323   1.935   .     S
O292   Zn324   1.935   .     S
O293   Zn321   1.934   .     S
O294   Zn322   1.934   .     S
O295   Zn659   1.934   .     S
O296   Zn326   1.934   .     S
O297   Zn993   1.935   .     S
O298   Zn321   1.948   .     S
O298   Zn327   1.948   .     S
O298   Zn331   1.948   .     S
O298   Zn664   1.948   1_455 S
O299   Zn328   1.935   .     S
O300   Zn331   1.934   .     S
O301   Zn662   1.934   .     S
O302   Zn325   1.935   .     S
O303   Zn981   1.935   .     S
O304   Zn658   1.935   .     S
O305   Zn327   1.935   .     S
O306   Zn317   1.934   .     S
O307   Zn989   1.934   .     S
O308   Zn330   1.935   .     S
O309   Zn324   1.954   .     S
O309   C801    1.277   .     S
O310   Zn663   1.935   .     S
O311   Zn992   1.934   .     S
O312   Zn329   1.934   .     S
O313   Zn323   1.954   .     S
O314   Zn318   1.954   .     S
O315   C472    1.277   .     A
O315   Zn332   1.954   .     S
O316   Zn320   1.954   .     S
Zn317  O967    1.935   1_545 S
Zn319  O940    1.948   .     S
Zn322  O619    1.948   .     S
Zn324  O929    1.948   .     S
Zn325  O971    1.934   1_545 S
Zn326  O636    1.935   1_455 S
Zn327  O627    1.934   1_455 S
Zn328  O975    1.934   1_545 S
Zn329  O961    1.935   1_545 S
Zn330  O633    1.934   1_455 S
Zn331  O642    1.935   1_455 S
Zn332  O630    1.948   .     S
C333   C336    1.416   .     A
C333   C428    1.454   .     S
C333   C79     1.402   1_655 S
C334   C346    1.416   .     A
C334   C438    1.454   .     S
C334   C1112   1.402   .     S
C335   C511    1.416   .     A
C335   C454    1.420   .     A
C335   C1034   1.424   1_545 S
C336   C455    1.420   .     A
C336   C34     1.424   1_655 S
C337   C368    1.424   .     A
C337   C457    1.420   .     A
C337   C444    1.416   .     A
C338   C458    1.420   .     A
C338   C456    1.416   .     A
C338   C1033   1.424   1_545 S
C339   C459    1.420   .     A
C339   C467    1.416   .     A
C339   C370    1.424   .     A
C340   C367    1.416   .     A
C340   C460    1.420   .     A
C340   C1035   1.424   .     S
C341   C378    1.416   .     A
C341   C372    1.424   .     A
C341   C461    1.420   .     A
C342   C462    1.420   .     A
C342   C389    1.416   .     A
C343   C400    1.416   .     A
C343   C374    1.424   .     A
C343   C463    1.420   .     A
C344   C464    1.420   .     A
C344   C371    1.424   .     A
C344   C522    1.416   .     A
C345   C117    1.402   1_655 A
C345   C439    1.454   .     S
C345   C347    1.416   .     A
C346   C465    1.420   .     A
C346   C1036   1.424   .     S
C347   C466    1.420   .     A
C347   C373    1.424   .     A
C348   C468    1.420   .     A
C348   C356    1.416   .     A
C349   C514    1.410   .     A
C349   C484    1.456   .     S
C349   C512    1.410   .     A
C350   C513    1.410   .     A
C350   C510    1.410   .     A
C350   C485    1.456   .     S
C351   C509    1.410   .     A
C351   C477    1.455   .     S
C351   C516    1.410   .     A
C352   C515    1.410   .     A
C352   C508    1.410   .     A
C352   C479    1.455   .     S
C353   C518    1.410   .     A
C353   C507    1.410   .     A
C353   C480    1.456   .     S
C354   C481    1.456   .     S
C354   C506    1.410   .     A
C354   C517    1.410   .     A
C355   C520    1.410   .     A
C355   C482    1.455   .     S
C355   C505    1.410   .     A
C356   C440    1.454   .     S
C356   C450    1.402   .     S
C357   C519    1.410   .     A
C357   C483    1.455   .     S
C357   C504    1.410   .     A
C358   C523    1.410   .     A
C358   C493    1.455   .     S
C358   C503    1.410   .     A
C359   C494    1.455   .     S
C359   C502    1.410   .     A
C359   C521    1.410   .     A
C360   C501    1.410   .     A
C360   C486    1.456   .     S
C360   C525    1.410   .     A
C361   C487    1.456   .     S
C361   C499    1.410   .     A
C361   C524    1.410   .     A
C362   C488    1.455   .     S
C362   C527    1.410   .     A
C362   C498    1.410   .     A
C363   C497    1.410   .     A
C363   C490    1.455   .     S
C363   C526    1.410   .     A
C364   C496    1.410   .     A
C364   C491    1.456   .     S
C364   C529    1.410   .     A
C365   C495    1.410   .     A
C365   C528    1.410   .     A
C365   C492    1.456   .     S
C366   C530    1.424   .     A
C366   C368    1.416   .     A
C367   C441    1.454   .     S
C367   C1111   1.402   .     S
C369   C370    1.415   .     A
C369   C532    1.424   .     A
C369   C1002   1.424   .     S
C370   C999    1.424   .     S
C371   C1004   1.424   1_545 S
C371   C372    1.416   1_556 S
C372   C1010   1.424   1_545 S
C372   C371    1.416   1_554 S
C373   C10     1.424   1_655 S
C373   C374    1.416   1_556 S
C374   C16     1.424   1_655 S
C374   C373    1.416   1_554 S
C375   N533    1.158   .     T
C375   C451    1.456   .     S
C376   C452    1.456   .     S
C376   N544    1.158   .     T
C377   C453    1.456   .     S
C377   N555    1.158   .     T
C378   C442    1.454   .     S
C378   C448    1.402   .     A
C379   N566    1.158   .     T
C379   C454    1.456   .     S
C380   C455    1.456   .     S
C380   N577    1.158   .     T
C381   N588    1.158   .     T
C381   C457    1.456   .     S
C382   N594    1.158   .     T
C382   C458    1.456   .     S
C383   C459    1.456   .     S
C383   N595    1.158   .     T
C384   C460    1.456   .     S
C384   N596    1.158   .     T
C385   C461    1.456   .     S
C385   N534    1.158   .     T
C386   N535    1.158   .     T
C386   C462    1.456   .     S
C387   C463    1.456   .     S
C387   N536    1.158   .     T
C388   N537    1.158   .     T
C388   C464    1.456   .     S
C389   C443    1.454   .     S
C389   C449    1.402   .     S
C390   N538    1.158   .     T
C390   C465    1.456   .     S
C391   N539    1.158   .     T
C391   C466    1.456   .     S
C392   N540    1.158   .     T
C392   C468    1.456   .     S
C393   C495    1.453   .     S
C393   N541    1.157   .     T
C394   N542    1.157   .     T
C394   C496    1.453   .     S
C395   N543    1.157   .     T
C395   C497    1.453   .     S
C396   N545    1.157   .     T
C396   C498    1.453   .     S
C397   N546    1.157   .     T
C397   C499    1.453   .     S
C398   N547    1.157   .     T
C398   C501    1.453   .     S
C399   N548    1.157   .     T
C399   C502    1.453   .     S
C400   C118    1.402   1_655 A
C400   C446    1.454   .     S
C401   N549    1.157   .     T
C401   C503    1.453   .     S
C402   N550    1.157   .     T
C402   C504    1.453   .     S
C403   N551    1.157   .     T
C403   C505    1.453   .     S
C404   N552    1.157   .     T
C404   C506    1.453   .     S
C405   C507    1.453   .     S
C405   N553    1.157   .     T
C406   C508    1.453   .     S
C406   N554    1.157   .     T
C407   C509    1.453   .     S
C407   N556    1.157   .     T
C408   N557    1.157   .     T
C408   C510    1.453   .     S
C409   C512    1.453   .     S
C409   N558    1.157   .     T
C410   C513    1.453   .     S
C410   N559    1.157   .     T
C411   C471    1.464   .     S
C411   C478    1.402   .     A
C412   C514    1.453   .     S
C412   N560    1.158   .     T
C413   N561    1.157   .     T
C413   C515    1.453   .     S
C414   C516    1.453   .     S
C414   N562    1.157   .     T
C415   N563    1.157   .     T
C415   C517    1.453   .     S
C416   N564    1.157   .     T
C416   C518    1.453   .     S
C417   N565    1.157   .     T
C417   C519    1.453   .     S
C418   C520    1.453   .     S
C418   N567    1.157   .     T
C419   N568    1.157   .     T
C419   C521    1.453   .     S
C420   C523    1.453   .     S
C420   N569    1.157   .     T
C421   N570    1.157   .     T
C421   C524    1.453   .     S
C422   C472    1.464   .     S
C422   C444    1.402   .     S
C423   C525    1.453   .     S
C423   N571    1.157   .     T
C424   C526    1.453   .     S
C424   N572    1.157   .     T
C425   N573    1.157   .     T
C425   C527    1.453   .     S
C426   C528    1.453   .     S
C426   N574    1.157   .     T
C427   C529    1.453   .     S
C427   N575    1.157   .     T
C428   N576    1.158   .     T
C429   C444    1.454   .     S
C429   N578    1.158   .     T
C430   C456    1.454   .     S
C430   N579    1.158   .     T
C431   C467    1.454   .     S
C431   N580    1.158   .     T
C432   N581    1.158   .     T
C432   C478    1.454   .     S
C433   C1164   1.402   1_545 A
C433   C456    1.402   .     S
C433   C469    1.464   .     S
C434   C489    1.454   .     S
C434   N582    1.158   .     T
C435   N583    1.158   .     T
C435   C500    1.454   .     S
C436   N584    1.158   .     T
C436   C511    1.454   .     S
C437   N585    1.158   .     T
C437   C522    1.454   .     S
C438   N586    1.158   .     T
C439   N587    1.158   .     T
C440   N589    1.158   .     T
C441   N590    1.158   .     T
C442   N591    1.158   .     T
C443   N592    1.158   .     T
C445   C1131   1.402   1_545 A
C445   C470    1.464   .     S
C445   C511    1.402   .     S
C446   N593    1.158   .     T
C447   C522    1.402   .     A
C447   C475    1.464   .     S
C447   C1031   1.402   1_545 S
C448   C476    1.464   .     S
C448   C998    1.402   1_545 S
C449   C473    1.464   .     S
C450   C474    1.464   .     S
C451   C530    1.420   .     A
C451   C457    1.404   .     A
C452   C531    1.420   .     A
C452   C455    1.404   .     A
C453   C459    1.404   .     A
C453   C532    1.420   .     A
C454   C458    1.404   .     A
C460   C465    1.404   1_556 S
C461   C464    1.404   1_554 S
C462   C468    1.404   1_556 S
C463   C466    1.404   1_554 S
C464   C461    1.404   1_556 S
C465   C460    1.404   1_554 S
C466   C463    1.404   1_556 S
C467   C1109   1.402   .     A
C468   C462    1.404   1_554 S
C469   O648    1.277   .     A
C469   O1305   1.277   1_545 S
C470   O1262   1.277   1_545 A
C470   O645    1.277   .     S
C471   O646    1.277   .     A
C472   O600    1.277   .     S
C473   O605    1.277   .     A
C473   O601    1.277   .     A
C474   O602    1.277   .     A
C474   O606    1.277   .     A
C475   O603    1.277   .     A
C475   O607    1.277   .     A
C476   O609    1.277   .     A
C476   O604    1.277   .     A
C477   O638    1.279   .     A
C477   O610    1.279   .     A
C478   C530    1.416   .     A
C479   O639    1.279   .     A
C479   O611    1.279   .     A
C480   O636    1.279   .     A
C480   O612    1.279   .     A
C481   O613    1.279   .     A
C481   O637    1.279   .     A
C482   O643    1.279   .     A
C482   O614    1.279   .     A
C483   O644    1.279   .     A
C483   O615    1.279   .     A
C484   O616    1.279   .     A
C484   O640    1.279   .     A
C485   O617    1.279   .     A
C485   O642    1.279   .     A
C486   O629    1.279   .     A
C486   O618    1.279   .     A
C487   O620    1.279   .     A
C487   O631    1.279   .     A
C488   O627    1.279   .     A
C488   O621    1.279   .     A
C489   C531    1.416   .     A
C489   C90     1.402   1_655 A
C490   O622    1.279   .     A
C490   O628    1.279   .     A
C491   O634    1.279   .     A
C491   O623    1.279   .     A
C492   O635    1.279   .     A
C492   O624    1.279   .     A
C493   O632    1.279   .     A
C493   O625    1.279   .     A
C494   O633    1.279   .     A
C494   O626    1.279   .     A
C495   C512    1.400   .     A
C496   C510    1.400   .     A
C497   C509    1.399   .     A
C498   C508    1.399   .     A
C499   C507    1.400   .     A
C500   C1097   1.402   .     A
C500   C532    1.416   .     A
C501   C506    1.400   .     A
C502   C505    1.399   .     A
C503   C504    1.399   .     A
C513   C529    1.400   .     A
C514   C528    1.400   .     A
C515   C527    1.399   .     A
C516   C526    1.399   .     A
C517   C525    1.400   .     A
C518   C524    1.400   .     A
C519   C523    1.399   .     A
C520   C521    1.399   .     A
C531   C36     1.424   1_655 S
O597   Zn652   1.948   .     S
O597   Zn660   1.948   .     S
O597   Zn649   1.948   .     S
O597   Zn1320  1.948   1_545 S
O598   Zn651   1.954   .     S
O598   C1134   1.277   .     A
O599   Zn654   1.954   .     S
O599   C139    1.277   1_655 S
O600   Zn653   1.954   .     S
O601   Zn663   1.954   .     S
O602   Zn662   1.954   .     S
O603   Zn657   1.954   .     S
O604   Zn649   1.954   .     S
O605   Zn659   1.954   .     S
O606   Zn658   1.954   .     S
O607   Zn661   1.954   .     S
O608   Zn655   1.948   .     S
O608   Zn657   1.948   .     S
O608   Zn661   1.948   .     S
O608   Zn1315  1.948   1_545 S
O609   Zn660   1.954   .     S
O610   Zn652   1.934   .     S
O611   Zn651   1.934   .     S
O612   Zn654   1.935   .     S
O613   Zn653   1.935   .     S
O614   Zn656   1.934   .     S
O615   Zn655   1.934   .     S
O616   Zn650   1.935   .     S
O617   Zn664   1.935   .     S
O618   Zn651   1.935   .     S
O619   Zn658   1.948   .     S
O619   Zn650   1.948   .     S
O619   Zn662   1.948   .     S
O620   Zn652   1.935   .     S
O621   Zn664   1.934   .     S
O622   Zn650   1.934   .     S
O623   Zn655   1.935   .     S
O624   Zn656   1.935   .     S
O625   Zn653   1.934   .     S
O626   Zn654   1.934   .     S
O627   Zn327   1.934   1_655 S
O628   Zn658   1.934   .     S
O629   Zn1325  1.935   .     S
O630   Zn653   1.948   .     S
O630   Zn659   1.948   .     S
O630   Zn663   1.948   .     S
O631   Zn660   1.935   .     S
O632   Zn663   1.934   .     S
O633   Zn330   1.934   1_655 S
O634   Zn657   1.935   .     S
O635   Zn1313  1.935   .     S
O636   Zn326   1.935   1_655 S
O637   Zn659   1.935   .     S
O638   Zn649   1.934   .     S
O639   Zn1321  1.934   .     S
O640   Zn662   1.935   .     S
O641   Zn656   1.954   .     S
O641   C1133   1.277   .     S
O642   Zn331   1.935   1_655 S
O643   Zn1324  1.934   .     S
O644   Zn661   1.934   .     S
O645   Zn655   1.954   .     S
O646   Zn650   1.954   .     S
O647   C140    1.277   1_655 A
O647   Zn664   1.954   .     S
O648   Zn652   1.954   .     S
Zn649  O1299   1.935   1_545 S
Zn651  O1272   1.948   .     S
Zn654  O287    1.948   1_655 S
Zn656  O1261   1.948   .     S
Zn657  O1303   1.934   1_545 S
Zn660  O1307   1.934   1_545 S
Zn661  O1293   1.935   1_545 S
Zn664  O298    1.948   1_655 S
C665   C668    1.416   .     A
C665   C760    1.454   .     S
C665   C1075   1.402   .     S
C666   C678    1.416   .     A
C666   C770    1.454   .     S
C666   C116    1.402   1_565 S
C667   C843    1.416   .     A
C667   C786    1.420   .     A
C668   C787    1.420   .     A
C668   C1030   1.424   .     S
C669   C700    1.424   .     A
C669   C789    1.420   .     A
C669   C776    1.416   .     A
C670   C790    1.420   .     A
C670   C788    1.416   .     A
C671   C791    1.420   .     A
C671   C799    1.416   .     A
C671   C702    1.424   .     A
C672   C699    1.416   .     A
C672   C792    1.420   .     A
C672   C39     1.424   1_565 S
C673   C710    1.416   .     A
C673   C704    1.424   .     A
C673   C793    1.420   .     A
C674   C794    1.420   .     A
C674   C721    1.416   .     A
C674   C1037   1.424   1_455 S
C675   C732    1.416   .     A
C675   C706    1.424   .     A
C675   C795    1.420   .     A
C676   C796    1.420   .     A
C676   C703    1.424   .     A
C676   C854    1.416   .     A
C677   C1113   1.402   .     A
C677   C771    1.454   .     S
C677   C679    1.416   .     A
C678   C797    1.420   .     A
C678   C40     1.424   1_565 S
C679   C798    1.420   .     A
C679   C705    1.424   .     A
C680   C800    1.420   .     A
C680   C688    1.416   .     A
C680   C1038   1.424   1_455 S
C681   C846    1.410   .     A
C681   C816    1.456   .     S
C681   C844    1.410   .     A
C682   C845    1.410   .     A
C682   C842    1.410   .     A
C682   C817    1.456   .     S
C683   C841    1.410   .     A
C683   C809    1.455   .     S
C683   C848    1.410   .     A
C684   C847    1.410   .     A
C684   C840    1.410   .     A
C684   C811    1.455   .     S
C685   C850    1.410   .     A
C685   C839    1.410   .     A
C685   C812    1.456   .     S
C686   C813    1.456   .     S
C686   C838    1.410   .     A
C686   C849    1.410   .     A
C687   C852    1.410   .     A
C687   C814    1.455   .     S
C687   C837    1.410   .     A
C688   C772    1.454   .     S
C688   C782    1.402   .     S
C689   C851    1.410   .     A
C689   C815    1.455   .     S
C689   C836    1.410   .     A
C690   C855    1.410   .     A
C690   C825    1.455   .     S
C690   C835    1.410   .     A
C691   C826    1.455   .     S
C691   C834    1.410   .     A
C691   C853    1.410   .     A
C692   C833    1.410   .     A
C692   C818    1.456   .     S
C692   C857    1.410   .     A
C693   C819    1.456   .     S
C693   C831    1.410   .     A
C693   C856    1.410   .     A
C694   C820    1.455   .     S
C694   C859    1.410   .     A
C694   C830    1.410   .     A
C695   C829    1.410   .     A
C695   C822    1.455   .     S
C695   C858    1.410   .     A
C696   C828    1.410   .     A
C696   C823    1.456   .     S
C696   C861    1.410   .     A
C697   C827    1.410   .     A
C697   C860    1.410   .     A
C697   C824    1.456   .     S
C698   C862    1.424   .     A
C698   C700    1.416   .     A
C698   C1000   1.424   1_455 S
C699   C773    1.454   .     S
C699   C115    1.402   1_565 S
C700   C1195   1.424   1_455 S
C701   C702    1.415   .     A
C701   C864    1.424   .     A
C701   C6      1.424   1_565 S
C702   C3      1.424   1_565 S
C703   C704    1.416   1_556 S
C704   C703    1.416   1_554 S
C705   C1006   1.424   .     S
C705   C706    1.416   1_556 S
C706   C1012   1.424   .     S
C706   C705    1.416   1_554 S
C707   N865    1.158   .     T
C707   C783    1.456   .     S
C708   C784    1.456   .     S
C708   N876    1.158   .     T
C709   C785    1.456   .     S
C709   N887    1.158   .     T
C710   C774    1.454   .     S
C710   C780    1.402   .     A
C711   N898    1.158   .     T
C711   C786    1.456   .     S
C712   C787    1.456   .     S
C712   N909    1.158   .     T
C713   N920    1.158   .     T
C713   C789    1.456   .     S
C714   N926    1.158   .     T
C714   C790    1.456   .     S
C715   C791    1.456   .     S
C715   N927    1.158   .     T
C716   C792    1.456   .     S
C716   N928    1.158   .     T
C717   C793    1.456   .     S
C717   N866    1.158   .     T
C718   N867    1.158   .     T
C718   C794    1.456   .     S
C719   C795    1.456   .     S
C719   N868    1.158   .     T
C720   N869    1.158   .     T
C720   C796    1.456   .     S
C721   C775    1.454   .     S
C721   C781    1.402   .     S
C722   N870    1.158   .     T
C722   C797    1.456   .     S
C723   N871    1.158   .     T
C723   C798    1.456   .     S
C724   N872    1.158   .     T
C724   C800    1.456   .     S
C725   C827    1.453   .     S
C725   N873    1.157   .     T
C726   N874    1.157   .     T
C726   C828    1.453   .     S
C727   N875    1.157   .     T
C727   C829    1.453   .     S
C728   N877    1.157   .     T
C728   C830    1.453   .     S
C729   N878    1.157   .     T
C729   C831    1.453   .     S
C730   N879    1.157   .     T
C730   C833    1.453   .     S
C731   N880    1.157   .     T
C731   C834    1.453   .     S
C732   C1114   1.402   .     A
C732   C778    1.454   .     S
C733   N881    1.157   .     T
C733   C835    1.453   .     S
C734   N882    1.157   .     T
C734   C836    1.453   .     S
C735   N883    1.157   .     T
C735   C837    1.453   .     S
C736   N884    1.157   .     T
C736   C838    1.453   .     S
C737   C839    1.453   .     S
C737   N885    1.157   .     T
C738   C840    1.453   .     S
C738   N886    1.157   .     T
C739   C841    1.453   .     S
C739   N888    1.157   .     T
C740   N889    1.157   .     T
C740   C842    1.453   .     S
C741   C844    1.453   .     S
C741   N890    1.157   .     T
C742   C845    1.453   .     S
C742   N891    1.157   .     T
C743   C803    1.464   .     S
C743   C810    1.402   .     A
C743   C997    1.402   1_455 S
C744   C846    1.453   .     S
C744   N892    1.158   .     T
C745   N893    1.157   .     T
C745   C847    1.453   .     S
C746   C848    1.453   .     S
C746   N894    1.157   .     T
C747   N895    1.157   .     T
C747   C849    1.453   .     S
C748   N896    1.157   .     T
C748   C850    1.453   .     S
C749   N897    1.157   .     T
C749   C851    1.453   .     S
C750   C852    1.453   .     S
C750   N899    1.157   .     T
C751   N900    1.157   .     T
C751   C853    1.453   .     S
C752   C855    1.453   .     S
C752   N901    1.157   .     T
C753   N902    1.157   .     T
C753   C856    1.453   .     S
C754   C804    1.464   .     S
C754   C1153   1.402   1_455 A
C754   C776    1.402   .     S
C755   C857    1.453   .     S
C755   N903    1.157   .     T
C756   C858    1.453   .     S
C756   N904    1.157   .     T
C757   N905    1.157   .     T
C757   C859    1.453   .     S
C758   C860    1.453   .     S
C758   N906    1.157   .     T
C759   C861    1.453   .     S
C759   N907    1.157   .     T
C760   N908    1.158   .     T
C761   C776    1.454   .     S
C761   N910    1.158   .     T
C762   C788    1.454   .     S
C762   N911    1.158   .     T
C763   C799    1.454   .     S
C763   N912    1.158   .     T
C764   N913    1.158   .     T
C764   C810    1.454   .     S
C765   C788    1.402   .     S
C765   C801    1.464   .     S
C766   C821    1.454   .     S
C766   N914    1.158   .     T
C767   N915    1.158   .     T
C767   C832    1.454   .     S
C768   N916    1.158   .     T
C768   C843    1.454   .     S
C769   N917    1.158   .     T
C769   C854    1.454   .     S
C770   N918    1.158   .     T
C771   N919    1.158   .     T
C772   N921    1.158   .     T
C773   N922    1.158   .     T
C774   N923    1.158   .     T
C775   N924    1.158   .     T
C777   C802    1.464   .     S
C777   C843    1.402   .     S
C778   N925    1.158   .     T
C779   C854    1.402   .     A
C779   C807    1.464   .     S
C780   C808    1.464   .     S
C781   C805    1.464   .     S
C781   C1009   1.402   1_455 A
C782   C1064   1.402   1_455 A
C782   C806    1.464   .     S
C783   C862    1.420   .     A
C783   C789    1.404   .     A
C784   C863    1.420   .     A
C784   C787    1.404   .     A
C785   C791    1.404   .     A
C785   C864    1.420   .     A
C786   C790    1.404   .     A
C792   C797    1.404   1_556 S
C793   C796    1.404   1_554 S
C794   C800    1.404   1_556 S
C795   C798    1.404   1_554 S
C796   C793    1.404   1_556 S
C797   C792    1.404   1_554 S
C798   C795    1.404   1_556 S
C799   C113    1.402   1_565 A
C800   C794    1.404   1_554 S
C801   O980    1.277   .     A
C802   O977    1.277   .     S
C803   O978    1.277   .     A
C803   O1263   1.277   1_455 S
C804   O1311   1.277   1_455 A
C804   O932    1.277   .     S
C805   O937    1.277   .     A
C805   O933    1.277   .     A
C806   O934    1.277   .     A
C806   O938    1.277   .     A
C807   O935    1.277   .     A
C807   O939    1.277   .     A
C808   O941    1.277   .     A
C808   O936    1.277   .     A
C809   O970    1.279   .     A
C809   O942    1.279   .     A
C810   C862    1.416   .     A
C811   O971    1.279   .     A
C811   O943    1.279   .     A
C812   O968    1.279   .     A
C812   O944    1.279   .     A
C813   O945    1.279   .     A
C813   O969    1.279   .     A
C814   O975    1.279   .     A
C814   O946    1.279   .     A
C815   O976    1.279   .     A
C815   O947    1.279   .     A
C816   O948    1.279   .     A
C816   O972    1.279   .     A
C817   O949    1.279   .     A
C817   O974    1.279   .     A
C818   O961    1.279   .     A
C818   O950    1.279   .     A
C819   O952    1.279   .     A
C819   O963    1.279   .     A
C820   O959    1.279   .     A
C820   O953    1.279   .     A
C821   C863    1.416   .     A
C821   C1086   1.402   .     A
C822   O954    1.279   .     A
C822   O960    1.279   .     A
C823   O966    1.279   .     A
C823   O955    1.279   .     A
C824   O967    1.279   .     A
C824   O956    1.279   .     A
C825   O964    1.279   .     A
C825   O957    1.279   .     A
C826   O965    1.279   .     A
C826   O958    1.279   .     A
C827   C844    1.400   .     A
C828   C842    1.400   .     A
C829   C841    1.399   .     A
C830   C840    1.399   .     A
C831   C839    1.400   .     A
C832   C101    1.402   1_565 A
C832   C864    1.416   .     A
C833   C838    1.400   .     A
C834   C837    1.399   .     A
C835   C836    1.399   .     A
C845   C861    1.400   .     A
C846   C860    1.400   .     A
C847   C859    1.399   .     A
C848   C858    1.399   .     A
C849   C857    1.400   .     A
C850   C856    1.400   .     A
C851   C855    1.399   .     A
C852   C853    1.399   .     A
C863   C1032   1.424   .     S
O929   Zn984   1.948   .     S
O929   Zn992   1.948   .     S
O929   Zn981   1.948   .     S
O930   Zn983   1.954   .     S
O930   C138    1.277   1_565 A
O931   Zn986   1.954   .     S
O931   C1135   1.277   .     S
O932   Zn985   1.954   .     S
O933   Zn995   1.954   .     S
O934   Zn994   1.954   .     S
O935   Zn989   1.954   .     S
O936   Zn981   1.954   .     S
O937   Zn991   1.954   .     S
O938   Zn990   1.954   .     S
O939   Zn993   1.954   .     S
O940   Zn987   1.948   .     S
O940   Zn989   1.948   .     S
O940   Zn993   1.948   .     S
O941   Zn992   1.954   .     S
O942   Zn984   1.934   .     S
O943   Zn983   1.934   .     S
O944   Zn986   1.935   .     S
O945   Zn985   1.935   .     S
O946   Zn988   1.934   .     S
O947   Zn987   1.934   .     S
O948   Zn982   1.935   .     S
O949   Zn996   1.935   .     S
O950   Zn983   1.935   .     S
O951   Zn990   1.948   .     S
O951   Zn982   1.948   .     S
O951   Zn994   1.948   .     S
O951   Zn1318  1.948   1_455 S
O952   Zn984   1.935   .     S
O953   Zn996   1.934   .     S
O954   Zn982   1.934   .     S
O955   Zn987   1.935   .     S
O956   Zn988   1.935   .     S
O957   Zn985   1.934   .     S
O958   Zn986   1.934   .     S
O959   Zn1323  1.934   .     S
O960   Zn990   1.934   .     S
O961   Zn329   1.935   1_565 S
O962   Zn985   1.948   .     S
O962   Zn991   1.948   .     S
O962   Zn995   1.948   .     S
O962   Zn1328  1.948   1_455 S
O963   Zn992   1.935   .     S
O964   Zn995   1.934   .     S
O965   Zn1326  1.934   .     S
O966   Zn989   1.935   .     S
O967   Zn317   1.935   1_565 S
O968   Zn1322  1.935   .     S
O969   Zn991   1.935   .     S
O970   Zn981   1.934   .     S
O971   Zn325   1.934   1_565 S
O972   Zn994   1.935   .     S
O973   Zn988   1.954   .     S
O973   C137    1.277   1_565 S
O974   Zn1327  1.935   .     S
O975   Zn328   1.934   1_565 S
O976   Zn993   1.934   .     S
O977   Zn987   1.954   .     S
O978   Zn982   1.954   .     S
O979   C1136   1.277   .     A
O979   Zn996   1.954   .     S
O980   Zn984   1.954   .     S
Zn983  O276    1.948   1_565 S
Zn986  O1283   1.948   .     S
Zn988  O265    1.948   1_565 S
Zn990  O1300   1.935   1_455 S
Zn991  O1291   1.934   1_455 S
Zn994  O1297   1.934   1_455 S
Zn995  O1306   1.935   1_455 S
Zn996  O1294   1.948   .     S
C997   C1000   1.416   .     A
C997   C1092   1.454   .     S
C997   C743    1.402   1_655 S
C998   C1010   1.416   .     A
C998   C1102   1.454   .     S
C998   C448    1.402   1_565 S
C999   C1175   1.416   .     A
C999   C1118   1.420   .     A
C1000  C1119   1.420   .     A
C1000  C698    1.424   1_655 S
C1001  C1032   1.424   .     A
C1001  C1121   1.420   .     A
C1001  C1108   1.416   .     A
C1002  C1122   1.420   .     A
C1002  C1120   1.416   .     A
C1003  C1123   1.420   .     A
C1003  C1131   1.416   .     A
C1003  C1034   1.424   .     A
C1004  C1031   1.416   .     A
C1004  C1124   1.420   .     A
C1004  C371    1.424   1_565 S
C1005  C1042   1.416   .     A
C1005  C1036   1.424   .     A
C1005  C1125   1.420   .     A
C1006  C1126   1.420   .     A
C1006  C1053   1.416   .     A
C1007  C1064   1.416   .     A
C1007  C1038   1.424   .     A
C1007  C1127   1.420   .     A
C1008  C1128   1.420   .     A
C1008  C1035   1.424   .     A
C1008  C1186   1.416   .     A
C1009  C781    1.402   1_655 A
C1009  C1103   1.454   .     S
C1009  C1011   1.416   .     A
C1010  C1129   1.420   .     A
C1010  C372    1.424   1_565 S
C1011  C1130   1.420   .     A
C1011  C1037   1.424   .     A
C1012  C1132   1.420   .     A
C1012  C1020   1.416   .     A
C1013  C1178   1.410   .     A
C1013  C1148   1.456   .     S
C1013  C1176   1.410   .     A
C1014  C1177   1.410   .     A
C1014  C1174   1.410   .     A
C1014  C1149   1.456   .     S
C1015  C1173   1.410   .     A
C1015  C1141   1.455   .     S
C1015  C1180   1.410   .     A
C1016  C1179   1.410   .     A
C1016  C1172   1.410   .     A
C1016  C1143   1.455   .     S
C1017  C1182   1.410   .     A
C1017  C1171   1.410   .     A
C1017  C1144   1.456   .     S
C1018  C1145   1.456   .     S
C1018  C1170   1.410   .     A
C1018  C1181   1.410   .     A
C1019  C1184   1.410   .     A
C1019  C1146   1.455   .     S
C1019  C1169   1.410   .     A
C1020  C1104   1.454   .     S
C1020  C1114   1.402   .     S
C1021  C1183   1.410   .     A
C1021  C1147   1.455   .     S
C1021  C1168   1.410   .     A
C1022  C1187   1.410   .     A
C1022  C1157   1.455   .     S
C1022  C1167   1.410   .     A
C1023  C1158   1.455   .     S
C1023  C1166   1.410   .     A
C1023  C1185   1.410   .     A
C1024  C1165   1.410   .     A
C1024  C1150   1.456   .     S
C1024  C1189   1.410   .     A
C1025  C1151   1.456   .     S
C1025  C1163   1.410   .     A
C1025  C1188   1.410   .     A
C1026  C1152   1.455   .     S
C1026  C1191   1.410   .     A
C1026  C1162   1.410   .     A
C1027  C1161   1.410   .     A
C1027  C1154   1.455   .     S
C1027  C1190   1.410   .     A
C1028  C1160   1.410   .     A
C1028  C1155   1.456   .     S
C1028  C1193   1.410   .     A
C1029  C1159   1.410   .     A
C1029  C1192   1.410   .     A
C1029  C1156   1.456   .     S
C1030  C1194   1.424   .     A
C1030  C1032   1.416   .     A
C1031  C1105   1.454   .     S
C1031  C447    1.402   1_565 S
C1033  C1034   1.415   .     A
C1033  C1196   1.424   .     A
C1033  C338    1.424   1_565 S
C1034  C335    1.424   1_565 S
C1035  C1036   1.416   1_556 S
C1036  C1035   1.416   1_554 S
C1037  C674    1.424   1_655 S
C1037  C1038   1.416   1_556 S
C1038  C680    1.424   1_655 S
C1038  C1037   1.416   1_554 S
C1039  N1197   1.158   .     T
C1039  C1115   1.456   .     S
C1040  C1116   1.456   .     S
C1040  N1208   1.158   .     T
C1041  C1117   1.456   .     S
C1041  N1219   1.158   .     T
C1042  C1106   1.454   .     S
C1042  C1112   1.402   .     A
C1043  N1230   1.158   .     T
C1043  C1118   1.456   .     S
C1044  C1119   1.456   .     S
C1044  N1241   1.158   .     T
C1045  N1252   1.158   .     T
C1045  C1121   1.456   .     S
C1046  N1258   1.158   .     T
C1046  C1122   1.456   .     S
C1047  C1123   1.456   .     S
C1047  N1259   1.158   .     T
C1048  C1124   1.456   .     S
C1048  N1260   1.158   .     T
C1049  C1125   1.456   .     S
C1049  N1198   1.158   .     T
C1050  N1199   1.158   .     T
C1050  C1126   1.456   .     S
C1051  C1127   1.456   .     S
C1051  N1200   1.158   .     T
C1052  N1201   1.158   .     T
C1052  C1128   1.456   .     S
C1053  C1107   1.454   .     S
C1053  C1113   1.402   .     S
C1054  N1202   1.158   .     T
C1054  C1129   1.456   .     S
C1055  N1203   1.158   .     T
C1055  C1130   1.456   .     S
C1056  N1204   1.158   .     T
C1056  C1132   1.456   .     S
C1057  C1159   1.453   .     S
C1057  N1205   1.157   .     T
C1058  N1206   1.157   .     T
C1058  C1160   1.453   .     S
C1059  N1207   1.157   .     T
C1059  C1161   1.453   .     S
C1060  N1209   1.157   .     T
C1060  C1162   1.453   .     S
C1061  N1210   1.157   .     T
C1061  C1163   1.453   .     S
C1062  N1211   1.157   .     T
C1062  C1165   1.453   .     S
C1063  N1212   1.157   .     T
C1063  C1166   1.453   .     S
C1064  C782    1.402   1_655 A
C1064  C1110   1.454   .     S
C1065  N1213   1.157   .     T
C1065  C1167   1.453   .     S
C1066  N1214   1.157   .     T
C1066  C1168   1.453   .     S
C1067  N1215   1.157   .     T
C1067  C1169   1.453   .     S
C1068  N1216   1.157   .     T
C1068  C1170   1.453   .     S
C1069  C1171   1.453   .     S
C1069  N1217   1.157   .     T
C1070  C1172   1.453   .     S
C1070  N1218   1.157   .     T
C1071  C1173   1.453   .     S
C1071  N1220   1.157   .     T
C1072  N1221   1.157   .     T
C1072  C1174   1.453   .     S
C1073  C1176   1.453   .     S
C1073  N1222   1.157   .     T
C1074  C1177   1.453   .     S
C1074  N1223   1.157   .     T
C1075  C1135   1.464   .     S
C1075  C1142   1.402   .     A
C1076  C1178   1.453   .     S
C1076  N1224   1.158   .     T
C1077  N1225   1.157   .     T
C1077  C1179   1.453   .     S
C1078  C1180   1.453   .     S
C1078  N1226   1.157   .     T
C1079  N1227   1.157   .     T
C1079  C1181   1.453   .     S
C1080  N1228   1.157   .     T
C1080  C1182   1.453   .     S
C1081  N1229   1.157   .     T
C1081  C1183   1.453   .     S
C1082  C1184   1.453   .     S
C1082  N1231   1.157   .     T
C1083  N1232   1.157   .     T
C1083  C1185   1.453   .     S
C1084  C1187   1.453   .     S
C1084  N1233   1.157   .     T
C1085  N1234   1.157   .     T
C1085  C1188   1.453   .     S
C1086  C1136   1.464   .     S
C1086  C1108   1.402   .     S
C1087  C1189   1.453   .     S
C1087  N1235   1.157   .     T
C1088  C1190   1.453   .     S
C1088  N1236   1.157   .     T
C1089  N1237   1.157   .     T
C1089  C1191   1.453   .     S
C1090  C1192   1.453   .     S
C1090  N1238   1.157   .     T
C1091  C1193   1.453   .     S
C1091  N1239   1.157   .     T
C1092  N1240   1.158   .     T
C1093  C1108   1.454   .     S
C1093  N1242   1.158   .     T
C1094  C1120   1.454   .     S
C1094  N1243   1.158   .     T
C1095  C1131   1.454   .     S
C1095  N1244   1.158   .     T
C1096  N1245   1.158   .     T
C1096  C1142   1.454   .     S
C1097  C1120   1.402   .     S
C1097  C1133   1.464   .     S
C1098  C1153   1.454   .     S
C1098  N1246   1.158   .     T
C1099  N1247   1.158   .     T
C1099  C1164   1.454   .     S
C1100  N1248   1.158   .     T
C1100  C1175   1.454   .     S
C1101  N1249   1.158   .     T
C1101  C1186   1.454   .     S
C1102  N1250   1.158   .     T
C1103  N1251   1.158   .     T
C1104  N1253   1.158   .     T
C1105  N1254   1.158   .     T
C1106  N1255   1.158   .     T
C1107  N1256   1.158   .     T
C1109  C1134   1.464   .     S
C1109  C1175   1.402   .     S
C1110  N1257   1.158   .     T
C1111  C1186   1.402   .     A
C1111  C1139   1.464   .     S
C1112  C1140   1.464   .     S
C1113  C1137   1.464   .     S
C1114  C1138   1.464   .     S
C1115  C1194   1.420   .     A
C1115  C1121   1.404   .     A
C1116  C1195   1.420   .     A
C1116  C1119   1.404   .     A
C1117  C1123   1.404   .     A
C1117  C1196   1.420   .     A
C1118  C1122   1.404   .     A
C1124  C1129   1.404   1_556 S
C1125  C1128   1.404   1_554 S
C1126  C1132   1.404   1_556 S
C1127  C1130   1.404   1_554 S
C1128  C1125   1.404   1_556 S
C1129  C1124   1.404   1_554 S
C1130  C1127   1.404   1_556 S
C1131  C445    1.402   1_565 A
C1132  C1126   1.404   1_554 S
C1133  O1312   1.277   .     A
C1134  O1309   1.277   .     S
C1135  O1310   1.277   .     A
C1136  O1264   1.277   .     S
C1137  O1269   1.277   .     A
C1137  O1265   1.277   .     A
C1138  O1266   1.277   .     A
C1138  O1270   1.277   .     A
C1139  O1267   1.277   .     A
C1139  O1271   1.277   .     A
C1140  O1273   1.277   .     A
C1140  O1268   1.277   .     A
C1141  O1302   1.279   .     A
C1141  O1274   1.279   .     A
C1142  C1194   1.416   .     A
C1143  O1303   1.279   .     A
C1143  O1275   1.279   .     A
C1144  O1300   1.279   .     A
C1144  O1276   1.279   .     A
C1145  O1277   1.279   .     A
C1145  O1301   1.279   .     A
C1146  O1307   1.279   .     A
C1146  O1278   1.279   .     A
C1147  O1308   1.279   .     A
C1147  O1279   1.279   .     A
C1148  O1280   1.279   .     A
C1148  O1304   1.279   .     A
C1149  O1281   1.279   .     A
C1149  O1306   1.279   .     A
C1150  O1293   1.279   .     A
C1150  O1282   1.279   .     A
C1151  O1284   1.279   .     A
C1151  O1295   1.279   .     A
C1152  O1291   1.279   .     A
C1152  O1285   1.279   .     A
C1153  C1195   1.416   .     A
C1153  C754    1.402   1_655 A
C1154  O1286   1.279   .     A
C1154  O1292   1.279   .     A
C1155  O1298   1.279   .     A
C1155  O1287   1.279   .     A
C1156  O1299   1.279   .     A
C1156  O1288   1.279   .     A
C1157  O1296   1.279   .     A
C1157  O1289   1.279   .     A
C1158  O1297   1.279   .     A
C1158  O1290   1.279   .     A
C1159  C1176   1.400   .     A
C1160  C1174   1.400   .     A
C1161  C1173   1.399   .     A
C1162  C1172   1.399   .     A
C1163  C1171   1.400   .     A
C1164  C433    1.402   1_565 A
C1164  C1196   1.416   .     A
C1165  C1170   1.400   .     A
C1166  C1169   1.399   .     A
C1167  C1168   1.399   .     A
C1177  C1193   1.400   .     A
C1178  C1192   1.400   .     A
C1179  C1191   1.399   .     A
C1180  C1190   1.399   .     A
C1181  C1189   1.400   .     A
C1182  C1188   1.400   .     A
C1183  C1187   1.399   .     A
C1184  C1185   1.399   .     A
C1195  C700    1.424   1_655 S
O1261  Zn1316  1.948   .     S
O1261  Zn1324  1.948   .     S
O1261  Zn1313  1.948   .     S
O1262  Zn1315  1.954   .     S
O1262  C470    1.277   1_565 A
O1263  Zn1318  1.954   .     S
O1263  C803    1.277   1_655 S
O1264  Zn1317  1.954   .     S
O1265  Zn1327  1.954   .     S
O1266  Zn1326  1.954   .     S
O1267  Zn1321  1.954   .     S
O1268  Zn1313  1.954   .     S
O1269  Zn1323  1.954   .     S
O1270  Zn1322  1.954   .     S
O1271  Zn1325  1.954   .     S
O1272  Zn1319  1.948   .     S
O1272  Zn1321  1.948   .     S
O1272  Zn1325  1.948   .     S
O1273  Zn1324  1.954   .     S
O1274  Zn1316  1.934   .     S
O1275  Zn1315  1.934   .     S
O1276  Zn1318  1.935   .     S
O1277  Zn1317  1.935   .     S
O1278  Zn1320  1.934   .     S
O1279  Zn1319  1.934   .     S
O1280  Zn1314  1.935   .     S
O1281  Zn1328  1.935   .     S
O1282  Zn1315  1.935   .     S
O1283  Zn1322  1.948   .     S
O1283  Zn1314  1.948   .     S
O1283  Zn1326  1.948   .     S
O1284  Zn1316  1.935   .     S
O1285  Zn1328  1.934   .     S
O1286  Zn1314  1.934   .     S
O1287  Zn1319  1.935   .     S
O1288  Zn1320  1.935   .     S
O1289  Zn1317  1.934   .     S
O1290  Zn1318  1.934   .     S
O1291  Zn991   1.934   1_655 S
O1292  Zn1322  1.934   .     S
O1293  Zn661   1.935   1_565 S
O1294  Zn1317  1.948   .     S
O1294  Zn1323  1.948   .     S
O1294  Zn1327  1.948   .     S
O1295  Zn1324  1.935   .     S
O1296  Zn1327  1.934   .     S
O1297  Zn994   1.934   1_655 S
O1298  Zn1321  1.935   .     S
O1299  Zn649   1.935   1_565 S
O1300  Zn990   1.935   1_655 S
O1301  Zn1323  1.935   .     S
O1302  Zn1313  1.934   .     S
O1303  Zn657   1.934   1_565 S
O1304  Zn1326  1.935   .     S
O1305  Zn1320  1.954   .     S
O1305  C469    1.277   1_565 S
O1306  Zn995   1.935   1_655 S
O1307  Zn660   1.934   1_565 S
O1308  Zn1325  1.934   .     S
O1309  Zn1319  1.954   .     S
O1310  Zn1314  1.954   .     S
O1311  C804    1.277   1_655 A
O1311  Zn1328  1.954   .     S
O1312  Zn1316  1.954   .     S
Zn1315 O608    1.948   1_565 S
Zn1318 O951    1.948   1_655 S
Zn1320 O597    1.948   1_565 S
Zn1328 O962    1.948   1_655 S
