data_str_m1_o10_o16_pcu_sym.160
_audit_creation_date              2020-01-03
_audit_creation_method            'Materials Studio'
_symmetry_space_group_name_H-M    'P1'
_symmetry_Int_Tables_number       1
_symmetry_cell_setting            triclinic
loop_
_symmetry_equiv_pos_as_xyz
  x,y,z
_cell_length_a                    32.8269
_cell_length_b                    32.4793
_cell_length_c                    31.2307
_cell_angle_alpha                 95.8743
_cell_angle_beta                  74.9011
_cell_angle_gamma                 98.3567
loop_
_atom_site_label
_atom_site_type_symbol
_atom_site_fract_x
_atom_site_fract_y
_atom_site_fract_z
_atom_site_U_iso_or_equiv
_atom_site_adp_type
_atom_site_occupancy
C1     C     0.05303   0.15987   0.26016   0.00000  Uiso   1.00
C2     C     0.17741   0.17088   0.05840   0.00000  Uiso   1.00
C3     C     0.20171   0.10367   0.06217   0.00000  Uiso   1.00
C4     C     0.28071   0.17246   0.23903   0.00000  Uiso   1.00
C5     C     0.14996   0.19827   0.41648   0.00000  Uiso   1.00
C6     C     0.32639   0.16959   0.23138   0.00000  Uiso   1.00
C7     C     0.00803   0.15927   0.26516   0.00000  Uiso   1.00
C8     C     0.17785   0.32206   0.23127   0.00000  Uiso   1.00
C9     C     0.15399   0.01182   0.26366   0.00000  Uiso   1.00
C10    C     0.15566   0.05605   0.26101   0.00000  Uiso   1.00
C11    C     0.17602   0.27775   0.23882   0.00000  Uiso   1.00
C12    C     0.16959   0.25801   0.46357   0.00000  Uiso   1.00
C13    C     0.18536   0.14821   0.12966   0.00000  Uiso   1.00
C14    C     0.14890   0.18458   0.37058   0.00000  Uiso   1.00
C15    C     0.19698   0.09108   0.01999   0.00000  Uiso   1.00
C16    C     0.19043   0.14224   0.08206   0.00000  Uiso   1.00
C17    C     0.15237   0.24122   0.42823   0.00000  Uiso   1.00
C18    C     0.31588   0.15529   0.31053   0.00000  Uiso   1.00
C19    C     0.20506   0.00915   0.18902   0.00000  Uiso   1.00
C20    C     0.22957   0.31441   0.15189   0.00000  Uiso   1.00
C21    C     0.15755   0.20926   0.08366   0.00000  Uiso   1.00
C22    C     0.11949   0.19919   0.12274   0.00000  Uiso   1.00
C23    C     0.18311   0.23129   0.48794   0.00000  Uiso   1.00
C24    C     0.17392   0.30441   0.47484   0.00000  Uiso   1.00
C25    C     0.13029   0.31869   0.49558   0.00000  Uiso   1.00
C26    C     0.02380   0.17705   0.18598   0.00000  Uiso   1.00
C27    C     0.00474   0.18225   0.14726   0.00000  Uiso   1.00
C28    C     0.17258   0.18769   0.48281   0.00000  Uiso   1.00
C29    C     0.15876   0.17099   0.44451   0.00000  Uiso   1.00
C30    C     0.17853   0.15993   0.01256   0.00000  Uiso   1.00
C31    C     0.18304   0.11785   0.49622   0.00000  Uiso   1.00
C32    C     0.17127   0.10210   0.45741   0.00000  Uiso   1.00
C33    C     0.15580   0.12759   0.43411   0.00000  Uiso   1.00
H34    H     0.21104   0.08183   0.08082   0.00000  Uiso   1.00
H35    H     0.24469   0.33280   0.12251   0.00000  Uiso   1.00
H36    H     0.18385   0.02374   0.17413   0.00000  Uiso   1.00
H37    H     0.22837   0.03445   0.19859   0.00000  Uiso   1.00
H38    H     0.10189   0.16836   0.11606   0.00000  Uiso   1.00
H39    H     0.12927   0.19997   0.15424   0.00000  Uiso   1.00
H40    H     0.09784   0.22351   0.12757   0.00000  Uiso   1.00
H41    H     0.18221   0.23145   0.09510   0.00000  Uiso   1.00
H42    H     0.14362   0.22578   0.06301   0.00000  Uiso   1.00
H43    H     0.11017   0.31295   0.47146   0.00000  Uiso   1.00
H44    H     0.11414   0.30170   0.02576   0.00000  Uiso   1.00
H45    H     0.13585   0.33236   0.29477   0.00000  Uiso   1.00
H46    H     0.13383   0.01922   0.00538   0.00000  Uiso   1.00
H47    H     0.19401   0.31305   0.49884   0.00000  Uiso   1.00
H48    H     0.18963   0.32106   0.44433   0.00000  Uiso   1.00
H49    H     0.31245   0.15643   0.14465   0.00000  Uiso   1.00
H50    H     0.32609   0.21299   0.15095   0.00000  Uiso   1.00
H51    H     0.02969   0.18125   0.11555   0.00000  Uiso   1.00
H52    H     0.04630   0.20523   0.19019   0.00000  Uiso   1.00
H53    H     0.04181   0.14981   0.17558   0.00000  Uiso   1.00
H54    H     0.17191   0.06942   0.44631   0.00000  Uiso   1.00
H55    H     0.20285   0.05981   0.00655   0.00000  Uiso   1.00
H56    H     0.14488   0.26223   0.40733   0.00000  Uiso   1.00
H57    H     0.20079   0.24479   0.01185   0.00000  Uiso   1.00
H58    H     0.14293   0.11297   0.40696   0.00000  Uiso   1.00
H59    H     0.25535   0.30272   0.16244   0.00000  Uiso   1.00
H60    H     0.20771   0.28816   0.14163   0.00000  Uiso   1.00
N61    N     0.29573   0.15213   0.34673   0.00000  Uiso   1.00
O62    O     0.16667   0.16667   0.25000   0.00000  Uiso   1.00
O63    O     0.15451   0.12637   0.15458   0.00000  Uiso   1.00
O64    O     0.12940   0.20391   0.34968   0.00000  Uiso   1.00
O65    O     0.20824   0.17759   0.14606   0.00000  Uiso   1.00
O66    O     0.17451   0.15880   0.34968   0.00000  Uiso   1.00
O67    O     0.17930   0.08019   0.28213   0.00000  Uiso   1.00
O68    O     0.14632   0.26085   0.27013   0.00000  Uiso   1.00
O69    O     0.07412   0.13291   0.23413   0.00000  Uiso   1.00
O70    O     0.26693   0.19272   0.21360   0.00000  Uiso   1.00
O71    O     0.07071   0.18878   0.28213   0.00000  Uiso   1.00
O72    O     0.25491   0.15226   0.27013   0.00000  Uiso   1.00
O73    O     0.13760   0.06944   0.23413   0.00000  Uiso   1.00
O74    O     0.20345   0.25620   0.21360   0.00000  Uiso   1.00
Zn75   Zn    0.19338   0.13994   0.28734   0.00000  Uiso   1.00
Zn76   Zn    0.13379   0.12458   0.21875   0.00000  Uiso   1.00
Zn77   Zn    0.21056   0.19775   0.20657   0.00000  Uiso   1.00
Zn78   Zn    0.12893   0.20439   0.28733   0.00000  Uiso   1.00
C79    C     0.38637   0.15987   0.26016   0.00000  Uiso   1.00
C80    C     0.51074   0.17088   0.05840   0.00000  Uiso   1.00
C81    C     0.53504   0.10367   0.06217   0.00000  Uiso   1.00
C82    C     0.61405   0.17246   0.23903   0.00000  Uiso   1.00
C83    C     0.48330   0.19827   0.41648   0.00000  Uiso   1.00
C84    C     0.65972   0.16959   0.23138   0.00000  Uiso   1.00
C85    C     0.34137   0.15927   0.26516   0.00000  Uiso   1.00
C86    C     0.51119   0.32206   0.23127   0.00000  Uiso   1.00
C87    C     0.48732   0.01182   0.26366   0.00000  Uiso   1.00
C88    C     0.48900   0.05605   0.26101   0.00000  Uiso   1.00
C89    C     0.50936   0.27775   0.23882   0.00000  Uiso   1.00
C90    C     0.50292   0.25801   0.46357   0.00000  Uiso   1.00
C91    C     0.51870   0.14821   0.12966   0.00000  Uiso   1.00
C92    C     0.48223   0.18458   0.37058   0.00000  Uiso   1.00
C93    C     0.53031   0.09108   0.01999   0.00000  Uiso   1.00
C94    C     0.52377   0.14224   0.08206   0.00000  Uiso   1.00
C95    C     0.48570   0.24122   0.42823   0.00000  Uiso   1.00
C96    C     0.64921   0.15529   0.31053   0.00000  Uiso   1.00
C97    C     0.53839   0.00915   0.18902   0.00000  Uiso   1.00
C98    C     0.56291   0.31441   0.15189   0.00000  Uiso   1.00
C99    C     0.49088   0.20926   0.08366   0.00000  Uiso   1.00
C100   C     0.45283   0.19919   0.12274   0.00000  Uiso   1.00
C101   C     0.51645   0.23129   0.48794   0.00000  Uiso   1.00
C102   C     0.50725   0.30441   0.47484   0.00000  Uiso   1.00
C103   C     0.46363   0.31869   0.49558   0.00000  Uiso   1.00
C104   C     0.35714   0.17705   0.18598   0.00000  Uiso   1.00
C105   C     0.33807   0.18225   0.14726   0.00000  Uiso   1.00
C106   C     0.50592   0.18769   0.48281   0.00000  Uiso   1.00
C107   C     0.49209   0.17099   0.44451   0.00000  Uiso   1.00
C108   C     0.51186   0.15993   0.01256   0.00000  Uiso   1.00
C109   C     0.51637   0.11785   0.49622   0.00000  Uiso   1.00
C110   C     0.50461   0.10210   0.45741   0.00000  Uiso   1.00
C111   C     0.48913   0.12759   0.43411   0.00000  Uiso   1.00
H112   H     0.54437   0.08183   0.08082   0.00000  Uiso   1.00
H113   H     0.57803   0.33280   0.12251   0.00000  Uiso   1.00
H114   H     0.51718   0.02374   0.17413   0.00000  Uiso   1.00
H115   H     0.56170   0.03445   0.19859   0.00000  Uiso   1.00
H116   H     0.43522   0.16836   0.11606   0.00000  Uiso   1.00
H117   H     0.46261   0.19997   0.15424   0.00000  Uiso   1.00
H118   H     0.43117   0.22351   0.12757   0.00000  Uiso   1.00
H119   H     0.51554   0.23145   0.09510   0.00000  Uiso   1.00
H120   H     0.47695   0.22578   0.06301   0.00000  Uiso   1.00
H121   H     0.44350   0.31295   0.47146   0.00000  Uiso   1.00
H122   H     0.44748   0.30170   0.02576   0.00000  Uiso   1.00
H123   H     0.46918   0.33236   0.29477   0.00000  Uiso   1.00
H124   H     0.46716   0.01922   0.00538   0.00000  Uiso   1.00
H125   H     0.52734   0.31305   0.49884   0.00000  Uiso   1.00
H126   H     0.52297   0.32106   0.44433   0.00000  Uiso   1.00
H127   H     0.64579   0.15643   0.14465   0.00000  Uiso   1.00
H128   H     0.65942   0.21299   0.15095   0.00000  Uiso   1.00
H129   H     0.36302   0.18125   0.11555   0.00000  Uiso   1.00
H130   H     0.37964   0.20523   0.19019   0.00000  Uiso   1.00
H131   H     0.37515   0.14981   0.17558   0.00000  Uiso   1.00
H132   H     0.50525   0.06942   0.44631   0.00000  Uiso   1.00
H133   H     0.53618   0.05981   0.00655   0.00000  Uiso   1.00
H134   H     0.47821   0.26223   0.40733   0.00000  Uiso   1.00
H135   H     0.53412   0.24479   0.01185   0.00000  Uiso   1.00
H136   H     0.47626   0.11297   0.40696   0.00000  Uiso   1.00
H137   H     0.58868   0.30272   0.16244   0.00000  Uiso   1.00
H138   H     0.54104   0.28816   0.14163   0.00000  Uiso   1.00
N139   N     0.62906   0.15213   0.34673   0.00000  Uiso   1.00
O140   O     0.50000   0.16667   0.25000   0.00000  Uiso   1.00
O141   O     0.48784   0.12637   0.15458   0.00000  Uiso   1.00
O142   O     0.46274   0.20391   0.34968   0.00000  Uiso   1.00
O143   O     0.54157   0.17759   0.14606   0.00000  Uiso   1.00
O144   O     0.50785   0.15880   0.34968   0.00000  Uiso   1.00
O145   O     0.51264   0.08019   0.28213   0.00000  Uiso   1.00
O146   O     0.47965   0.26085   0.27013   0.00000  Uiso   1.00
O147   O     0.40745   0.13291   0.23413   0.00000  Uiso   1.00
O148   O     0.60026   0.19272   0.21360   0.00000  Uiso   1.00
O149   O     0.40405   0.18878   0.28213   0.00000  Uiso   1.00
O150   O     0.58824   0.15226   0.27013   0.00000  Uiso   1.00
O151   O     0.47093   0.06944   0.23413   0.00000  Uiso   1.00
O152   O     0.53678   0.25620   0.21360   0.00000  Uiso   1.00
Zn153  Zn    0.52672   0.13994   0.28734   0.00000  Uiso   1.00
Zn154  Zn    0.46713   0.12458   0.21875   0.00000  Uiso   1.00
Zn155  Zn    0.54389   0.19775   0.20657   0.00000  Uiso   1.00
Zn156  Zn    0.46226   0.20439   0.28733   0.00000  Uiso   1.00
C157   C     0.71970   0.15987   0.26016   0.00000  Uiso   1.00
C158   C     0.84408   0.17088   0.05840   0.00000  Uiso   1.00
C159   C     0.86838   0.10367   0.06217   0.00000  Uiso   1.00
C160   C     0.94738   0.17246   0.23903   0.00000  Uiso   1.00
C161   C     0.81663   0.19827   0.41648   0.00000  Uiso   1.00
C162   C     0.99306   0.16959   0.23138   0.00000  Uiso   1.00
C163   C     0.67470   0.15927   0.26516   0.00000  Uiso   1.00
C164   C     0.84452   0.32206   0.23127   0.00000  Uiso   1.00
C165   C     0.82066   0.01182   0.26366   0.00000  Uiso   1.00
C166   C     0.82233   0.05605   0.26101   0.00000  Uiso   1.00
C167   C     0.84269   0.27775   0.23882   0.00000  Uiso   1.00
C168   C     0.83626   0.25801   0.46357   0.00000  Uiso   1.00
C169   C     0.85203   0.14821   0.12966   0.00000  Uiso   1.00
C170   C     0.81556   0.18458   0.37058   0.00000  Uiso   1.00
C171   C     0.86364   0.09108   0.01999   0.00000  Uiso   1.00
C172   C     0.85710   0.14224   0.08206   0.00000  Uiso   1.00
C173   C     0.81903   0.24122   0.42823   0.00000  Uiso   1.00
C174   C     0.98255   0.15529   0.31053   0.00000  Uiso   1.00
C175   C     0.87172   0.00915   0.18902   0.00000  Uiso   1.00
C176   C     0.89624   0.31441   0.15189   0.00000  Uiso   1.00
C177   C     0.82421   0.20926   0.08366   0.00000  Uiso   1.00
C178   C     0.78616   0.19919   0.12274   0.00000  Uiso   1.00
C179   C     0.84978   0.23129   0.48794   0.00000  Uiso   1.00
C180   C     0.84058   0.30441   0.47484   0.00000  Uiso   1.00
C181   C     0.79696   0.31869   0.49558   0.00000  Uiso   1.00
C182   C     0.69047   0.17705   0.18598   0.00000  Uiso   1.00
C183   C     0.67141   0.18225   0.14726   0.00000  Uiso   1.00
C184   C     0.83925   0.18769   0.48281   0.00000  Uiso   1.00
C185   C     0.82542   0.17099   0.44451   0.00000  Uiso   1.00
C186   C     0.84519   0.15993   0.01256   0.00000  Uiso   1.00
C187   C     0.84971   0.11785   0.49622   0.00000  Uiso   1.00
C188   C     0.83794   0.10210   0.45741   0.00000  Uiso   1.00
C189   C     0.82246   0.12759   0.43411   0.00000  Uiso   1.00
H190   H     0.87770   0.08183   0.08082   0.00000  Uiso   1.00
H191   H     0.91136   0.33280   0.12251   0.00000  Uiso   1.00
H192   H     0.85052   0.02374   0.17413   0.00000  Uiso   1.00
H193   H     0.89504   0.03445   0.19859   0.00000  Uiso   1.00
H194   H     0.76855   0.16836   0.11606   0.00000  Uiso   1.00
H195   H     0.79594   0.19997   0.15424   0.00000  Uiso   1.00
H196   H     0.76451   0.22351   0.12757   0.00000  Uiso   1.00
H197   H     0.84888   0.23145   0.09510   0.00000  Uiso   1.00
H198   H     0.81029   0.22578   0.06301   0.00000  Uiso   1.00
H199   H     0.77683   0.31295   0.47146   0.00000  Uiso   1.00
H200   H     0.78081   0.30170   0.02576   0.00000  Uiso   1.00
H201   H     0.80251   0.33236   0.29477   0.00000  Uiso   1.00
H202   H     0.80050   0.01922   0.00538   0.00000  Uiso   1.00
H203   H     0.86068   0.31305   0.49884   0.00000  Uiso   1.00
H204   H     0.85630   0.32106   0.44433   0.00000  Uiso   1.00
H205   H     0.97912   0.15643   0.14465   0.00000  Uiso   1.00
H206   H     0.99275   0.21299   0.15095   0.00000  Uiso   1.00
H207   H     0.69636   0.18125   0.11555   0.00000  Uiso   1.00
H208   H     0.71297   0.20523   0.19019   0.00000  Uiso   1.00
H209   H     0.70848   0.14981   0.17558   0.00000  Uiso   1.00
H210   H     0.83858   0.06942   0.44631   0.00000  Uiso   1.00
H211   H     0.86952   0.05981   0.00655   0.00000  Uiso   1.00
H212   H     0.81155   0.26223   0.40733   0.00000  Uiso   1.00
H213   H     0.86745   0.24479   0.01185   0.00000  Uiso   1.00
H214   H     0.80959   0.11297   0.40696   0.00000  Uiso   1.00
H215   H     0.92202   0.30272   0.16244   0.00000  Uiso   1.00
H216   H     0.87438   0.28816   0.14163   0.00000  Uiso   1.00
N217   N     0.96239   0.15213   0.34673   0.00000  Uiso   1.00
O218   O     0.83333   0.16667   0.25000   0.00000  Uiso   1.00
O219   O     0.82118   0.12637   0.15458   0.00000  Uiso   1.00
O220   O     0.79607   0.20391   0.34968   0.00000  Uiso   1.00
O221   O     0.87491   0.17759   0.14606   0.00000  Uiso   1.00
O222   O     0.84118   0.15880   0.34968   0.00000  Uiso   1.00
O223   O     0.84597   0.08019   0.28213   0.00000  Uiso   1.00
O224   O     0.81298   0.26085   0.27013   0.00000  Uiso   1.00
O225   O     0.74078   0.13291   0.23413   0.00000  Uiso   1.00
O226   O     0.93360   0.19272   0.21360   0.00000  Uiso   1.00
O227   O     0.73738   0.18878   0.28213   0.00000  Uiso   1.00
O228   O     0.92158   0.15226   0.27013   0.00000  Uiso   1.00
O229   O     0.80426   0.06944   0.23413   0.00000  Uiso   1.00
O230   O     0.87012   0.25620   0.21360   0.00000  Uiso   1.00
Zn231  Zn    0.86005   0.13994   0.28734   0.00000  Uiso   1.00
Zn232  Zn    0.80046   0.12458   0.21875   0.00000  Uiso   1.00
Zn233  Zn    0.87723   0.19775   0.20657   0.00000  Uiso   1.00
Zn234  Zn    0.79560   0.20439   0.28733   0.00000  Uiso   1.00
C235   C     0.05303   0.49320   0.26016   0.00000  Uiso   1.00
C236   C     0.17741   0.50421   0.05840   0.00000  Uiso   1.00
C237   C     0.20171   0.43700   0.06217   0.00000  Uiso   1.00
C238   C     0.28071   0.50580   0.23903   0.00000  Uiso   1.00
C239   C     0.14996   0.53161   0.41648   0.00000  Uiso   1.00
C240   C     0.32639   0.50292   0.23138   0.00000  Uiso   1.00
C241   C     0.00803   0.49260   0.26516   0.00000  Uiso   1.00
C242   C     0.17785   0.65539   0.23127   0.00000  Uiso   1.00
C243   C     0.15399   0.34515   0.26366   0.00000  Uiso   1.00
C244   C     0.15566   0.38938   0.26101   0.00000  Uiso   1.00
C245   C     0.17602   0.61109   0.23882   0.00000  Uiso   1.00
C246   C     0.16959   0.59134   0.46357   0.00000  Uiso   1.00
C247   C     0.18536   0.48154   0.12966   0.00000  Uiso   1.00
C248   C     0.14890   0.51791   0.37058   0.00000  Uiso   1.00
C249   C     0.19698   0.42441   0.01999   0.00000  Uiso   1.00
C250   C     0.19043   0.47557   0.08206   0.00000  Uiso   1.00
C251   C     0.15237   0.57456   0.42823   0.00000  Uiso   1.00
C252   C     0.31588   0.48862   0.31053   0.00000  Uiso   1.00
C253   C     0.20506   0.34249   0.18902   0.00000  Uiso   1.00
C254   C     0.22957   0.64774   0.15189   0.00000  Uiso   1.00
C255   C     0.15755   0.54259   0.08366   0.00000  Uiso   1.00
C256   C     0.11949   0.53252   0.12274   0.00000  Uiso   1.00
C257   C     0.18311   0.56462   0.48794   0.00000  Uiso   1.00
C258   C     0.17392   0.63774   0.47484   0.00000  Uiso   1.00
C259   C     0.13029   0.65202   0.49558   0.00000  Uiso   1.00
C260   C     0.02380   0.51039   0.18598   0.00000  Uiso   1.00
C261   C     0.00474   0.51558   0.14726   0.00000  Uiso   1.00
C262   C     0.17258   0.52102   0.48281   0.00000  Uiso   1.00
C263   C     0.15876   0.50432   0.44451   0.00000  Uiso   1.00
C264   C     0.17853   0.49326   0.01256   0.00000  Uiso   1.00
C265   C     0.18304   0.45118   0.49622   0.00000  Uiso   1.00
C266   C     0.17127   0.43543   0.45741   0.00000  Uiso   1.00
C267   C     0.15580   0.46092   0.43411   0.00000  Uiso   1.00
H268   H     0.21104   0.41517   0.08082   0.00000  Uiso   1.00
H269   H     0.24469   0.66613   0.12251   0.00000  Uiso   1.00
H270   H     0.18385   0.35707   0.17413   0.00000  Uiso   1.00
H271   H     0.22837   0.36779   0.19859   0.00000  Uiso   1.00
H272   H     0.10189   0.50170   0.11606   0.00000  Uiso   1.00
H273   H     0.12927   0.53330   0.15424   0.00000  Uiso   1.00
H274   H     0.09784   0.55684   0.12757   0.00000  Uiso   1.00
H275   H     0.18221   0.56478   0.09510   0.00000  Uiso   1.00
H276   H     0.14362   0.55911   0.06301   0.00000  Uiso   1.00
H277   H     0.11017   0.64628   0.47146   0.00000  Uiso   1.00
H278   H     0.11414   0.63503   0.02576   0.00000  Uiso   1.00
H279   H     0.13585   0.66569   0.29477   0.00000  Uiso   1.00
H280   H     0.13383   0.35255   0.00538   0.00000  Uiso   1.00
H281   H     0.19401   0.64638   0.49884   0.00000  Uiso   1.00
H282   H     0.18963   0.65440   0.44433   0.00000  Uiso   1.00
H283   H     0.31245   0.48976   0.14465   0.00000  Uiso   1.00
H284   H     0.32609   0.54632   0.15095   0.00000  Uiso   1.00
H285   H     0.02969   0.51459   0.11555   0.00000  Uiso   1.00
H286   H     0.04630   0.53857   0.19019   0.00000  Uiso   1.00
H287   H     0.04181   0.48315   0.17558   0.00000  Uiso   1.00
H288   H     0.17191   0.40275   0.44631   0.00000  Uiso   1.00
H289   H     0.20285   0.39314   0.00655   0.00000  Uiso   1.00
H290   H     0.14488   0.59556   0.40733   0.00000  Uiso   1.00
H291   H     0.20079   0.57812   0.01185   0.00000  Uiso   1.00
H292   H     0.14293   0.44631   0.40696   0.00000  Uiso   1.00
H293   H     0.25535   0.63605   0.16244   0.00000  Uiso   1.00
H294   H     0.20771   0.62149   0.14163   0.00000  Uiso   1.00
N295   N     0.29573   0.48546   0.34673   0.00000  Uiso   1.00
O296   O     0.16667   0.50000   0.25000   0.00000  Uiso   1.00
O297   O     0.15451   0.45970   0.15458   0.00000  Uiso   1.00
O298   O     0.12940   0.53724   0.34968   0.00000  Uiso   1.00
O299   O     0.20824   0.51092   0.14606   0.00000  Uiso   1.00
O300   O     0.17451   0.49213   0.34968   0.00000  Uiso   1.00
O301   O     0.17930   0.41352   0.28213   0.00000  Uiso   1.00
O302   O     0.14632   0.59418   0.27013   0.00000  Uiso   1.00
O303   O     0.07412   0.46625   0.23413   0.00000  Uiso   1.00
O304   O     0.26693   0.52605   0.21360   0.00000  Uiso   1.00
O305   O     0.07071   0.52211   0.28213   0.00000  Uiso   1.00
O306   O     0.25491   0.48559   0.27013   0.00000  Uiso   1.00
O307   O     0.13760   0.40277   0.23413   0.00000  Uiso   1.00
O308   O     0.20345   0.58953   0.21360   0.00000  Uiso   1.00
Zn309  Zn    0.19338   0.47327   0.28734   0.00000  Uiso   1.00
Zn310  Zn    0.13379   0.45791   0.21875   0.00000  Uiso   1.00
Zn311  Zn    0.21056   0.53109   0.20657   0.00000  Uiso   1.00
Zn312  Zn    0.12893   0.53773   0.28733   0.00000  Uiso   1.00
C313   C     0.38637   0.49320   0.26016   0.00000  Uiso   1.00
C314   C     0.51074   0.50421   0.05840   0.00000  Uiso   1.00
C315   C     0.53504   0.43700   0.06217   0.00000  Uiso   1.00
C316   C     0.61405   0.50580   0.23903   0.00000  Uiso   1.00
C317   C     0.48330   0.53161   0.41648   0.00000  Uiso   1.00
C318   C     0.65972   0.50292   0.23138   0.00000  Uiso   1.00
C319   C     0.34137   0.49260   0.26516   0.00000  Uiso   1.00
C320   C     0.51119   0.65539   0.23127   0.00000  Uiso   1.00
C321   C     0.48732   0.34515   0.26366   0.00000  Uiso   1.00
C322   C     0.48900   0.38938   0.26101   0.00000  Uiso   1.00
C323   C     0.50936   0.61109   0.23882   0.00000  Uiso   1.00
C324   C     0.50292   0.59134   0.46357   0.00000  Uiso   1.00
C325   C     0.51870   0.48154   0.12966   0.00000  Uiso   1.00
C326   C     0.48223   0.51791   0.37058   0.00000  Uiso   1.00
C327   C     0.53031   0.42441   0.01999   0.00000  Uiso   1.00
C328   C     0.52377   0.47557   0.08206   0.00000  Uiso   1.00
C329   C     0.48570   0.57456   0.42823   0.00000  Uiso   1.00
C330   C     0.64921   0.48862   0.31053   0.00000  Uiso   1.00
C331   C     0.53839   0.34249   0.18902   0.00000  Uiso   1.00
C332   C     0.56291   0.64774   0.15189   0.00000  Uiso   1.00
C333   C     0.49088   0.54259   0.08366   0.00000  Uiso   1.00
C334   C     0.45283   0.53252   0.12274   0.00000  Uiso   1.00
C335   C     0.51645   0.56462   0.48794   0.00000  Uiso   1.00
C336   C     0.50725   0.63774   0.47484   0.00000  Uiso   1.00
C337   C     0.46363   0.65202   0.49558   0.00000  Uiso   1.00
C338   C     0.35714   0.51039   0.18598   0.00000  Uiso   1.00
C339   C     0.33807   0.51558   0.14726   0.00000  Uiso   1.00
C340   C     0.50592   0.52102   0.48281   0.00000  Uiso   1.00
C341   C     0.49209   0.50432   0.44451   0.00000  Uiso   1.00
C342   C     0.51186   0.49326   0.01256   0.00000  Uiso   1.00
C343   C     0.51637   0.45118   0.49622   0.00000  Uiso   1.00
C344   C     0.50461   0.43543   0.45741   0.00000  Uiso   1.00
C345   C     0.48913   0.46092   0.43411   0.00000  Uiso   1.00
H346   H     0.54437   0.41517   0.08082   0.00000  Uiso   1.00
H347   H     0.57803   0.66613   0.12251   0.00000  Uiso   1.00
H348   H     0.51718   0.35707   0.17413   0.00000  Uiso   1.00
H349   H     0.56170   0.36779   0.19859   0.00000  Uiso   1.00
H350   H     0.43522   0.50170   0.11606   0.00000  Uiso   1.00
H351   H     0.46261   0.53330   0.15424   0.00000  Uiso   1.00
H352   H     0.43117   0.55684   0.12757   0.00000  Uiso   1.00
H353   H     0.51554   0.56478   0.09510   0.00000  Uiso   1.00
H354   H     0.47695   0.55911   0.06301   0.00000  Uiso   1.00
H355   H     0.44350   0.64628   0.47146   0.00000  Uiso   1.00
H356   H     0.44748   0.63503   0.02576   0.00000  Uiso   1.00
H357   H     0.46918   0.66569   0.29477   0.00000  Uiso   1.00
H358   H     0.46716   0.35255   0.00538   0.00000  Uiso   1.00
H359   H     0.52734   0.64638   0.49884   0.00000  Uiso   1.00
H360   H     0.52297   0.65440   0.44433   0.00000  Uiso   1.00
H361   H     0.64579   0.48976   0.14465   0.00000  Uiso   1.00
H362   H     0.65942   0.54632   0.15095   0.00000  Uiso   1.00
H363   H     0.36302   0.51459   0.11555   0.00000  Uiso   1.00
H364   H     0.37964   0.53857   0.19019   0.00000  Uiso   1.00
H365   H     0.37515   0.48315   0.17558   0.00000  Uiso   1.00
H366   H     0.50525   0.40275   0.44631   0.00000  Uiso   1.00
H367   H     0.53618   0.39314   0.00655   0.00000  Uiso   1.00
H368   H     0.47821   0.59556   0.40733   0.00000  Uiso   1.00
H369   H     0.53412   0.57812   0.01185   0.00000  Uiso   1.00
H370   H     0.47626   0.44631   0.40696   0.00000  Uiso   1.00
H371   H     0.58868   0.63605   0.16244   0.00000  Uiso   1.00
H372   H     0.54104   0.62149   0.14163   0.00000  Uiso   1.00
N373   N     0.62906   0.48546   0.34673   0.00000  Uiso   1.00
O374   O     0.50000   0.50000   0.25000   0.00000  Uiso   1.00
O375   O     0.48784   0.45970   0.15458   0.00000  Uiso   1.00
O376   O     0.46274   0.53724   0.34968   0.00000  Uiso   1.00
O377   O     0.54157   0.51092   0.14606   0.00000  Uiso   1.00
O378   O     0.50785   0.49213   0.34968   0.00000  Uiso   1.00
O379   O     0.51264   0.41352   0.28213   0.00000  Uiso   1.00
O380   O     0.47965   0.59418   0.27013   0.00000  Uiso   1.00
O381   O     0.40745   0.46625   0.23413   0.00000  Uiso   1.00
O382   O     0.60026   0.52605   0.21360   0.00000  Uiso   1.00
O383   O     0.40405   0.52211   0.28213   0.00000  Uiso   1.00
O384   O     0.58824   0.48559   0.27013   0.00000  Uiso   1.00
O385   O     0.47093   0.40277   0.23413   0.00000  Uiso   1.00
O386   O     0.53678   0.58953   0.21360   0.00000  Uiso   1.00
Zn387  Zn    0.52672   0.47327   0.28734   0.00000  Uiso   1.00
Zn388  Zn    0.46713   0.45791   0.21875   0.00000  Uiso   1.00
Zn389  Zn    0.54389   0.53109   0.20657   0.00000  Uiso   1.00
Zn390  Zn    0.46226   0.53773   0.28733   0.00000  Uiso   1.00
C391   C     0.71970   0.49320   0.26016   0.00000  Uiso   1.00
C392   C     0.84408   0.50421   0.05840   0.00000  Uiso   1.00
C393   C     0.86838   0.43700   0.06217   0.00000  Uiso   1.00
C394   C     0.94738   0.50580   0.23903   0.00000  Uiso   1.00
C395   C     0.81663   0.53161   0.41648   0.00000  Uiso   1.00
C396   C     0.99306   0.50292   0.23138   0.00000  Uiso   1.00
C397   C     0.67470   0.49260   0.26516   0.00000  Uiso   1.00
C398   C     0.84452   0.65539   0.23127   0.00000  Uiso   1.00
C399   C     0.82066   0.34515   0.26366   0.00000  Uiso   1.00
C400   C     0.82233   0.38938   0.26101   0.00000  Uiso   1.00
C401   C     0.84269   0.61109   0.23882   0.00000  Uiso   1.00
C402   C     0.83626   0.59134   0.46357   0.00000  Uiso   1.00
C403   C     0.85203   0.48154   0.12966   0.00000  Uiso   1.00
C404   C     0.81556   0.51791   0.37058   0.00000  Uiso   1.00
C405   C     0.86364   0.42441   0.01999   0.00000  Uiso   1.00
C406   C     0.85710   0.47557   0.08206   0.00000  Uiso   1.00
C407   C     0.81903   0.57456   0.42823   0.00000  Uiso   1.00
C408   C     0.98255   0.48862   0.31053   0.00000  Uiso   1.00
C409   C     0.87172   0.34249   0.18902   0.00000  Uiso   1.00
C410   C     0.89624   0.64774   0.15189   0.00000  Uiso   1.00
C411   C     0.82421   0.54259   0.08366   0.00000  Uiso   1.00
C412   C     0.78616   0.53252   0.12274   0.00000  Uiso   1.00
C413   C     0.84978   0.56462   0.48794   0.00000  Uiso   1.00
C414   C     0.84058   0.63774   0.47484   0.00000  Uiso   1.00
C415   C     0.79696   0.65202   0.49558   0.00000  Uiso   1.00
C416   C     0.69047   0.51039   0.18598   0.00000  Uiso   1.00
C417   C     0.67141   0.51558   0.14726   0.00000  Uiso   1.00
C418   C     0.83925   0.52102   0.48281   0.00000  Uiso   1.00
C419   C     0.82542   0.50432   0.44451   0.00000  Uiso   1.00
C420   C     0.84519   0.49326   0.01256   0.00000  Uiso   1.00
C421   C     0.84971   0.45118   0.49622   0.00000  Uiso   1.00
C422   C     0.83794   0.43543   0.45741   0.00000  Uiso   1.00
C423   C     0.82246   0.46092   0.43411   0.00000  Uiso   1.00
H424   H     0.87770   0.41517   0.08082   0.00000  Uiso   1.00
H425   H     0.91136   0.66613   0.12251   0.00000  Uiso   1.00
H426   H     0.85052   0.35707   0.17413   0.00000  Uiso   1.00
H427   H     0.89504   0.36779   0.19859   0.00000  Uiso   1.00
H428   H     0.76855   0.50170   0.11606   0.00000  Uiso   1.00
H429   H     0.79594   0.53330   0.15424   0.00000  Uiso   1.00
H430   H     0.76451   0.55684   0.12757   0.00000  Uiso   1.00
H431   H     0.84888   0.56478   0.09510   0.00000  Uiso   1.00
H432   H     0.81029   0.55911   0.06301   0.00000  Uiso   1.00
H433   H     0.77683   0.64628   0.47146   0.00000  Uiso   1.00
H434   H     0.78081   0.63503   0.02576   0.00000  Uiso   1.00
H435   H     0.80251   0.66569   0.29477   0.00000  Uiso   1.00
H436   H     0.80050   0.35255   0.00538   0.00000  Uiso   1.00
H437   H     0.86068   0.64638   0.49884   0.00000  Uiso   1.00
H438   H     0.85630   0.65440   0.44433   0.00000  Uiso   1.00
H439   H     0.97912   0.48976   0.14465   0.00000  Uiso   1.00
H440   H     0.99275   0.54632   0.15095   0.00000  Uiso   1.00
H441   H     0.69636   0.51459   0.11555   0.00000  Uiso   1.00
H442   H     0.71297   0.53857   0.19019   0.00000  Uiso   1.00
H443   H     0.70848   0.48315   0.17558   0.00000  Uiso   1.00
H444   H     0.83858   0.40275   0.44631   0.00000  Uiso   1.00
H445   H     0.86952   0.39314   0.00655   0.00000  Uiso   1.00
H446   H     0.81155   0.59556   0.40733   0.00000  Uiso   1.00
H447   H     0.86745   0.57812   0.01185   0.00000  Uiso   1.00
H448   H     0.80959   0.44631   0.40696   0.00000  Uiso   1.00
H449   H     0.92202   0.63605   0.16244   0.00000  Uiso   1.00
H450   H     0.87438   0.62149   0.14163   0.00000  Uiso   1.00
N451   N     0.96239   0.48546   0.34673   0.00000  Uiso   1.00
O452   O     0.83333   0.50000   0.25000   0.00000  Uiso   1.00
O453   O     0.82118   0.45970   0.15458   0.00000  Uiso   1.00
O454   O     0.79607   0.53724   0.34968   0.00000  Uiso   1.00
O455   O     0.87491   0.51092   0.14606   0.00000  Uiso   1.00
O456   O     0.84118   0.49213   0.34968   0.00000  Uiso   1.00
O457   O     0.84597   0.41352   0.28213   0.00000  Uiso   1.00
O458   O     0.81298   0.59418   0.27013   0.00000  Uiso   1.00
O459   O     0.74078   0.46625   0.23413   0.00000  Uiso   1.00
O460   O     0.93360   0.52605   0.21360   0.00000  Uiso   1.00
O461   O     0.73738   0.52211   0.28213   0.00000  Uiso   1.00
O462   O     0.92158   0.48559   0.27013   0.00000  Uiso   1.00
O463   O     0.80426   0.40277   0.23413   0.00000  Uiso   1.00
O464   O     0.87012   0.58953   0.21360   0.00000  Uiso   1.00
Zn465  Zn    0.86005   0.47327   0.28734   0.00000  Uiso   1.00
Zn466  Zn    0.80046   0.45791   0.21875   0.00000  Uiso   1.00
Zn467  Zn    0.87723   0.53109   0.20657   0.00000  Uiso   1.00
Zn468  Zn    0.79560   0.53773   0.28733   0.00000  Uiso   1.00
C469   C     0.05303   0.82653   0.26016   0.00000  Uiso   1.00
C470   C     0.17741   0.83754   0.05840   0.00000  Uiso   1.00
C471   C     0.20171   0.77033   0.06217   0.00000  Uiso   1.00
C472   C     0.28071   0.83913   0.23903   0.00000  Uiso   1.00
C473   C     0.14996   0.86494   0.41648   0.00000  Uiso   1.00
C474   C     0.32639   0.83626   0.23138   0.00000  Uiso   1.00
C475   C     0.00803   0.82594   0.26516   0.00000  Uiso   1.00
C476   C     0.17785   0.98872   0.23127   0.00000  Uiso   1.00
C477   C     0.15399   0.67849   0.26366   0.00000  Uiso   1.00
C478   C     0.15566   0.72272   0.26101   0.00000  Uiso   1.00
C479   C     0.17602   0.94442   0.23882   0.00000  Uiso   1.00
C480   C     0.16959   0.92467   0.46357   0.00000  Uiso   1.00
C481   C     0.18536   0.81487   0.12966   0.00000  Uiso   1.00
C482   C     0.14890   0.85124   0.37058   0.00000  Uiso   1.00
C483   C     0.19698   0.75775   0.01999   0.00000  Uiso   1.00
C484   C     0.19043   0.80890   0.08206   0.00000  Uiso   1.00
C485   C     0.15237   0.90789   0.42823   0.00000  Uiso   1.00
C486   C     0.31588   0.82195   0.31053   0.00000  Uiso   1.00
C487   C     0.20506   0.67582   0.18902   0.00000  Uiso   1.00
C488   C     0.22957   0.98108   0.15189   0.00000  Uiso   1.00
C489   C     0.15755   0.87592   0.08366   0.00000  Uiso   1.00
C490   C     0.11949   0.86586   0.12274   0.00000  Uiso   1.00
C491   C     0.18311   0.89795   0.48794   0.00000  Uiso   1.00
C492   C     0.17392   0.97108   0.47484   0.00000  Uiso   1.00
C493   C     0.13029   0.98536   0.49558   0.00000  Uiso   1.00
C494   C     0.02380   0.84372   0.18598   0.00000  Uiso   1.00
C495   C     0.00474   0.84891   0.14726   0.00000  Uiso   1.00
C496   C     0.17258   0.85435   0.48281   0.00000  Uiso   1.00
C497   C     0.15876   0.83766   0.44451   0.00000  Uiso   1.00
C498   C     0.17853   0.82659   0.01256   0.00000  Uiso   1.00
C499   C     0.18304   0.78451   0.49622   0.00000  Uiso   1.00
C500   C     0.17127   0.76877   0.45741   0.00000  Uiso   1.00
C501   C     0.15580   0.79426   0.43411   0.00000  Uiso   1.00
H502   H     0.21104   0.74850   0.08082   0.00000  Uiso   1.00
H503   H     0.24469   0.99947   0.12251   0.00000  Uiso   1.00
H504   H     0.18385   0.69040   0.17413   0.00000  Uiso   1.00
H505   H     0.22837   0.70112   0.19859   0.00000  Uiso   1.00
H506   H     0.10189   0.83503   0.11606   0.00000  Uiso   1.00
H507   H     0.12927   0.86663   0.15424   0.00000  Uiso   1.00
H508   H     0.09784   0.89017   0.12757   0.00000  Uiso   1.00
H509   H     0.18221   0.89811   0.09510   0.00000  Uiso   1.00
H510   H     0.14362   0.89245   0.06301   0.00000  Uiso   1.00
H511   H     0.11017   0.97962   0.47146   0.00000  Uiso   1.00
H512   H     0.11414   0.96837   0.02576   0.00000  Uiso   1.00
H513   H     0.13585   0.99903   0.29477   0.00000  Uiso   1.00
H514   H     0.13383   0.68588   0.00538   0.00000  Uiso   1.00
H515   H     0.19401   0.97972   0.49884   0.00000  Uiso   1.00
H516   H     0.18963   0.98773   0.44433   0.00000  Uiso   1.00
H517   H     0.31245   0.82309   0.14465   0.00000  Uiso   1.00
H518   H     0.32609   0.87966   0.15095   0.00000  Uiso   1.00
H519   H     0.02969   0.84792   0.11555   0.00000  Uiso   1.00
H520   H     0.04630   0.87190   0.19019   0.00000  Uiso   1.00
H521   H     0.04181   0.81648   0.17558   0.00000  Uiso   1.00
H522   H     0.17191   0.73608   0.44631   0.00000  Uiso   1.00
H523   H     0.20285   0.72648   0.00655   0.00000  Uiso   1.00
H524   H     0.14488   0.92889   0.40733   0.00000  Uiso   1.00
H525   H     0.20079   0.91146   0.01185   0.00000  Uiso   1.00
H526   H     0.14293   0.77964   0.40696   0.00000  Uiso   1.00
H527   H     0.25535   0.96939   0.16244   0.00000  Uiso   1.00
H528   H     0.20771   0.95483   0.14163   0.00000  Uiso   1.00
N529   N     0.29573   0.81880   0.34673   0.00000  Uiso   1.00
O530   O     0.16667   0.83333   0.25000   0.00000  Uiso   1.00
O531   O     0.15451   0.79304   0.15458   0.00000  Uiso   1.00
O532   O     0.12940   0.87058   0.34968   0.00000  Uiso   1.00
O533   O     0.20824   0.84425   0.14606   0.00000  Uiso   1.00
O534   O     0.17451   0.82546   0.34968   0.00000  Uiso   1.00
O535   O     0.17930   0.74686   0.28213   0.00000  Uiso   1.00
O536   O     0.14632   0.92751   0.27013   0.00000  Uiso   1.00
O537   O     0.07412   0.79958   0.23413   0.00000  Uiso   1.00
O538   O     0.26693   0.85939   0.21360   0.00000  Uiso   1.00
O539   O     0.07071   0.85544   0.28213   0.00000  Uiso   1.00
O540   O     0.25491   0.81892   0.27013   0.00000  Uiso   1.00
O541   O     0.13760   0.73610   0.23413   0.00000  Uiso   1.00
O542   O     0.20345   0.92286   0.21360   0.00000  Uiso   1.00
Zn543  Zn    0.19338   0.80661   0.28734   0.00000  Uiso   1.00
Zn544  Zn    0.13379   0.79124   0.21875   0.00000  Uiso   1.00
Zn545  Zn    0.21056   0.86442   0.20657   0.00000  Uiso   1.00
Zn546  Zn    0.12893   0.87106   0.28733   0.00000  Uiso   1.00
C547   C     0.38637   0.82653   0.26016   0.00000  Uiso   1.00
C548   C     0.51074   0.83754   0.05840   0.00000  Uiso   1.00
C549   C     0.53504   0.77033   0.06217   0.00000  Uiso   1.00
C550   C     0.61405   0.83913   0.23903   0.00000  Uiso   1.00
C551   C     0.48330   0.86494   0.41648   0.00000  Uiso   1.00
C552   C     0.65972   0.83626   0.23138   0.00000  Uiso   1.00
C553   C     0.34137   0.82594   0.26516   0.00000  Uiso   1.00
C554   C     0.51119   0.98872   0.23127   0.00000  Uiso   1.00
C555   C     0.48732   0.67849   0.26366   0.00000  Uiso   1.00
C556   C     0.48900   0.72272   0.26101   0.00000  Uiso   1.00
C557   C     0.50936   0.94442   0.23882   0.00000  Uiso   1.00
C558   C     0.50292   0.92467   0.46357   0.00000  Uiso   1.00
C559   C     0.51870   0.81487   0.12966   0.00000  Uiso   1.00
C560   C     0.48223   0.85124   0.37058   0.00000  Uiso   1.00
C561   C     0.53031   0.75775   0.01999   0.00000  Uiso   1.00
C562   C     0.52377   0.80890   0.08206   0.00000  Uiso   1.00
C563   C     0.48570   0.90789   0.42823   0.00000  Uiso   1.00
C564   C     0.64921   0.82195   0.31053   0.00000  Uiso   1.00
C565   C     0.53839   0.67582   0.18902   0.00000  Uiso   1.00
C566   C     0.56291   0.98108   0.15189   0.00000  Uiso   1.00
C567   C     0.49088   0.87592   0.08366   0.00000  Uiso   1.00
C568   C     0.45283   0.86586   0.12274   0.00000  Uiso   1.00
C569   C     0.51645   0.89795   0.48794   0.00000  Uiso   1.00
C570   C     0.50725   0.97108   0.47484   0.00000  Uiso   1.00
C571   C     0.46363   0.98536   0.49558   0.00000  Uiso   1.00
C572   C     0.35714   0.84372   0.18598   0.00000  Uiso   1.00
C573   C     0.33807   0.84891   0.14726   0.00000  Uiso   1.00
C574   C     0.50592   0.85435   0.48281   0.00000  Uiso   1.00
C575   C     0.49209   0.83766   0.44451   0.00000  Uiso   1.00
C576   C     0.51186   0.82659   0.01256   0.00000  Uiso   1.00
C577   C     0.51637   0.78451   0.49622   0.00000  Uiso   1.00
C578   C     0.50461   0.76877   0.45741   0.00000  Uiso   1.00
C579   C     0.48913   0.79426   0.43411   0.00000  Uiso   1.00
H580   H     0.54437   0.74850   0.08082   0.00000  Uiso   1.00
H581   H     0.57803   0.99947   0.12251   0.00000  Uiso   1.00
H582   H     0.51718   0.69040   0.17413   0.00000  Uiso   1.00
H583   H     0.56170   0.70112   0.19859   0.00000  Uiso   1.00
H584   H     0.43522   0.83503   0.11606   0.00000  Uiso   1.00
H585   H     0.46261   0.86663   0.15424   0.00000  Uiso   1.00
H586   H     0.43117   0.89017   0.12757   0.00000  Uiso   1.00
H587   H     0.51554   0.89811   0.09510   0.00000  Uiso   1.00
H588   H     0.47695   0.89245   0.06301   0.00000  Uiso   1.00
H589   H     0.44350   0.97962   0.47146   0.00000  Uiso   1.00
H590   H     0.44748   0.96837   0.02576   0.00000  Uiso   1.00
H591   H     0.46918   0.99903   0.29477   0.00000  Uiso   1.00
H592   H     0.46716   0.68588   0.00538   0.00000  Uiso   1.00
H593   H     0.52734   0.97972   0.49884   0.00000  Uiso   1.00
H594   H     0.52297   0.98773   0.44433   0.00000  Uiso   1.00
H595   H     0.64579   0.82309   0.14465   0.00000  Uiso   1.00
H596   H     0.65942   0.87966   0.15095   0.00000  Uiso   1.00
H597   H     0.36302   0.84792   0.11555   0.00000  Uiso   1.00
H598   H     0.37964   0.87190   0.19019   0.00000  Uiso   1.00
H599   H     0.37515   0.81648   0.17558   0.00000  Uiso   1.00
H600   H     0.50525   0.73608   0.44631   0.00000  Uiso   1.00
H601   H     0.53618   0.72648   0.00655   0.00000  Uiso   1.00
H602   H     0.47821   0.92889   0.40733   0.00000  Uiso   1.00
H603   H     0.53412   0.91146   0.01185   0.00000  Uiso   1.00
H604   H     0.47626   0.77964   0.40696   0.00000  Uiso   1.00
H605   H     0.58868   0.96939   0.16244   0.00000  Uiso   1.00
H606   H     0.54104   0.95483   0.14163   0.00000  Uiso   1.00
N607   N     0.62906   0.81880   0.34673   0.00000  Uiso   1.00
O608   O     0.50000   0.83333   0.25000   0.00000  Uiso   1.00
O609   O     0.48784   0.79304   0.15458   0.00000  Uiso   1.00
O610   O     0.46274   0.87058   0.34968   0.00000  Uiso   1.00
O611   O     0.54157   0.84425   0.14606   0.00000  Uiso   1.00
O612   O     0.50785   0.82546   0.34968   0.00000  Uiso   1.00
O613   O     0.51264   0.74686   0.28213   0.00000  Uiso   1.00
O614   O     0.47965   0.92751   0.27013   0.00000  Uiso   1.00
O615   O     0.40745   0.79958   0.23413   0.00000  Uiso   1.00
O616   O     0.60026   0.85939   0.21360   0.00000  Uiso   1.00
O617   O     0.40405   0.85544   0.28213   0.00000  Uiso   1.00
O618   O     0.58824   0.81892   0.27013   0.00000  Uiso   1.00
O619   O     0.47093   0.73610   0.23413   0.00000  Uiso   1.00
O620   O     0.53678   0.92286   0.21360   0.00000  Uiso   1.00
Zn621  Zn    0.52672   0.80661   0.28734   0.00000  Uiso   1.00
Zn622  Zn    0.46713   0.79124   0.21875   0.00000  Uiso   1.00
Zn623  Zn    0.54389   0.86442   0.20657   0.00000  Uiso   1.00
Zn624  Zn    0.46226   0.87106   0.28733   0.00000  Uiso   1.00
C625   C     0.71970   0.82653   0.26016   0.00000  Uiso   1.00
C626   C     0.84408   0.83754   0.05840   0.00000  Uiso   1.00
C627   C     0.86838   0.77033   0.06217   0.00000  Uiso   1.00
C628   C     0.94738   0.83913   0.23903   0.00000  Uiso   1.00
C629   C     0.81663   0.86494   0.41648   0.00000  Uiso   1.00
C630   C     0.99306   0.83626   0.23138   0.00000  Uiso   1.00
C631   C     0.67470   0.82594   0.26516   0.00000  Uiso   1.00
C632   C     0.84452   0.98872   0.23127   0.00000  Uiso   1.00
C633   C     0.82066   0.67849   0.26366   0.00000  Uiso   1.00
C634   C     0.82233   0.72272   0.26101   0.00000  Uiso   1.00
C635   C     0.84269   0.94442   0.23882   0.00000  Uiso   1.00
C636   C     0.83626   0.92467   0.46357   0.00000  Uiso   1.00
C637   C     0.85203   0.81487   0.12966   0.00000  Uiso   1.00
C638   C     0.81556   0.85124   0.37058   0.00000  Uiso   1.00
C639   C     0.86364   0.75775   0.01999   0.00000  Uiso   1.00
C640   C     0.85710   0.80890   0.08206   0.00000  Uiso   1.00
C641   C     0.81903   0.90789   0.42823   0.00000  Uiso   1.00
C642   C     0.98255   0.82195   0.31053   0.00000  Uiso   1.00
C643   C     0.87172   0.67582   0.18902   0.00000  Uiso   1.00
C644   C     0.89624   0.98108   0.15189   0.00000  Uiso   1.00
C645   C     0.82421   0.87592   0.08366   0.00000  Uiso   1.00
C646   C     0.78616   0.86586   0.12274   0.00000  Uiso   1.00
C647   C     0.84978   0.89795   0.48794   0.00000  Uiso   1.00
C648   C     0.84058   0.97108   0.47484   0.00000  Uiso   1.00
C649   C     0.79696   0.98536   0.49558   0.00000  Uiso   1.00
C650   C     0.69047   0.84372   0.18598   0.00000  Uiso   1.00
C651   C     0.67141   0.84891   0.14726   0.00000  Uiso   1.00
C652   C     0.83925   0.85435   0.48281   0.00000  Uiso   1.00
C653   C     0.82542   0.83766   0.44451   0.00000  Uiso   1.00
C654   C     0.84519   0.82659   0.01256   0.00000  Uiso   1.00
C655   C     0.84971   0.78451   0.49622   0.00000  Uiso   1.00
C656   C     0.83794   0.76877   0.45741   0.00000  Uiso   1.00
C657   C     0.82246   0.79426   0.43411   0.00000  Uiso   1.00
H658   H     0.87770   0.74850   0.08082   0.00000  Uiso   1.00
H659   H     0.91136   0.99947   0.12251   0.00000  Uiso   1.00
H660   H     0.85052   0.69040   0.17413   0.00000  Uiso   1.00
H661   H     0.89504   0.70112   0.19859   0.00000  Uiso   1.00
H662   H     0.76855   0.83503   0.11606   0.00000  Uiso   1.00
H663   H     0.79594   0.86663   0.15424   0.00000  Uiso   1.00
H664   H     0.76451   0.89017   0.12757   0.00000  Uiso   1.00
H665   H     0.84888   0.89811   0.09510   0.00000  Uiso   1.00
H666   H     0.81029   0.89245   0.06301   0.00000  Uiso   1.00
H667   H     0.77683   0.97962   0.47146   0.00000  Uiso   1.00
H668   H     0.78081   0.96837   0.02576   0.00000  Uiso   1.00
H669   H     0.80251   0.99903   0.29477   0.00000  Uiso   1.00
H670   H     0.80050   0.68588   0.00538   0.00000  Uiso   1.00
H671   H     0.86068   0.97972   0.49884   0.00000  Uiso   1.00
H672   H     0.85630   0.98773   0.44433   0.00000  Uiso   1.00
H673   H     0.97912   0.82309   0.14465   0.00000  Uiso   1.00
H674   H     0.99275   0.87966   0.15095   0.00000  Uiso   1.00
H675   H     0.69636   0.84792   0.11555   0.00000  Uiso   1.00
H676   H     0.71297   0.87190   0.19019   0.00000  Uiso   1.00
H677   H     0.70848   0.81648   0.17558   0.00000  Uiso   1.00
H678   H     0.83858   0.73608   0.44631   0.00000  Uiso   1.00
H679   H     0.86952   0.72648   0.00655   0.00000  Uiso   1.00
H680   H     0.81155   0.92889   0.40733   0.00000  Uiso   1.00
H681   H     0.86745   0.91146   0.01185   0.00000  Uiso   1.00
H682   H     0.80959   0.77964   0.40696   0.00000  Uiso   1.00
H683   H     0.92202   0.96939   0.16244   0.00000  Uiso   1.00
H684   H     0.87438   0.95483   0.14163   0.00000  Uiso   1.00
N685   N     0.96239   0.81880   0.34673   0.00000  Uiso   1.00
O686   O     0.83333   0.83333   0.25000   0.00000  Uiso   1.00
O687   O     0.82118   0.79304   0.15458   0.00000  Uiso   1.00
O688   O     0.79607   0.87058   0.34968   0.00000  Uiso   1.00
O689   O     0.87491   0.84425   0.14606   0.00000  Uiso   1.00
O690   O     0.84118   0.82546   0.34968   0.00000  Uiso   1.00
O691   O     0.84597   0.74686   0.28213   0.00000  Uiso   1.00
O692   O     0.81298   0.92751   0.27013   0.00000  Uiso   1.00
O693   O     0.74078   0.79958   0.23413   0.00000  Uiso   1.00
O694   O     0.93360   0.85939   0.21360   0.00000  Uiso   1.00
O695   O     0.73738   0.85544   0.28213   0.00000  Uiso   1.00
O696   O     0.92158   0.81892   0.27013   0.00000  Uiso   1.00
O697   O     0.80426   0.73610   0.23413   0.00000  Uiso   1.00
O698   O     0.87012   0.92286   0.21360   0.00000  Uiso   1.00
Zn699  Zn    0.86005   0.80661   0.28734   0.00000  Uiso   1.00
Zn700  Zn    0.80046   0.79124   0.21875   0.00000  Uiso   1.00
Zn701  Zn    0.87723   0.86442   0.20657   0.00000  Uiso   1.00
Zn702  Zn    0.79560   0.87106   0.28733   0.00000  Uiso   1.00
C703   C     0.05303   0.15987   0.76016   0.00000  Uiso   1.00
C704   C     0.17741   0.17088   0.55840   0.00000  Uiso   1.00
C705   C     0.20171   0.10367   0.56217   0.00000  Uiso   1.00
C706   C     0.28071   0.17246   0.73903   0.00000  Uiso   1.00
C707   C     0.14996   0.19827   0.91648   0.00000  Uiso   1.00
C708   C     0.32639   0.16959   0.73138   0.00000  Uiso   1.00
C709   C     0.00803   0.15927   0.76516   0.00000  Uiso   1.00
C710   C     0.17785   0.32206   0.73127   0.00000  Uiso   1.00
C711   C     0.15399   0.01182   0.76366   0.00000  Uiso   1.00
C712   C     0.15566   0.05605   0.76101   0.00000  Uiso   1.00
C713   C     0.17602   0.27775   0.73882   0.00000  Uiso   1.00
C714   C     0.16959   0.25801   0.96357   0.00000  Uiso   1.00
C715   C     0.18536   0.14821   0.62966   0.00000  Uiso   1.00
C716   C     0.14890   0.18458   0.87058   0.00000  Uiso   1.00
C717   C     0.19698   0.09108   0.51999   0.00000  Uiso   1.00
C718   C     0.19043   0.14224   0.58206   0.00000  Uiso   1.00
C719   C     0.15237   0.24122   0.92823   0.00000  Uiso   1.00
C720   C     0.31588   0.15529   0.81053   0.00000  Uiso   1.00
C721   C     0.20506   0.00915   0.68902   0.00000  Uiso   1.00
C722   C     0.22957   0.31441   0.65189   0.00000  Uiso   1.00
C723   C     0.15755   0.20926   0.58366   0.00000  Uiso   1.00
C724   C     0.11949   0.19919   0.62274   0.00000  Uiso   1.00
C725   C     0.18311   0.23129   0.98794   0.00000  Uiso   1.00
C726   C     0.17392   0.30441   0.97484   0.00000  Uiso   1.00
C727   C     0.13029   0.31869   0.99558   0.00000  Uiso   1.00
C728   C     0.02380   0.17705   0.68598   0.00000  Uiso   1.00
C729   C     0.00474   0.18225   0.64726   0.00000  Uiso   1.00
C730   C     0.17258   0.18769   0.98281   0.00000  Uiso   1.00
C731   C     0.15876   0.17099   0.94451   0.00000  Uiso   1.00
C732   C     0.17853   0.15993   0.51256   0.00000  Uiso   1.00
C733   C     0.18304   0.11785   0.99622   0.00000  Uiso   1.00
C734   C     0.17127   0.10210   0.95741   0.00000  Uiso   1.00
C735   C     0.15580   0.12759   0.93411   0.00000  Uiso   1.00
H736   H     0.21104   0.08183   0.58082   0.00000  Uiso   1.00
H737   H     0.24469   0.33280   0.62251   0.00000  Uiso   1.00
H738   H     0.18385   0.02374   0.67413   0.00000  Uiso   1.00
H739   H     0.22837   0.03445   0.69859   0.00000  Uiso   1.00
H740   H     0.10189   0.16836   0.61606   0.00000  Uiso   1.00
H741   H     0.12927   0.19997   0.65424   0.00000  Uiso   1.00
H742   H     0.09784   0.22351   0.62757   0.00000  Uiso   1.00
H743   H     0.18221   0.23145   0.59510   0.00000  Uiso   1.00
H744   H     0.14362   0.22578   0.56301   0.00000  Uiso   1.00
H745   H     0.11017   0.31295   0.97146   0.00000  Uiso   1.00
H746   H     0.11414   0.30170   0.52576   0.00000  Uiso   1.00
H747   H     0.13585   0.33236   0.79477   0.00000  Uiso   1.00
H748   H     0.13383   0.01922   0.50538   0.00000  Uiso   1.00
H749   H     0.19401   0.31305   0.99884   0.00000  Uiso   1.00
H750   H     0.18963   0.32106   0.94433   0.00000  Uiso   1.00
H751   H     0.31245   0.15643   0.64465   0.00000  Uiso   1.00
H752   H     0.32609   0.21299   0.65095   0.00000  Uiso   1.00
H753   H     0.02969   0.18125   0.61555   0.00000  Uiso   1.00
H754   H     0.04630   0.20523   0.69019   0.00000  Uiso   1.00
H755   H     0.04181   0.14981   0.67558   0.00000  Uiso   1.00
H756   H     0.17191   0.06942   0.94631   0.00000  Uiso   1.00
H757   H     0.20285   0.05981   0.50655   0.00000  Uiso   1.00
H758   H     0.14488   0.26223   0.90733   0.00000  Uiso   1.00
H759   H     0.20079   0.24479   0.51185   0.00000  Uiso   1.00
H760   H     0.14293   0.11297   0.90696   0.00000  Uiso   1.00
H761   H     0.25535   0.30272   0.66244   0.00000  Uiso   1.00
H762   H     0.20771   0.28816   0.64163   0.00000  Uiso   1.00
N763   N     0.29573   0.15213   0.84673   0.00000  Uiso   1.00
O764   O     0.16667   0.16667   0.75000   0.00000  Uiso   1.00
O765   O     0.15451   0.12637   0.65458   0.00000  Uiso   1.00
O766   O     0.12940   0.20391   0.84968   0.00000  Uiso   1.00
O767   O     0.20824   0.17759   0.64606   0.00000  Uiso   1.00
O768   O     0.17451   0.15880   0.84968   0.00000  Uiso   1.00
O769   O     0.17930   0.08019   0.78213   0.00000  Uiso   1.00
O770   O     0.14632   0.26085   0.77013   0.00000  Uiso   1.00
O771   O     0.07412   0.13291   0.73413   0.00000  Uiso   1.00
O772   O     0.26693   0.19272   0.71360   0.00000  Uiso   1.00
O773   O     0.07071   0.18878   0.78213   0.00000  Uiso   1.00
O774   O     0.25491   0.15226   0.77013   0.00000  Uiso   1.00
O775   O     0.13760   0.06944   0.73413   0.00000  Uiso   1.00
O776   O     0.20345   0.25620   0.71360   0.00000  Uiso   1.00
Zn777  Zn    0.19338   0.13994   0.78734   0.00000  Uiso   1.00
Zn778  Zn    0.13379   0.12458   0.71875   0.00000  Uiso   1.00
Zn779  Zn    0.21056   0.19775   0.70657   0.00000  Uiso   1.00
Zn780  Zn    0.12893   0.20439   0.78733   0.00000  Uiso   1.00
C781   C     0.38637   0.15987   0.76016   0.00000  Uiso   1.00
C782   C     0.51074   0.17088   0.55840   0.00000  Uiso   1.00
C783   C     0.53504   0.10367   0.56217   0.00000  Uiso   1.00
C784   C     0.61405   0.17246   0.73903   0.00000  Uiso   1.00
C785   C     0.48330   0.19827   0.91648   0.00000  Uiso   1.00
C786   C     0.65972   0.16959   0.73138   0.00000  Uiso   1.00
C787   C     0.34137   0.15927   0.76516   0.00000  Uiso   1.00
C788   C     0.51119   0.32206   0.73127   0.00000  Uiso   1.00
C789   C     0.48732   0.01182   0.76366   0.00000  Uiso   1.00
C790   C     0.48900   0.05605   0.76101   0.00000  Uiso   1.00
C791   C     0.50936   0.27775   0.73882   0.00000  Uiso   1.00
C792   C     0.50292   0.25801   0.96357   0.00000  Uiso   1.00
C793   C     0.51870   0.14821   0.62966   0.00000  Uiso   1.00
C794   C     0.48223   0.18458   0.87058   0.00000  Uiso   1.00
C795   C     0.53031   0.09108   0.51999   0.00000  Uiso   1.00
C796   C     0.52377   0.14224   0.58206   0.00000  Uiso   1.00
C797   C     0.48570   0.24122   0.92823   0.00000  Uiso   1.00
C798   C     0.64921   0.15529   0.81053   0.00000  Uiso   1.00
C799   C     0.53839   0.00915   0.68902   0.00000  Uiso   1.00
C800   C     0.56291   0.31441   0.65189   0.00000  Uiso   1.00
C801   C     0.49088   0.20926   0.58366   0.00000  Uiso   1.00
C802   C     0.45283   0.19919   0.62274   0.00000  Uiso   1.00
C803   C     0.51645   0.23129   0.98794   0.00000  Uiso   1.00
C804   C     0.50725   0.30441   0.97484   0.00000  Uiso   1.00
C805   C     0.46363   0.31869   0.99558   0.00000  Uiso   1.00
C806   C     0.35714   0.17705   0.68598   0.00000  Uiso   1.00
C807   C     0.33807   0.18225   0.64726   0.00000  Uiso   1.00
C808   C     0.50592   0.18769   0.98281   0.00000  Uiso   1.00
C809   C     0.49209   0.17099   0.94451   0.00000  Uiso   1.00
C810   C     0.51186   0.15993   0.51256   0.00000  Uiso   1.00
C811   C     0.51637   0.11785   0.99622   0.00000  Uiso   1.00
C812   C     0.50461   0.10210   0.95741   0.00000  Uiso   1.00
C813   C     0.48913   0.12759   0.93411   0.00000  Uiso   1.00
H814   H     0.54437   0.08183   0.58082   0.00000  Uiso   1.00
H815   H     0.57803   0.33280   0.62251   0.00000  Uiso   1.00
H816   H     0.51718   0.02374   0.67413   0.00000  Uiso   1.00
H817   H     0.56170   0.03445   0.69859   0.00000  Uiso   1.00
H818   H     0.43522   0.16836   0.61606   0.00000  Uiso   1.00
H819   H     0.46261   0.19997   0.65424   0.00000  Uiso   1.00
H820   H     0.43117   0.22351   0.62757   0.00000  Uiso   1.00
H821   H     0.51554   0.23145   0.59510   0.00000  Uiso   1.00
H822   H     0.47695   0.22578   0.56301   0.00000  Uiso   1.00
H823   H     0.44350   0.31295   0.97146   0.00000  Uiso   1.00
H824   H     0.44748   0.30170   0.52576   0.00000  Uiso   1.00
H825   H     0.46918   0.33236   0.79477   0.00000  Uiso   1.00
H826   H     0.46716   0.01922   0.50538   0.00000  Uiso   1.00
H827   H     0.52734   0.31305   0.99884   0.00000  Uiso   1.00
H828   H     0.52297   0.32106   0.94433   0.00000  Uiso   1.00
H829   H     0.64579   0.15643   0.64465   0.00000  Uiso   1.00
H830   H     0.65942   0.21299   0.65095   0.00000  Uiso   1.00
H831   H     0.36302   0.18125   0.61555   0.00000  Uiso   1.00
H832   H     0.37964   0.20523   0.69019   0.00000  Uiso   1.00
H833   H     0.37515   0.14981   0.67558   0.00000  Uiso   1.00
H834   H     0.50525   0.06942   0.94631   0.00000  Uiso   1.00
H835   H     0.53618   0.05981   0.50655   0.00000  Uiso   1.00
H836   H     0.47821   0.26223   0.90733   0.00000  Uiso   1.00
H837   H     0.53412   0.24479   0.51185   0.00000  Uiso   1.00
H838   H     0.47626   0.11297   0.90696   0.00000  Uiso   1.00
H839   H     0.58868   0.30272   0.66244   0.00000  Uiso   1.00
H840   H     0.54104   0.28816   0.64163   0.00000  Uiso   1.00
N841   N     0.62906   0.15213   0.84673   0.00000  Uiso   1.00
O842   O     0.50000   0.16667   0.75000   0.00000  Uiso   1.00
O843   O     0.48784   0.12637   0.65458   0.00000  Uiso   1.00
O844   O     0.46274   0.20391   0.84968   0.00000  Uiso   1.00
O845   O     0.54157   0.17759   0.64606   0.00000  Uiso   1.00
O846   O     0.50785   0.15880   0.84968   0.00000  Uiso   1.00
O847   O     0.51264   0.08019   0.78213   0.00000  Uiso   1.00
O848   O     0.47965   0.26085   0.77013   0.00000  Uiso   1.00
O849   O     0.40745   0.13291   0.73413   0.00000  Uiso   1.00
O850   O     0.60026   0.19272   0.71360   0.00000  Uiso   1.00
O851   O     0.40405   0.18878   0.78213   0.00000  Uiso   1.00
O852   O     0.58824   0.15226   0.77013   0.00000  Uiso   1.00
O853   O     0.47093   0.06944   0.73413   0.00000  Uiso   1.00
O854   O     0.53678   0.25620   0.71360   0.00000  Uiso   1.00
Zn855  Zn    0.52672   0.13994   0.78734   0.00000  Uiso   1.00
Zn856  Zn    0.46713   0.12458   0.71875   0.00000  Uiso   1.00
Zn857  Zn    0.54389   0.19775   0.70657   0.00000  Uiso   1.00
Zn858  Zn    0.46226   0.20439   0.78733   0.00000  Uiso   1.00
C859   C     0.71970   0.15987   0.76016   0.00000  Uiso   1.00
C860   C     0.84408   0.17088   0.55840   0.00000  Uiso   1.00
C861   C     0.86838   0.10367   0.56217   0.00000  Uiso   1.00
C862   C     0.94738   0.17246   0.73903   0.00000  Uiso   1.00
C863   C     0.81663   0.19827   0.91648   0.00000  Uiso   1.00
C864   C     0.99306   0.16959   0.73138   0.00000  Uiso   1.00
C865   C     0.67470   0.15927   0.76516   0.00000  Uiso   1.00
C866   C     0.84452   0.32206   0.73127   0.00000  Uiso   1.00
C867   C     0.82066   0.01182   0.76366   0.00000  Uiso   1.00
C868   C     0.82233   0.05605   0.76101   0.00000  Uiso   1.00
C869   C     0.84269   0.27775   0.73882   0.00000  Uiso   1.00
C870   C     0.83626   0.25801   0.96357   0.00000  Uiso   1.00
C871   C     0.85203   0.14821   0.62966   0.00000  Uiso   1.00
C872   C     0.81556   0.18458   0.87058   0.00000  Uiso   1.00
C873   C     0.86364   0.09108   0.51999   0.00000  Uiso   1.00
C874   C     0.85710   0.14224   0.58206   0.00000  Uiso   1.00
C875   C     0.81903   0.24122   0.92823   0.00000  Uiso   1.00
C876   C     0.98255   0.15529   0.81053   0.00000  Uiso   1.00
C877   C     0.87172   0.00915   0.68902   0.00000  Uiso   1.00
C878   C     0.89624   0.31441   0.65189   0.00000  Uiso   1.00
C879   C     0.82421   0.20926   0.58366   0.00000  Uiso   1.00
C880   C     0.78616   0.19919   0.62274   0.00000  Uiso   1.00
C881   C     0.84978   0.23129   0.98794   0.00000  Uiso   1.00
C882   C     0.84058   0.30441   0.97484   0.00000  Uiso   1.00
C883   C     0.79696   0.31869   0.99558   0.00000  Uiso   1.00
C884   C     0.69047   0.17705   0.68598   0.00000  Uiso   1.00
C885   C     0.67141   0.18225   0.64726   0.00000  Uiso   1.00
C886   C     0.83925   0.18769   0.98281   0.00000  Uiso   1.00
C887   C     0.82542   0.17099   0.94451   0.00000  Uiso   1.00
C888   C     0.84519   0.15993   0.51256   0.00000  Uiso   1.00
C889   C     0.84971   0.11785   0.99622   0.00000  Uiso   1.00
C890   C     0.83794   0.10210   0.95741   0.00000  Uiso   1.00
C891   C     0.82246   0.12759   0.93411   0.00000  Uiso   1.00
H892   H     0.87770   0.08183   0.58082   0.00000  Uiso   1.00
H893   H     0.91136   0.33280   0.62251   0.00000  Uiso   1.00
H894   H     0.85052   0.02374   0.67413   0.00000  Uiso   1.00
H895   H     0.89504   0.03445   0.69859   0.00000  Uiso   1.00
H896   H     0.76855   0.16836   0.61606   0.00000  Uiso   1.00
H897   H     0.79594   0.19997   0.65424   0.00000  Uiso   1.00
H898   H     0.76451   0.22351   0.62757   0.00000  Uiso   1.00
H899   H     0.84888   0.23145   0.59510   0.00000  Uiso   1.00
H900   H     0.81029   0.22578   0.56301   0.00000  Uiso   1.00
H901   H     0.77683   0.31295   0.97146   0.00000  Uiso   1.00
H902   H     0.78081   0.30170   0.52576   0.00000  Uiso   1.00
H903   H     0.80251   0.33236   0.79477   0.00000  Uiso   1.00
H904   H     0.80050   0.01922   0.50538   0.00000  Uiso   1.00
H905   H     0.86068   0.31305   0.99884   0.00000  Uiso   1.00
H906   H     0.85630   0.32106   0.94433   0.00000  Uiso   1.00
H907   H     0.97912   0.15643   0.64465   0.00000  Uiso   1.00
H908   H     0.99275   0.21299   0.65095   0.00000  Uiso   1.00
H909   H     0.69636   0.18125   0.61555   0.00000  Uiso   1.00
H910   H     0.71297   0.20523   0.69019   0.00000  Uiso   1.00
H911   H     0.70848   0.14981   0.67558   0.00000  Uiso   1.00
H912   H     0.83858   0.06942   0.94631   0.00000  Uiso   1.00
H913   H     0.86952   0.05981   0.50655   0.00000  Uiso   1.00
H914   H     0.81155   0.26223   0.90733   0.00000  Uiso   1.00
H915   H     0.86745   0.24479   0.51185   0.00000  Uiso   1.00
H916   H     0.80959   0.11297   0.90696   0.00000  Uiso   1.00
H917   H     0.92202   0.30272   0.66244   0.00000  Uiso   1.00
H918   H     0.87438   0.28816   0.64163   0.00000  Uiso   1.00
N919   N     0.96239   0.15213   0.84673   0.00000  Uiso   1.00
O920   O     0.83333   0.16667   0.75000   0.00000  Uiso   1.00
O921   O     0.82118   0.12637   0.65458   0.00000  Uiso   1.00
O922   O     0.79607   0.20391   0.84968   0.00000  Uiso   1.00
O923   O     0.87491   0.17759   0.64606   0.00000  Uiso   1.00
O924   O     0.84118   0.15880   0.84968   0.00000  Uiso   1.00
O925   O     0.84597   0.08019   0.78213   0.00000  Uiso   1.00
O926   O     0.81298   0.26085   0.77013   0.00000  Uiso   1.00
O927   O     0.74078   0.13291   0.73413   0.00000  Uiso   1.00
O928   O     0.93360   0.19272   0.71360   0.00000  Uiso   1.00
O929   O     0.73738   0.18878   0.78213   0.00000  Uiso   1.00
O930   O     0.92158   0.15226   0.77013   0.00000  Uiso   1.00
O931   O     0.80426   0.06944   0.73413   0.00000  Uiso   1.00
O932   O     0.87012   0.25620   0.71360   0.00000  Uiso   1.00
Zn933  Zn    0.86005   0.13994   0.78734   0.00000  Uiso   1.00
Zn934  Zn    0.80046   0.12458   0.71875   0.00000  Uiso   1.00
Zn935  Zn    0.87723   0.19775   0.70657   0.00000  Uiso   1.00
Zn936  Zn    0.79560   0.20439   0.78733   0.00000  Uiso   1.00
C937   C     0.05303   0.49320   0.76016   0.00000  Uiso   1.00
C938   C     0.17741   0.50421   0.55840   0.00000  Uiso   1.00
C939   C     0.20171   0.43700   0.56217   0.00000  Uiso   1.00
C940   C     0.28071   0.50580   0.73903   0.00000  Uiso   1.00
C941   C     0.14996   0.53161   0.91648   0.00000  Uiso   1.00
C942   C     0.32639   0.50292   0.73138   0.00000  Uiso   1.00
C943   C     0.00803   0.49260   0.76516   0.00000  Uiso   1.00
C944   C     0.17785   0.65539   0.73127   0.00000  Uiso   1.00
C945   C     0.15399   0.34515   0.76366   0.00000  Uiso   1.00
C946   C     0.15566   0.38938   0.76101   0.00000  Uiso   1.00
C947   C     0.17602   0.61109   0.73882   0.00000  Uiso   1.00
C948   C     0.16959   0.59134   0.96357   0.00000  Uiso   1.00
C949   C     0.18536   0.48154   0.62966   0.00000  Uiso   1.00
C950   C     0.14890   0.51791   0.87058   0.00000  Uiso   1.00
C951   C     0.19698   0.42441   0.51999   0.00000  Uiso   1.00
C952   C     0.19043   0.47557   0.58206   0.00000  Uiso   1.00
C953   C     0.15237   0.57456   0.92823   0.00000  Uiso   1.00
C954   C     0.31588   0.48862   0.81053   0.00000  Uiso   1.00
C955   C     0.20506   0.34249   0.68902   0.00000  Uiso   1.00
C956   C     0.22957   0.64774   0.65189   0.00000  Uiso   1.00
C957   C     0.15755   0.54259   0.58366   0.00000  Uiso   1.00
C958   C     0.11949   0.53252   0.62274   0.00000  Uiso   1.00
C959   C     0.18311   0.56462   0.98794   0.00000  Uiso   1.00
C960   C     0.17392   0.63774   0.97484   0.00000  Uiso   1.00
C961   C     0.13029   0.65202   0.99558   0.00000  Uiso   1.00
C962   C     0.02380   0.51039   0.68598   0.00000  Uiso   1.00
C963   C     0.00474   0.51558   0.64726   0.00000  Uiso   1.00
C964   C     0.17258   0.52102   0.98281   0.00000  Uiso   1.00
C965   C     0.15876   0.50432   0.94451   0.00000  Uiso   1.00
C966   C     0.17853   0.49326   0.51256   0.00000  Uiso   1.00
C967   C     0.18304   0.45118   0.99622   0.00000  Uiso   1.00
C968   C     0.17127   0.43543   0.95741   0.00000  Uiso   1.00
C969   C     0.15580   0.46092   0.93411   0.00000  Uiso   1.00
H970   H     0.21104   0.41517   0.58082   0.00000  Uiso   1.00
H971   H     0.24469   0.66613   0.62251   0.00000  Uiso   1.00
H972   H     0.18385   0.35707   0.67413   0.00000  Uiso   1.00
H973   H     0.22837   0.36779   0.69859   0.00000  Uiso   1.00
H974   H     0.10189   0.50170   0.61606   0.00000  Uiso   1.00
H975   H     0.12927   0.53330   0.65424   0.00000  Uiso   1.00
H976   H     0.09784   0.55684   0.62757   0.00000  Uiso   1.00
H977   H     0.18221   0.56478   0.59510   0.00000  Uiso   1.00
H978   H     0.14362   0.55911   0.56301   0.00000  Uiso   1.00
H979   H     0.11017   0.64628   0.97146   0.00000  Uiso   1.00
H980   H     0.11414   0.63503   0.52576   0.00000  Uiso   1.00
H981   H     0.13585   0.66569   0.79477   0.00000  Uiso   1.00
H982   H     0.13383   0.35255   0.50538   0.00000  Uiso   1.00
H983   H     0.19401   0.64638   0.99884   0.00000  Uiso   1.00
H984   H     0.18963   0.65440   0.94433   0.00000  Uiso   1.00
H985   H     0.31245   0.48976   0.64465   0.00000  Uiso   1.00
H986   H     0.32609   0.54632   0.65095   0.00000  Uiso   1.00
H987   H     0.02969   0.51459   0.61555   0.00000  Uiso   1.00
H988   H     0.04630   0.53857   0.69019   0.00000  Uiso   1.00
H989   H     0.04181   0.48315   0.67558   0.00000  Uiso   1.00
H990   H     0.17191   0.40275   0.94631   0.00000  Uiso   1.00
H991   H     0.20285   0.39314   0.50655   0.00000  Uiso   1.00
H992   H     0.14488   0.59556   0.90733   0.00000  Uiso   1.00
H993   H     0.20079   0.57812   0.51185   0.00000  Uiso   1.00
H994   H     0.14293   0.44631   0.90696   0.00000  Uiso   1.00
H995   H     0.25535   0.63605   0.66244   0.00000  Uiso   1.00
H996   H     0.20771   0.62149   0.64163   0.00000  Uiso   1.00
N997   N     0.29573   0.48546   0.84673   0.00000  Uiso   1.00
O998   O     0.16667   0.50000   0.75000   0.00000  Uiso   1.00
O999   O     0.15451   0.45970   0.65458   0.00000  Uiso   1.00
O1000  O     0.12940   0.53724   0.84968   0.00000  Uiso   1.00
O1001  O     0.20824   0.51092   0.64606   0.00000  Uiso   1.00
O1002  O     0.17451   0.49213   0.84968   0.00000  Uiso   1.00
O1003  O     0.17930   0.41352   0.78213   0.00000  Uiso   1.00
O1004  O     0.14632   0.59418   0.77013   0.00000  Uiso   1.00
O1005  O     0.07412   0.46625   0.73413   0.00000  Uiso   1.00
O1006  O     0.26693   0.52605   0.71360   0.00000  Uiso   1.00
O1007  O     0.07071   0.52211   0.78213   0.00000  Uiso   1.00
O1008  O     0.25491   0.48559   0.77013   0.00000  Uiso   1.00
O1009  O     0.13760   0.40277   0.73413   0.00000  Uiso   1.00
O1010  O     0.20345   0.58953   0.71360   0.00000  Uiso   1.00
Zn1011 Zn    0.19338   0.47327   0.78734   0.00000  Uiso   1.00
Zn1012 Zn    0.13379   0.45791   0.71875   0.00000  Uiso   1.00
Zn1013 Zn    0.21056   0.53109   0.70657   0.00000  Uiso   1.00
Zn1014 Zn    0.12893   0.53773   0.78733   0.00000  Uiso   1.00
C1015  C     0.38637   0.49320   0.76016   0.00000  Uiso   1.00
C1016  C     0.51074   0.50421   0.55840   0.00000  Uiso   1.00
C1017  C     0.53504   0.43700   0.56217   0.00000  Uiso   1.00
C1018  C     0.61405   0.50580   0.73903   0.00000  Uiso   1.00
C1019  C     0.48330   0.53161   0.91648   0.00000  Uiso   1.00
C1020  C     0.65972   0.50292   0.73138   0.00000  Uiso   1.00
C1021  C     0.34137   0.49260   0.76516   0.00000  Uiso   1.00
C1022  C     0.51119   0.65539   0.73127   0.00000  Uiso   1.00
C1023  C     0.48732   0.34515   0.76366   0.00000  Uiso   1.00
C1024  C     0.48900   0.38938   0.76101   0.00000  Uiso   1.00
C1025  C     0.50936   0.61109   0.73882   0.00000  Uiso   1.00
C1026  C     0.50292   0.59134   0.96357   0.00000  Uiso   1.00
C1027  C     0.51870   0.48154   0.62966   0.00000  Uiso   1.00
C1028  C     0.48223   0.51791   0.87058   0.00000  Uiso   1.00
C1029  C     0.53031   0.42441   0.51999   0.00000  Uiso   1.00
C1030  C     0.52377   0.47557   0.58206   0.00000  Uiso   1.00
C1031  C     0.48570   0.57456   0.92823   0.00000  Uiso   1.00
C1032  C     0.64921   0.48862   0.81053   0.00000  Uiso   1.00
C1033  C     0.53839   0.34249   0.68902   0.00000  Uiso   1.00
C1034  C     0.56291   0.64774   0.65189   0.00000  Uiso   1.00
C1035  C     0.49088   0.54259   0.58366   0.00000  Uiso   1.00
C1036  C     0.45283   0.53252   0.62274   0.00000  Uiso   1.00
C1037  C     0.51645   0.56462   0.98794   0.00000  Uiso   1.00
C1038  C     0.50725   0.63774   0.97484   0.00000  Uiso   1.00
C1039  C     0.46363   0.65202   0.99558   0.00000  Uiso   1.00
C1040  C     0.35714   0.51039   0.68598   0.00000  Uiso   1.00
C1041  C     0.33807   0.51558   0.64726   0.00000  Uiso   1.00
C1042  C     0.50592   0.52102   0.98281   0.00000  Uiso   1.00
C1043  C     0.49209   0.50432   0.94451   0.00000  Uiso   1.00
C1044  C     0.51186   0.49326   0.51256   0.00000  Uiso   1.00
C1045  C     0.51637   0.45118   0.99622   0.00000  Uiso   1.00
C1046  C     0.50461   0.43543   0.95741   0.00000  Uiso   1.00
C1047  C     0.48913   0.46092   0.93411   0.00000  Uiso   1.00
H1048  H     0.54437   0.41517   0.58082   0.00000  Uiso   1.00
H1049  H     0.57803   0.66613   0.62251   0.00000  Uiso   1.00
H1050  H     0.51718   0.35707   0.67413   0.00000  Uiso   1.00
H1051  H     0.56170   0.36779   0.69859   0.00000  Uiso   1.00
H1052  H     0.43522   0.50170   0.61606   0.00000  Uiso   1.00
H1053  H     0.46261   0.53330   0.65424   0.00000  Uiso   1.00
H1054  H     0.43117   0.55684   0.62757   0.00000  Uiso   1.00
H1055  H     0.51554   0.56478   0.59510   0.00000  Uiso   1.00
H1056  H     0.47695   0.55911   0.56301   0.00000  Uiso   1.00
H1057  H     0.44350   0.64628   0.97146   0.00000  Uiso   1.00
H1058  H     0.44748   0.63503   0.52576   0.00000  Uiso   1.00
H1059  H     0.46918   0.66569   0.79477   0.00000  Uiso   1.00
H1060  H     0.46716   0.35255   0.50538   0.00000  Uiso   1.00
H1061  H     0.52734   0.64638   0.99884   0.00000  Uiso   1.00
H1062  H     0.52297   0.65440   0.94433   0.00000  Uiso   1.00
H1063  H     0.64579   0.48976   0.64465   0.00000  Uiso   1.00
H1064  H     0.65942   0.54632   0.65095   0.00000  Uiso   1.00
H1065  H     0.36302   0.51459   0.61555   0.00000  Uiso   1.00
H1066  H     0.37964   0.53857   0.69019   0.00000  Uiso   1.00
H1067  H     0.37515   0.48315   0.67558   0.00000  Uiso   1.00
H1068  H     0.50525   0.40275   0.94631   0.00000  Uiso   1.00
H1069  H     0.53618   0.39314   0.50655   0.00000  Uiso   1.00
H1070  H     0.47821   0.59556   0.90733   0.00000  Uiso   1.00
H1071  H     0.53412   0.57812   0.51185   0.00000  Uiso   1.00
H1072  H     0.47626   0.44631   0.90696   0.00000  Uiso   1.00
H1073  H     0.58868   0.63605   0.66244   0.00000  Uiso   1.00
H1074  H     0.54104   0.62149   0.64163   0.00000  Uiso   1.00
N1075  N     0.62906   0.48546   0.84673   0.00000  Uiso   1.00
O1076  O     0.50000   0.50000   0.75000   0.00000  Uiso   1.00
O1077  O     0.48784   0.45970   0.65458   0.00000  Uiso   1.00
O1078  O     0.46274   0.53724   0.84968   0.00000  Uiso   1.00
O1079  O     0.54157   0.51092   0.64606   0.00000  Uiso   1.00
O1080  O     0.50785   0.49213   0.84968   0.00000  Uiso   1.00
O1081  O     0.51264   0.41352   0.78213   0.00000  Uiso   1.00
O1082  O     0.47965   0.59418   0.77013   0.00000  Uiso   1.00
O1083  O     0.40745   0.46625   0.73413   0.00000  Uiso   1.00
O1084  O     0.60026   0.52605   0.71360   0.00000  Uiso   1.00
O1085  O     0.40405   0.52211   0.78213   0.00000  Uiso   1.00
O1086  O     0.58824   0.48559   0.77013   0.00000  Uiso   1.00
O1087  O     0.47093   0.40277   0.73413   0.00000  Uiso   1.00
O1088  O     0.53678   0.58953   0.71360   0.00000  Uiso   1.00
Zn1089 Zn    0.52672   0.47327   0.78734   0.00000  Uiso   1.00
Zn1090 Zn    0.46713   0.45791   0.71875   0.00000  Uiso   1.00
Zn1091 Zn    0.54389   0.53109   0.70657   0.00000  Uiso   1.00
Zn1092 Zn    0.46226   0.53773   0.78733   0.00000  Uiso   1.00
C1093  C     0.71970   0.49320   0.76016   0.00000  Uiso   1.00
C1094  C     0.84408   0.50421   0.55840   0.00000  Uiso   1.00
C1095  C     0.86838   0.43700   0.56217   0.00000  Uiso   1.00
C1096  C     0.94738   0.50580   0.73903   0.00000  Uiso   1.00
C1097  C     0.81663   0.53161   0.91648   0.00000  Uiso   1.00
C1098  C     0.99306   0.50292   0.73138   0.00000  Uiso   1.00
C1099  C     0.67470   0.49260   0.76516   0.00000  Uiso   1.00
C1100  C     0.84452   0.65539   0.73127   0.00000  Uiso   1.00
C1101  C     0.82066   0.34515   0.76366   0.00000  Uiso   1.00
C1102  C     0.82233   0.38938   0.76101   0.00000  Uiso   1.00
C1103  C     0.84269   0.61109   0.73882   0.00000  Uiso   1.00
C1104  C     0.83626   0.59134   0.96357   0.00000  Uiso   1.00
C1105  C     0.85203   0.48154   0.62966   0.00000  Uiso   1.00
C1106  C     0.81556   0.51791   0.87058   0.00000  Uiso   1.00
C1107  C     0.86364   0.42441   0.51999   0.00000  Uiso   1.00
C1108  C     0.85710   0.47557   0.58206   0.00000  Uiso   1.00
C1109  C     0.81903   0.57456   0.92823   0.00000  Uiso   1.00
C1110  C     0.98255   0.48862   0.81053   0.00000  Uiso   1.00
C1111  C     0.87172   0.34249   0.68902   0.00000  Uiso   1.00
C1112  C     0.89624   0.64774   0.65189   0.00000  Uiso   1.00
C1113  C     0.82421   0.54259   0.58366   0.00000  Uiso   1.00
C1114  C     0.78616   0.53252   0.62274   0.00000  Uiso   1.00
C1115  C     0.84978   0.56462   0.98794   0.00000  Uiso   1.00
C1116  C     0.84058   0.63774   0.97484   0.00000  Uiso   1.00
C1117  C     0.79696   0.65202   0.99558   0.00000  Uiso   1.00
C1118  C     0.69047   0.51039   0.68598   0.00000  Uiso   1.00
C1119  C     0.67141   0.51558   0.64726   0.00000  Uiso   1.00
C1120  C     0.83925   0.52102   0.98281   0.00000  Uiso   1.00
C1121  C     0.82542   0.50432   0.94451   0.00000  Uiso   1.00
C1122  C     0.84519   0.49326   0.51256   0.00000  Uiso   1.00
C1123  C     0.84971   0.45118   0.99622   0.00000  Uiso   1.00
C1124  C     0.83794   0.43543   0.95741   0.00000  Uiso   1.00
C1125  C     0.82246   0.46092   0.93411   0.00000  Uiso   1.00
H1126  H     0.87770   0.41517   0.58082   0.00000  Uiso   1.00
H1127  H     0.91136   0.66613   0.62251   0.00000  Uiso   1.00
H1128  H     0.85052   0.35707   0.67413   0.00000  Uiso   1.00
H1129  H     0.89504   0.36779   0.69859   0.00000  Uiso   1.00
H1130  H     0.76855   0.50170   0.61606   0.00000  Uiso   1.00
H1131  H     0.79594   0.53330   0.65424   0.00000  Uiso   1.00
H1132  H     0.76451   0.55684   0.62757   0.00000  Uiso   1.00
H1133  H     0.84888   0.56478   0.59510   0.00000  Uiso   1.00
H1134  H     0.81029   0.55911   0.56301   0.00000  Uiso   1.00
H1135  H     0.77683   0.64628   0.97146   0.00000  Uiso   1.00
H1136  H     0.78081   0.63503   0.52576   0.00000  Uiso   1.00
H1137  H     0.80251   0.66569   0.79477   0.00000  Uiso   1.00
H1138  H     0.80050   0.35255   0.50538   0.00000  Uiso   1.00
H1139  H     0.86068   0.64638   0.99884   0.00000  Uiso   1.00
H1140  H     0.85630   0.65440   0.94433   0.00000  Uiso   1.00
H1141  H     0.97912   0.48976   0.64465   0.00000  Uiso   1.00
H1142  H     0.99275   0.54632   0.65095   0.00000  Uiso   1.00
H1143  H     0.69636   0.51459   0.61555   0.00000  Uiso   1.00
H1144  H     0.71297   0.53857   0.69019   0.00000  Uiso   1.00
H1145  H     0.70848   0.48315   0.67558   0.00000  Uiso   1.00
H1146  H     0.83858   0.40275   0.94631   0.00000  Uiso   1.00
H1147  H     0.86952   0.39314   0.50655   0.00000  Uiso   1.00
H1148  H     0.81155   0.59556   0.90733   0.00000  Uiso   1.00
H1149  H     0.86745   0.57812   0.51185   0.00000  Uiso   1.00
H1150  H     0.80959   0.44631   0.90696   0.00000  Uiso   1.00
H1151  H     0.92202   0.63605   0.66244   0.00000  Uiso   1.00
H1152  H     0.87438   0.62149   0.64163   0.00000  Uiso   1.00
N1153  N     0.96239   0.48546   0.84673   0.00000  Uiso   1.00
O1154  O     0.83333   0.50000   0.75000   0.00000  Uiso   1.00
O1155  O     0.82118   0.45970   0.65458   0.00000  Uiso   1.00
O1156  O     0.79607   0.53724   0.84968   0.00000  Uiso   1.00
O1157  O     0.87491   0.51092   0.64606   0.00000  Uiso   1.00
O1158  O     0.84118   0.49213   0.84968   0.00000  Uiso   1.00
O1159  O     0.84597   0.41352   0.78213   0.00000  Uiso   1.00
O1160  O     0.81298   0.59418   0.77013   0.00000  Uiso   1.00
O1161  O     0.74078   0.46625   0.73413   0.00000  Uiso   1.00
O1162  O     0.93360   0.52605   0.71360   0.00000  Uiso   1.00
O1163  O     0.73738   0.52211   0.78213   0.00000  Uiso   1.00
O1164  O     0.92158   0.48559   0.77013   0.00000  Uiso   1.00
O1165  O     0.80426   0.40277   0.73413   0.00000  Uiso   1.00
O1166  O     0.87012   0.58953   0.71360   0.00000  Uiso   1.00
Zn1167 Zn    0.86005   0.47327   0.78734   0.00000  Uiso   1.00
Zn1168 Zn    0.80046   0.45791   0.71875   0.00000  Uiso   1.00
Zn1169 Zn    0.87723   0.53109   0.70657   0.00000  Uiso   1.00
Zn1170 Zn    0.79560   0.53773   0.78733   0.00000  Uiso   1.00
C1171  C     0.05303   0.82653   0.76016   0.00000  Uiso   1.00
C1172  C     0.17741   0.83754   0.55840   0.00000  Uiso   1.00
C1173  C     0.20171   0.77033   0.56217   0.00000  Uiso   1.00
C1174  C     0.28071   0.83913   0.73903   0.00000  Uiso   1.00
C1175  C     0.14996   0.86494   0.91648   0.00000  Uiso   1.00
C1176  C     0.32639   0.83626   0.73138   0.00000  Uiso   1.00
C1177  C     0.00803   0.82594   0.76516   0.00000  Uiso   1.00
C1178  C     0.17785   0.98872   0.73127   0.00000  Uiso   1.00
C1179  C     0.15399   0.67849   0.76366   0.00000  Uiso   1.00
C1180  C     0.15566   0.72272   0.76101   0.00000  Uiso   1.00
C1181  C     0.17602   0.94442   0.73882   0.00000  Uiso   1.00
C1182  C     0.16959   0.92467   0.96357   0.00000  Uiso   1.00
C1183  C     0.18536   0.81487   0.62966   0.00000  Uiso   1.00
C1184  C     0.14890   0.85124   0.87058   0.00000  Uiso   1.00
C1185  C     0.19698   0.75775   0.51999   0.00000  Uiso   1.00
C1186  C     0.19043   0.80890   0.58206   0.00000  Uiso   1.00
C1187  C     0.15237   0.90789   0.92823   0.00000  Uiso   1.00
C1188  C     0.31588   0.82195   0.81053   0.00000  Uiso   1.00
C1189  C     0.20506   0.67582   0.68902   0.00000  Uiso   1.00
C1190  C     0.22957   0.98108   0.65189   0.00000  Uiso   1.00
C1191  C     0.15755   0.87592   0.58366   0.00000  Uiso   1.00
C1192  C     0.11949   0.86586   0.62274   0.00000  Uiso   1.00
C1193  C     0.18311   0.89795   0.98794   0.00000  Uiso   1.00
C1194  C     0.17392   0.97108   0.97484   0.00000  Uiso   1.00
C1195  C     0.13029   0.98536   0.99558   0.00000  Uiso   1.00
C1196  C     0.02380   0.84372   0.68598   0.00000  Uiso   1.00
C1197  C     0.00474   0.84891   0.64726   0.00000  Uiso   1.00
C1198  C     0.17258   0.85435   0.98281   0.00000  Uiso   1.00
C1199  C     0.15876   0.83766   0.94451   0.00000  Uiso   1.00
C1200  C     0.17853   0.82659   0.51256   0.00000  Uiso   1.00
C1201  C     0.18304   0.78451   0.99622   0.00000  Uiso   1.00
C1202  C     0.17127   0.76877   0.95741   0.00000  Uiso   1.00
C1203  C     0.15580   0.79426   0.93411   0.00000  Uiso   1.00
H1204  H     0.21104   0.74850   0.58082   0.00000  Uiso   1.00
H1205  H     0.24469   0.99947   0.62251   0.00000  Uiso   1.00
H1206  H     0.18385   0.69040   0.67413   0.00000  Uiso   1.00
H1207  H     0.22837   0.70112   0.69859   0.00000  Uiso   1.00
H1208  H     0.10189   0.83503   0.61606   0.00000  Uiso   1.00
H1209  H     0.12927   0.86663   0.65424   0.00000  Uiso   1.00
H1210  H     0.09784   0.89017   0.62757   0.00000  Uiso   1.00
H1211  H     0.18221   0.89811   0.59510   0.00000  Uiso   1.00
H1212  H     0.14362   0.89245   0.56301   0.00000  Uiso   1.00
H1213  H     0.11017   0.97962   0.97146   0.00000  Uiso   1.00
H1214  H     0.11414   0.96837   0.52576   0.00000  Uiso   1.00
H1215  H     0.13585   0.99903   0.79477   0.00000  Uiso   1.00
H1216  H     0.13383   0.68588   0.50538   0.00000  Uiso   1.00
H1217  H     0.19401   0.97972   0.99884   0.00000  Uiso   1.00
H1218  H     0.18963   0.98773   0.94433   0.00000  Uiso   1.00
H1219  H     0.31245   0.82309   0.64465   0.00000  Uiso   1.00
H1220  H     0.32609   0.87966   0.65095   0.00000  Uiso   1.00
H1221  H     0.02969   0.84792   0.61555   0.00000  Uiso   1.00
H1222  H     0.04630   0.87190   0.69019   0.00000  Uiso   1.00
H1223  H     0.04181   0.81648   0.67558   0.00000  Uiso   1.00
H1224  H     0.17191   0.73608   0.94631   0.00000  Uiso   1.00
H1225  H     0.20285   0.72648   0.50655   0.00000  Uiso   1.00
H1226  H     0.14488   0.92889   0.90733   0.00000  Uiso   1.00
H1227  H     0.20079   0.91146   0.51185   0.00000  Uiso   1.00
H1228  H     0.14293   0.77964   0.90696   0.00000  Uiso   1.00
H1229  H     0.25535   0.96939   0.66244   0.00000  Uiso   1.00
H1230  H     0.20771   0.95483   0.64163   0.00000  Uiso   1.00
N1231  N     0.29573   0.81880   0.84673   0.00000  Uiso   1.00
O1232  O     0.16667   0.83333   0.75000   0.00000  Uiso   1.00
O1233  O     0.15451   0.79304   0.65458   0.00000  Uiso   1.00
O1234  O     0.12940   0.87058   0.84968   0.00000  Uiso   1.00
O1235  O     0.20824   0.84425   0.64606   0.00000  Uiso   1.00
O1236  O     0.17451   0.82546   0.84968   0.00000  Uiso   1.00
O1237  O     0.17930   0.74686   0.78213   0.00000  Uiso   1.00
O1238  O     0.14632   0.92751   0.77013   0.00000  Uiso   1.00
O1239  O     0.07412   0.79958   0.73413   0.00000  Uiso   1.00
O1240  O     0.26693   0.85939   0.71360   0.00000  Uiso   1.00
O1241  O     0.07071   0.85544   0.78213   0.00000  Uiso   1.00
O1242  O     0.25491   0.81892   0.77013   0.00000  Uiso   1.00
O1243  O     0.13760   0.73610   0.73413   0.00000  Uiso   1.00
O1244  O     0.20345   0.92286   0.71360   0.00000  Uiso   1.00
Zn1245 Zn    0.19338   0.80661   0.78734   0.00000  Uiso   1.00
Zn1246 Zn    0.13379   0.79124   0.71875   0.00000  Uiso   1.00
Zn1247 Zn    0.21056   0.86442   0.70657   0.00000  Uiso   1.00
Zn1248 Zn    0.12893   0.87106   0.78733   0.00000  Uiso   1.00
C1249  C     0.38637   0.82653   0.76016   0.00000  Uiso   1.00
C1250  C     0.51074   0.83754   0.55840   0.00000  Uiso   1.00
C1251  C     0.53504   0.77033   0.56217   0.00000  Uiso   1.00
C1252  C     0.61405   0.83913   0.73903   0.00000  Uiso   1.00
C1253  C     0.48330   0.86494   0.91648   0.00000  Uiso   1.00
C1254  C     0.65972   0.83626   0.73138   0.00000  Uiso   1.00
C1255  C     0.34137   0.82594   0.76516   0.00000  Uiso   1.00
C1256  C     0.51119   0.98872   0.73127   0.00000  Uiso   1.00
C1257  C     0.48732   0.67849   0.76366   0.00000  Uiso   1.00
C1258  C     0.48900   0.72272   0.76101   0.00000  Uiso   1.00
C1259  C     0.50936   0.94442   0.73882   0.00000  Uiso   1.00
C1260  C     0.50292   0.92467   0.96357   0.00000  Uiso   1.00
C1261  C     0.51870   0.81487   0.62966   0.00000  Uiso   1.00
C1262  C     0.48223   0.85124   0.87058   0.00000  Uiso   1.00
C1263  C     0.53031   0.75775   0.51999   0.00000  Uiso   1.00
C1264  C     0.52377   0.80890   0.58206   0.00000  Uiso   1.00
C1265  C     0.48570   0.90789   0.92823   0.00000  Uiso   1.00
C1266  C     0.64921   0.82195   0.81053   0.00000  Uiso   1.00
C1267  C     0.53839   0.67582   0.68902   0.00000  Uiso   1.00
C1268  C     0.56291   0.98108   0.65189   0.00000  Uiso   1.00
C1269  C     0.49088   0.87592   0.58366   0.00000  Uiso   1.00
C1270  C     0.45283   0.86586   0.62274   0.00000  Uiso   1.00
C1271  C     0.51645   0.89795   0.98794   0.00000  Uiso   1.00
C1272  C     0.50725   0.97108   0.97484   0.00000  Uiso   1.00
C1273  C     0.46363   0.98536   0.99558   0.00000  Uiso   1.00
C1274  C     0.35714   0.84372   0.68598   0.00000  Uiso   1.00
C1275  C     0.33807   0.84891   0.64726   0.00000  Uiso   1.00
C1276  C     0.50592   0.85435   0.98281   0.00000  Uiso   1.00
C1277  C     0.49209   0.83766   0.94451   0.00000  Uiso   1.00
C1278  C     0.51186   0.82659   0.51256   0.00000  Uiso   1.00
C1279  C     0.51637   0.78451   0.99622   0.00000  Uiso   1.00
C1280  C     0.50461   0.76877   0.95741   0.00000  Uiso   1.00
C1281  C     0.48913   0.79426   0.93411   0.00000  Uiso   1.00
H1282  H     0.54437   0.74850   0.58082   0.00000  Uiso   1.00
H1283  H     0.57803   0.99947   0.62251   0.00000  Uiso   1.00
H1284  H     0.51718   0.69040   0.67413   0.00000  Uiso   1.00
H1285  H     0.56170   0.70112   0.69859   0.00000  Uiso   1.00
H1286  H     0.43522   0.83503   0.61606   0.00000  Uiso   1.00
H1287  H     0.46261   0.86663   0.65424   0.00000  Uiso   1.00
H1288  H     0.43117   0.89017   0.62757   0.00000  Uiso   1.00
H1289  H     0.51554   0.89811   0.59510   0.00000  Uiso   1.00
H1290  H     0.47695   0.89245   0.56301   0.00000  Uiso   1.00
H1291  H     0.44350   0.97962   0.97146   0.00000  Uiso   1.00
H1292  H     0.44748   0.96837   0.52576   0.00000  Uiso   1.00
H1293  H     0.46918   0.99903   0.79477   0.00000  Uiso   1.00
H1294  H     0.46716   0.68588   0.50538   0.00000  Uiso   1.00
H1295  H     0.52734   0.97972   0.99884   0.00000  Uiso   1.00
H1296  H     0.52297   0.98773   0.94433   0.00000  Uiso   1.00
H1297  H     0.64579   0.82309   0.64465   0.00000  Uiso   1.00
H1298  H     0.65942   0.87966   0.65095   0.00000  Uiso   1.00
H1299  H     0.36302   0.84792   0.61555   0.00000  Uiso   1.00
H1300  H     0.37964   0.87190   0.69019   0.00000  Uiso   1.00
H1301  H     0.37515   0.81648   0.67558   0.00000  Uiso   1.00
H1302  H     0.50525   0.73608   0.94631   0.00000  Uiso   1.00
H1303  H     0.53618   0.72648   0.50655   0.00000  Uiso   1.00
H1304  H     0.47821   0.92889   0.90733   0.00000  Uiso   1.00
H1305  H     0.53412   0.91146   0.51185   0.00000  Uiso   1.00
H1306  H     0.47626   0.77964   0.90696   0.00000  Uiso   1.00
H1307  H     0.58868   0.96939   0.66244   0.00000  Uiso   1.00
H1308  H     0.54104   0.95483   0.64163   0.00000  Uiso   1.00
N1309  N     0.62906   0.81880   0.84673   0.00000  Uiso   1.00
O1310  O     0.50000   0.83333   0.75000   0.00000  Uiso   1.00
O1311  O     0.48784   0.79304   0.65458   0.00000  Uiso   1.00
O1312  O     0.46274   0.87058   0.84968   0.00000  Uiso   1.00
O1313  O     0.54157   0.84425   0.64606   0.00000  Uiso   1.00
O1314  O     0.50785   0.82546   0.84968   0.00000  Uiso   1.00
O1315  O     0.51264   0.74686   0.78213   0.00000  Uiso   1.00
O1316  O     0.47965   0.92751   0.77013   0.00000  Uiso   1.00
O1317  O     0.40745   0.79958   0.73413   0.00000  Uiso   1.00
O1318  O     0.60026   0.85939   0.71360   0.00000  Uiso   1.00
O1319  O     0.40405   0.85544   0.78213   0.00000  Uiso   1.00
O1320  O     0.58824   0.81892   0.77013   0.00000  Uiso   1.00
O1321  O     0.47093   0.73610   0.73413   0.00000  Uiso   1.00
O1322  O     0.53678   0.92286   0.71360   0.00000  Uiso   1.00
Zn1323 Zn    0.52672   0.80661   0.78734   0.00000  Uiso   1.00
Zn1324 Zn    0.46713   0.79124   0.71875   0.00000  Uiso   1.00
Zn1325 Zn    0.54389   0.86442   0.70657   0.00000  Uiso   1.00
Zn1326 Zn    0.46226   0.87106   0.78733   0.00000  Uiso   1.00
C1327  C     0.71970   0.82653   0.76016   0.00000  Uiso   1.00
C1328  C     0.84408   0.83754   0.55840   0.00000  Uiso   1.00
C1329  C     0.86838   0.77033   0.56217   0.00000  Uiso   1.00
C1330  C     0.94738   0.83913   0.73903   0.00000  Uiso   1.00
C1331  C     0.81663   0.86494   0.91648   0.00000  Uiso   1.00
C1332  C     0.99306   0.83626   0.73138   0.00000  Uiso   1.00
C1333  C     0.67470   0.82594   0.76516   0.00000  Uiso   1.00
C1334  C     0.84452   0.98872   0.73127   0.00000  Uiso   1.00
C1335  C     0.82066   0.67849   0.76366   0.00000  Uiso   1.00
C1336  C     0.82233   0.72272   0.76101   0.00000  Uiso   1.00
C1337  C     0.84269   0.94442   0.73882   0.00000  Uiso   1.00
C1338  C     0.83626   0.92467   0.96357   0.00000  Uiso   1.00
C1339  C     0.85203   0.81487   0.62966   0.00000  Uiso   1.00
C1340  C     0.81556   0.85124   0.87058   0.00000  Uiso   1.00
C1341  C     0.86364   0.75775   0.51999   0.00000  Uiso   1.00
C1342  C     0.85710   0.80890   0.58206   0.00000  Uiso   1.00
C1343  C     0.81903   0.90789   0.92823   0.00000  Uiso   1.00
C1344  C     0.98255   0.82195   0.81053   0.00000  Uiso   1.00
C1345  C     0.87172   0.67582   0.68902   0.00000  Uiso   1.00
C1346  C     0.89624   0.98108   0.65189   0.00000  Uiso   1.00
C1347  C     0.82421   0.87592   0.58366   0.00000  Uiso   1.00
C1348  C     0.78616   0.86586   0.62274   0.00000  Uiso   1.00
C1349  C     0.84978   0.89795   0.98794   0.00000  Uiso   1.00
C1350  C     0.84058   0.97108   0.97484   0.00000  Uiso   1.00
C1351  C     0.79696   0.98536   0.99558   0.00000  Uiso   1.00
C1352  C     0.69047   0.84372   0.68598   0.00000  Uiso   1.00
C1353  C     0.67141   0.84891   0.64726   0.00000  Uiso   1.00
C1354  C     0.83925   0.85435   0.98281   0.00000  Uiso   1.00
C1355  C     0.82542   0.83766   0.94451   0.00000  Uiso   1.00
C1356  C     0.84519   0.82659   0.51256   0.00000  Uiso   1.00
C1357  C     0.84971   0.78451   0.99622   0.00000  Uiso   1.00
C1358  C     0.83794   0.76877   0.95741   0.00000  Uiso   1.00
C1359  C     0.82246   0.79426   0.93411   0.00000  Uiso   1.00
H1360  H     0.87770   0.74850   0.58082   0.00000  Uiso   1.00
H1361  H     0.91136   0.99947   0.62251   0.00000  Uiso   1.00
H1362  H     0.85052   0.69040   0.67413   0.00000  Uiso   1.00
H1363  H     0.89504   0.70112   0.69859   0.00000  Uiso   1.00
H1364  H     0.76855   0.83503   0.61606   0.00000  Uiso   1.00
H1365  H     0.79594   0.86663   0.65424   0.00000  Uiso   1.00
H1366  H     0.76451   0.89017   0.62757   0.00000  Uiso   1.00
H1367  H     0.84888   0.89811   0.59510   0.00000  Uiso   1.00
H1368  H     0.81029   0.89245   0.56301   0.00000  Uiso   1.00
H1369  H     0.77683   0.97962   0.97146   0.00000  Uiso   1.00
H1370  H     0.78081   0.96837   0.52576   0.00000  Uiso   1.00
H1371  H     0.80251   0.99903   0.79477   0.00000  Uiso   1.00
H1372  H     0.80050   0.68588   0.50538   0.00000  Uiso   1.00
H1373  H     0.86068   0.97972   0.99884   0.00000  Uiso   1.00
H1374  H     0.85630   0.98773   0.94433   0.00000  Uiso   1.00
H1375  H     0.97912   0.82309   0.64465   0.00000  Uiso   1.00
H1376  H     0.99275   0.87966   0.65095   0.00000  Uiso   1.00
H1377  H     0.69636   0.84792   0.61555   0.00000  Uiso   1.00
H1378  H     0.71297   0.87190   0.69019   0.00000  Uiso   1.00
H1379  H     0.70848   0.81648   0.67558   0.00000  Uiso   1.00
H1380  H     0.83858   0.73608   0.94631   0.00000  Uiso   1.00
H1381  H     0.86952   0.72648   0.50655   0.00000  Uiso   1.00
H1382  H     0.81155   0.92889   0.90733   0.00000  Uiso   1.00
H1383  H     0.86745   0.91146   0.51185   0.00000  Uiso   1.00
H1384  H     0.80959   0.77964   0.90696   0.00000  Uiso   1.00
H1385  H     0.92202   0.96939   0.66244   0.00000  Uiso   1.00
H1386  H     0.87438   0.95483   0.64163   0.00000  Uiso   1.00
N1387  N     0.96239   0.81880   0.84673   0.00000  Uiso   1.00
O1388  O     0.83333   0.83333   0.75000   0.00000  Uiso   1.00
O1389  O     0.82118   0.79304   0.65458   0.00000  Uiso   1.00
O1390  O     0.79607   0.87058   0.84968   0.00000  Uiso   1.00
O1391  O     0.87491   0.84425   0.64606   0.00000  Uiso   1.00
O1392  O     0.84118   0.82546   0.84968   0.00000  Uiso   1.00
O1393  O     0.84597   0.74686   0.78213   0.00000  Uiso   1.00
O1394  O     0.81298   0.92751   0.77013   0.00000  Uiso   1.00
O1395  O     0.74078   0.79958   0.73413   0.00000  Uiso   1.00
O1396  O     0.93360   0.85939   0.71360   0.00000  Uiso   1.00
O1397  O     0.73738   0.85544   0.78213   0.00000  Uiso   1.00
O1398  O     0.92158   0.81892   0.77013   0.00000  Uiso   1.00
O1399  O     0.80426   0.73610   0.73413   0.00000  Uiso   1.00
O1400  O     0.87012   0.92286   0.71360   0.00000  Uiso   1.00
Zn1401 Zn    0.86005   0.80661   0.78734   0.00000  Uiso   1.00
Zn1402 Zn    0.80046   0.79124   0.71875   0.00000  Uiso   1.00
Zn1403 Zn    0.87723   0.86442   0.70657   0.00000  Uiso   1.00
Zn1404 Zn    0.79560   0.87106   0.78733   0.00000  Uiso   1.00
loop_
_geom_bond_atom_site_label_1
_geom_bond_atom_site_label_2
_geom_bond_distance
_geom_bond_site_symmetry_2
_ccdc_geom_bond_type
C1     O71     1.267   .     A
C1     O69     1.282   .     A
C1     C7      1.442   .     S
C2     C16     1.419   .     A
C2     C21     1.539   .     S
C2     C30     1.431   .     A
C3     H34     1.084   .     S
C3     C15     1.380   .     A
C3     C16     1.396   .     A
C4     O70     1.284   .     A
C4     C6      1.471   .     S
C4     O72     1.277   .     A
C5     C17     1.402   .     A
C5     C29     1.414   .     A
C5     C14     1.465   .     S
C6     C85     1.363   .     S
C6     C104    1.530   .     S
C7     C162    1.363   1_455 S
C7     C174    1.454   1_455 S
C8     C11     1.472   .     S
C8     C243    1.343   .     S
C8     C253    1.540   .     S
C9     C10     1.440   .     S
C9     C476    1.343   1_545 S
C9     H513    1.087   1_545 S
C10    O67     1.279   .     A
C10    O73     1.286   .     A
C11    O68     1.291   .     A
C11    O74     1.274   .     A
C12    C23     1.397   .     A
C12    C17     1.395   .     A
C12    C24     1.507   .     S
C13    O65     1.276   .     A
C13    O63     1.276   .     A
C13    C16     1.448   .     S
C14    O64     1.284   .     A
C14    O66     1.281   .     A
C15    H55     1.083   .     S
C15    C733    1.393   1_554 S
C17    H56     1.084   .     S
C18    N61     1.158   .     T
C18    C85     1.454   .     S
C19    H36     1.111   .     S
C19    H37     1.112   .     S
C19    C476    1.540   1_545 S
C19    C488    1.528   1_545 S
C20    H35     1.111   .     S
C20    H60     1.109   .     S
C20    H59     1.110   .     S
C20    C253    1.528   .     S
C21    C22     1.525   .     S
C21    H41     1.110   .     S
C21    H42     1.099   .     S
C22    H38     1.110   .     S
C22    H40     1.111   .     S
C22    H39     1.109   .     S
C23    C28     1.411   .     A
C23    H759    1.082   .     S
C24    H48     1.111   .     S
C24    C25     1.528   .     S
C24    H47     1.112   .     S
C25    H43     1.111   .     S
C25    H746    1.111   .     S
C25    H982    1.109   .     S
C26    C27     1.533   .     S
C26    H52     1.109   .     S
C26    H53     1.110   .     S
C26    C162    1.530   1_455 S
C27    H51     1.110   .     S
C27    H205    1.111   1_455 S
C27    H206    1.110   1_455 S
C28    C29     1.417   .     A
C28    C732    1.425   .     S
C29    C33     1.409   .     A
C30    C730    1.425   1_554 S
C30    C733    1.424   1_554 S
C31    C32     1.393   .     A
C31    C732    1.424   .     S
C31    C717    1.393   .     S
C32    H54     1.084   .     S
C32    C33     1.383   .     A
C33    H58     1.081   .     S
H44    C727    1.111   1_554 S
H45    C243    1.087   .     S
H46    C1195   1.109   1_544 S
H49    C105    1.111   .     S
H50    C105    1.110   .     S
H57    C725    1.082   1_554 S
O62    Zn77    1.943   .     S
O62    Zn76    1.958   .     S
O62    Zn75    1.961   .     S
O62    Zn78    1.947   .     S
O63    Zn76    1.945   .     S
O64    Zn78    1.953   .     S
O65    Zn77    1.953   .     S
O66    Zn75    1.946   .     S
O67    Zn75    1.929   .     S
O68    Zn78    1.927   .     S
O69    Zn76    1.944   .     S
O70    Zn77    1.951   .     S
O71    Zn78    1.949   .     S
O72    Zn75    1.942   .     S
O73    Zn76    1.930   .     S
O74    Zn77    1.929   .     S
C79    O149    1.267   .     A
C79    O147    1.282   .     A
C79    C85     1.442   .     S
C80    C94     1.419   .     A
C80    C99     1.539   .     S
C80    C108    1.431   .     A
C81    H112    1.084   .     S
C81    C93     1.380   .     A
C81    C94     1.396   .     A
C82    O148    1.284   .     A
C82    C84     1.471   .     S
C82    O150    1.277   .     A
C83    C95     1.402   .     A
C83    C107    1.414   .     A
C83    C92     1.465   .     S
C84    C163    1.363   .     S
C84    C182    1.530   .     S
C86    C89     1.472   .     S
C86    C321    1.343   .     S
C86    C331    1.540   .     S
C87    C88     1.440   .     S
C87    C554    1.343   1_545 S
C87    H591    1.087   1_545 S
C88    O145    1.279   .     A
C88    O151    1.286   .     A
C89    O146    1.291   .     A
C89    O152    1.274   .     A
C90    C101    1.397   .     A
C90    C95     1.395   .     A
C90    C102    1.507   .     S
C91    O143    1.276   .     A
C91    O141    1.276   .     A
C91    C94     1.448   .     S
C92    O142    1.284   .     A
C92    O144    1.281   .     A
C93    H133    1.083   .     S
C93    C811    1.393   1_554 S
C95    H134    1.084   .     S
C96    N139    1.158   .     T
C96    C163    1.454   .     S
C97    H114    1.111   .     S
C97    H115    1.112   .     S
C97    C554    1.540   1_545 S
C97    C566    1.528   1_545 S
C98    H113    1.111   .     S
C98    H138    1.109   .     S
C98    H137    1.110   .     S
C98    C331    1.528   .     S
C99    C100    1.525   .     S
C99    H119    1.110   .     S
C99    H120    1.099   .     S
C100   H116    1.110   .     S
C100   H118    1.111   .     S
C100   H117    1.109   .     S
C101   C106    1.411   .     A
C101   H837    1.082   .     S
C102   H126    1.111   .     S
C102   C103    1.528   .     S
C102   H125    1.112   .     S
C103   H121    1.111   .     S
C103   H824    1.111   .     S
C103   H1060   1.109   .     S
C104   C105    1.533   .     S
C104   H130    1.109   .     S
C104   H131    1.110   .     S
C105   H129    1.110   .     S
C106   C107    1.417   .     A
C106   C810    1.425   .     S
C107   C111    1.409   .     A
C108   C808    1.425   1_554 S
C108   C811    1.424   1_554 S
C109   C110    1.393   .     A
C109   C810    1.424   .     S
C109   C795    1.393   .     S
C110   H132    1.084   .     S
C110   C111    1.383   .     A
C111   H136    1.081   .     S
H122   C805    1.111   1_554 S
H123   C321    1.087   .     S
H124   C1273   1.109   1_544 S
H127   C183    1.111   .     S
H128   C183    1.110   .     S
H135   C803    1.082   1_554 S
O140   Zn155   1.943   .     S
O140   Zn154   1.958   .     S
O140   Zn153   1.961   .     S
O140   Zn156   1.947   .     S
O141   Zn154   1.945   .     S
O142   Zn156   1.953   .     S
O143   Zn155   1.953   .     S
O144   Zn153   1.946   .     S
O145   Zn153   1.929   .     S
O146   Zn156   1.927   .     S
O147   Zn154   1.944   .     S
O148   Zn155   1.951   .     S
O149   Zn156   1.949   .     S
O150   Zn153   1.942   .     S
O151   Zn154   1.930   .     S
O152   Zn155   1.929   .     S
C157   O227    1.267   .     A
C157   O225    1.282   .     A
C157   C163    1.442   .     S
C158   C172    1.419   .     A
C158   C177    1.539   .     S
C158   C186    1.431   .     A
C159   H190    1.084   .     S
C159   C171    1.380   .     A
C159   C172    1.396   .     A
C160   O226    1.284   .     A
C160   C162    1.471   .     S
C160   O228    1.277   .     A
C161   C173    1.402   .     A
C161   C185    1.414   .     A
C161   C170    1.465   .     S
C162   C7      1.363   1_655 S
C162   C26     1.530   1_655 S
C164   C167    1.472   .     S
C164   C399    1.343   .     S
C164   C409    1.540   .     S
C165   C166    1.440   .     S
C165   C632    1.343   1_545 S
C165   H669    1.087   1_545 S
C166   O223    1.279   .     A
C166   O229    1.286   .     A
C167   O224    1.291   .     A
C167   O230    1.274   .     A
C168   C179    1.397   .     A
C168   C173    1.395   .     A
C168   C180    1.507   .     S
C169   O221    1.276   .     A
C169   O219    1.276   .     A
C169   C172    1.448   .     S
C170   O220    1.284   .     A
C170   O222    1.281   .     A
C171   H211    1.083   .     S
C171   C889    1.393   1_554 S
C173   H212    1.084   .     S
C174   N217    1.158   .     T
C174   C7      1.454   1_655 S
C175   H192    1.111   .     S
C175   H193    1.112   .     S
C175   C632    1.540   1_545 S
C175   C644    1.528   1_545 S
C176   H191    1.111   .     S
C176   H216    1.109   .     S
C176   H215    1.110   .     S
C176   C409    1.528   .     S
C177   C178    1.525   .     S
C177   H197    1.110   .     S
C177   H198    1.099   .     S
C178   H194    1.110   .     S
C178   H196    1.111   .     S
C178   H195    1.109   .     S
C179   C184    1.411   .     A
C179   H915    1.082   .     S
C180   H204    1.111   .     S
C180   C181    1.528   .     S
C180   H203    1.112   .     S
C181   H199    1.111   .     S
C181   H902    1.111   .     S
C181   H1138   1.109   .     S
C182   C183    1.533   .     S
C182   H208    1.109   .     S
C182   H209    1.110   .     S
C183   H207    1.110   .     S
C184   C185    1.417   .     A
C184   C888    1.425   .     S
C185   C189    1.409   .     A
C186   C886    1.425   1_554 S
C186   C889    1.424   1_554 S
C187   C188    1.393   .     A
C187   C888    1.424   .     S
C187   C873    1.393   .     S
C188   H210    1.084   .     S
C188   C189    1.383   .     A
C189   H214    1.081   .     S
H200   C883    1.111   1_554 S
H201   C399    1.087   .     S
H202   C1351   1.109   1_544 S
H205   C27     1.111   1_655 S
H206   C27     1.110   1_655 S
H213   C881    1.082   1_554 S
O218   Zn233   1.943   .     S
O218   Zn232   1.958   .     S
O218   Zn231   1.961   .     S
O218   Zn234   1.947   .     S
O219   Zn232   1.945   .     S
O220   Zn234   1.953   .     S
O221   Zn233   1.953   .     S
O222   Zn231   1.946   .     S
O223   Zn231   1.929   .     S
O224   Zn234   1.927   .     S
O225   Zn232   1.944   .     S
O226   Zn233   1.951   .     S
O227   Zn234   1.949   .     S
O228   Zn231   1.942   .     S
O229   Zn232   1.930   .     S
O230   Zn233   1.929   .     S
C235   O305    1.267   .     A
C235   O303    1.282   .     A
C235   C241    1.442   .     S
C236   C250    1.419   .     A
C236   C255    1.539   .     S
C236   C264    1.431   .     A
C237   H268    1.084   .     S
C237   C249    1.380   .     A
C237   C250    1.396   .     A
C238   O304    1.284   .     A
C238   C240    1.471   .     S
C238   O306    1.277   .     A
C239   C251    1.402   .     A
C239   C263    1.414   .     A
C239   C248    1.465   .     S
C240   C319    1.363   .     S
C240   C338    1.530   .     S
C241   C396    1.363   1_455 S
C241   C408    1.454   1_455 S
C242   C245    1.472   .     S
C242   C477    1.343   .     S
C242   C487    1.540   .     S
C243   C244    1.440   .     S
C244   O301    1.279   .     A
C244   O307    1.286   .     A
C245   O302    1.291   .     A
C245   O308    1.274   .     A
C246   C257    1.397   .     A
C246   C251    1.395   .     A
C246   C258    1.507   .     S
C247   O299    1.276   .     A
C247   O297    1.276   .     A
C247   C250    1.448   .     S
C248   O298    1.284   .     A
C248   O300    1.281   .     A
C249   H289    1.083   .     S
C249   C967    1.393   1_554 S
C251   H290    1.084   .     S
C252   N295    1.158   .     T
C252   C319    1.454   .     S
C253   H270    1.111   .     S
C253   H271    1.112   .     S
C254   H269    1.111   .     S
C254   H294    1.109   .     S
C254   H293    1.110   .     S
C254   C487    1.528   .     S
C255   C256    1.525   .     S
C255   H275    1.110   .     S
C255   H276    1.099   .     S
C256   H272    1.110   .     S
C256   H274    1.111   .     S
C256   H273    1.109   .     S
C257   C262    1.411   .     A
C257   H993    1.082   .     S
C258   H282    1.111   .     S
C258   C259    1.528   .     S
C258   H281    1.112   .     S
C259   H277    1.111   .     S
C259   H980    1.111   .     S
C259   H1216   1.109   .     S
C260   C261    1.533   .     S
C260   H286    1.109   .     S
C260   H287    1.110   .     S
C260   C396    1.530   1_455 S
C261   H285    1.110   .     S
C261   H439    1.111   1_455 S
C261   H440    1.110   1_455 S
C262   C263    1.417   .     A
C262   C966    1.425   .     S
C263   C267    1.409   .     A
C264   C964    1.425   1_554 S
C264   C967    1.424   1_554 S
C265   C266    1.393   .     A
C265   C966    1.424   .     S
C265   C951    1.393   .     S
C266   H288    1.084   .     S
C266   C267    1.383   .     A
C267   H292    1.081   .     S
H278   C961    1.111   1_554 S
H279   C477    1.087   .     S
H280   C727    1.109   1_554 S
H283   C339    1.111   .     S
H284   C339    1.110   .     S
H291   C959    1.082   1_554 S
O296   Zn311   1.943   .     S
O296   Zn310   1.958   .     S
O296   Zn309   1.961   .     S
O296   Zn312   1.947   .     S
O297   Zn310   1.945   .     S
O298   Zn312   1.953   .     S
O299   Zn311   1.953   .     S
O300   Zn309   1.946   .     S
O301   Zn309   1.929   .     S
O302   Zn312   1.927   .     S
O303   Zn310   1.944   .     S
O304   Zn311   1.951   .     S
O305   Zn312   1.949   .     S
O306   Zn309   1.942   .     S
O307   Zn310   1.930   .     S
O308   Zn311   1.929   .     S
C313   O383    1.267   .     A
C313   O381    1.282   .     A
C313   C319    1.442   .     S
C314   C328    1.419   .     A
C314   C333    1.539   .     S
C314   C342    1.431   .     A
C315   H346    1.084   .     S
C315   C327    1.380   .     A
C315   C328    1.396   .     A
C316   O382    1.284   .     A
C316   C318    1.471   .     S
C316   O384    1.277   .     A
C317   C329    1.402   .     A
C317   C341    1.414   .     A
C317   C326    1.465   .     S
C318   C397    1.363   .     S
C318   C416    1.530   .     S
C320   C323    1.472   .     S
C320   C555    1.343   .     S
C320   C565    1.540   .     S
C321   C322    1.440   .     S
C322   O379    1.279   .     A
C322   O385    1.286   .     A
C323   O380    1.291   .     A
C323   O386    1.274   .     A
C324   C335    1.397   .     A
C324   C329    1.395   .     A
C324   C336    1.507   .     S
C325   O377    1.276   .     A
C325   O375    1.276   .     A
C325   C328    1.448   .     S
C326   O376    1.284   .     A
C326   O378    1.281   .     A
C327   H367    1.083   .     S
C327   C1045   1.393   1_554 S
C329   H368    1.084   .     S
C330   N373    1.158   .     T
C330   C397    1.454   .     S
C331   H348    1.111   .     S
C331   H349    1.112   .     S
C332   H347    1.111   .     S
C332   H372    1.109   .     S
C332   H371    1.110   .     S
C332   C565    1.528   .     S
C333   C334    1.525   .     S
C333   H353    1.110   .     S
C333   H354    1.099   .     S
C334   H350    1.110   .     S
C334   H352    1.111   .     S
C334   H351    1.109   .     S
C335   C340    1.411   .     A
C335   H1071   1.082   .     S
C336   H360    1.111   .     S
C336   C337    1.528   .     S
C336   H359    1.112   .     S
C337   H355    1.111   .     S
C337   H1058   1.111   .     S
C337   H1294   1.109   .     S
C338   C339    1.533   .     S
C338   H364    1.109   .     S
C338   H365    1.110   .     S
C339   H363    1.110   .     S
C340   C341    1.417   .     A
C340   C1044   1.425   .     S
C341   C345    1.409   .     A
C342   C1042   1.425   1_554 S
C342   C1045   1.424   1_554 S
C343   C344    1.393   .     A
C343   C1044   1.424   .     S
C343   C1029   1.393   .     S
C344   H366    1.084   .     S
C344   C345    1.383   .     A
C345   H370    1.081   .     S
H356   C1039   1.111   1_554 S
H357   C555    1.087   .     S
H358   C805    1.109   1_554 S
H361   C417    1.111   .     S
H362   C417    1.110   .     S
H369   C1037   1.082   1_554 S
O374   Zn389   1.943   .     S
O374   Zn388   1.958   .     S
O374   Zn387   1.961   .     S
O374   Zn390   1.947   .     S
O375   Zn388   1.945   .     S
O376   Zn390   1.953   .     S
O377   Zn389   1.953   .     S
O378   Zn387   1.946   .     S
O379   Zn387   1.929   .     S
O380   Zn390   1.927   .     S
O381   Zn388   1.944   .     S
O382   Zn389   1.951   .     S
O383   Zn390   1.949   .     S
O384   Zn387   1.942   .     S
O385   Zn388   1.930   .     S
O386   Zn389   1.929   .     S
C391   O461    1.267   .     A
C391   O459    1.282   .     A
C391   C397    1.442   .     S
C392   C406    1.419   .     A
C392   C411    1.539   .     S
C392   C420    1.431   .     A
C393   H424    1.084   .     S
C393   C405    1.380   .     A
C393   C406    1.396   .     A
C394   O460    1.284   .     A
C394   C396    1.471   .     S
C394   O462    1.277   .     A
C395   C407    1.402   .     A
C395   C419    1.414   .     A
C395   C404    1.465   .     S
C396   C241    1.363   1_655 S
C396   C260    1.530   1_655 S
C398   C401    1.472   .     S
C398   C633    1.343   .     S
C398   C643    1.540   .     S
C399   C400    1.440   .     S
C400   O457    1.279   .     A
C400   O463    1.286   .     A
C401   O458    1.291   .     A
C401   O464    1.274   .     A
C402   C413    1.397   .     A
C402   C407    1.395   .     A
C402   C414    1.507   .     S
C403   O455    1.276   .     A
C403   O453    1.276   .     A
C403   C406    1.448   .     S
C404   O454    1.284   .     A
C404   O456    1.281   .     A
C405   H445    1.083   .     S
C405   C1123   1.393   1_554 S
C407   H446    1.084   .     S
C408   N451    1.158   .     T
C408   C241    1.454   1_655 S
C409   H426    1.111   .     S
C409   H427    1.112   .     S
C410   H425    1.111   .     S
C410   H450    1.109   .     S
C410   H449    1.110   .     S
C410   C643    1.528   .     S
C411   C412    1.525   .     S
C411   H431    1.110   .     S
C411   H432    1.099   .     S
C412   H428    1.110   .     S
C412   H430    1.111   .     S
C412   H429    1.109   .     S
C413   C418    1.411   .     A
C413   H1149   1.082   .     S
C414   H438    1.111   .     S
C414   C415    1.528   .     S
C414   H437    1.112   .     S
C415   H433    1.111   .     S
C415   H1136   1.111   .     S
C415   H1372   1.109   .     S
C416   C417    1.533   .     S
C416   H442    1.109   .     S
C416   H443    1.110   .     S
C417   H441    1.110   .     S
C418   C419    1.417   .     A
C418   C1122   1.425   .     S
C419   C423    1.409   .     A
C420   C1120   1.425   1_554 S
C420   C1123   1.424   1_554 S
C421   C422    1.393   .     A
C421   C1122   1.424   .     S
C421   C1107   1.393   .     S
C422   H444    1.084   .     S
C422   C423    1.383   .     A
C423   H448    1.081   .     S
H434   C1117   1.111   1_554 S
H435   C633    1.087   .     S
H436   C883    1.109   1_554 S
H439   C261    1.111   1_655 S
H440   C261    1.110   1_655 S
H447   C1115   1.082   1_554 S
O452   Zn467   1.943   .     S
O452   Zn466   1.958   .     S
O452   Zn465   1.961   .     S
O452   Zn468   1.947   .     S
O453   Zn466   1.945   .     S
O454   Zn468   1.953   .     S
O455   Zn467   1.953   .     S
O456   Zn465   1.946   .     S
O457   Zn465   1.929   .     S
O458   Zn468   1.927   .     S
O459   Zn466   1.944   .     S
O460   Zn467   1.951   .     S
O461   Zn468   1.949   .     S
O462   Zn465   1.942   .     S
O463   Zn466   1.930   .     S
O464   Zn467   1.929   .     S
C469   O539    1.267   .     A
C469   O537    1.282   .     A
C469   C475    1.442   .     S
C470   C484    1.419   .     A
C470   C489    1.539   .     S
C470   C498    1.431   .     A
C471   H502    1.084   .     S
C471   C483    1.380   .     A
C471   C484    1.396   .     A
C472   O538    1.284   .     A
C472   C474    1.471   .     S
C472   O540    1.277   .     A
C473   C485    1.402   .     A
C473   C497    1.414   .     A
C473   C482    1.465   .     S
C474   C553    1.363   .     S
C474   C572    1.530   .     S
C475   C630    1.363   1_455 S
C475   C642    1.454   1_455 S
C476   C479    1.472   .     S
C476   C9      1.343   1_565 S
C476   C19     1.540   1_565 S
C477   C478    1.440   .     S
C478   O535    1.279   .     A
C478   O541    1.286   .     A
C479   O536    1.291   .     A
C479   O542    1.274   .     A
C480   C491    1.397   .     A
C480   C485    1.395   .     A
C480   C492    1.507   .     S
C481   O533    1.276   .     A
C481   O531    1.276   .     A
C481   C484    1.448   .     S
C482   O532    1.284   .     A
C482   O534    1.281   .     A
C483   H523    1.083   .     S
C483   C1201   1.393   1_554 S
C485   H524    1.084   .     S
C486   N529    1.158   .     T
C486   C553    1.454   .     S
C487   H504    1.111   .     S
C487   H505    1.112   .     S
C488   H503    1.111   .     S
C488   H528    1.109   .     S
C488   H527    1.110   .     S
C488   C19     1.528   1_565 S
C489   C490    1.525   .     S
C489   H509    1.110   .     S
C489   H510    1.099   .     S
C490   H506    1.110   .     S
C490   H508    1.111   .     S
C490   H507    1.109   .     S
C491   C496    1.411   .     A
C491   H1227   1.082   .     S
C492   H516    1.111   .     S
C492   C493    1.528   .     S
C492   H515    1.112   .     S
C493   H511    1.111   .     S
C493   H1214   1.111   .     S
C493   H748    1.109   1_565 S
C494   C495    1.533   .     S
C494   H520    1.109   .     S
C494   H521    1.110   .     S
C494   C630    1.530   1_455 S
C495   H519    1.110   .     S
C495   H673    1.111   1_455 S
C495   H674    1.110   1_455 S
C496   C497    1.417   .     A
C496   C1200   1.425   .     S
C497   C501    1.409   .     A
C498   C1198   1.425   1_554 S
C498   C1201   1.424   1_554 S
C499   C500    1.393   .     A
C499   C1200   1.424   .     S
C499   C1185   1.393   .     S
C500   H522    1.084   .     S
C500   C501    1.383   .     A
C501   H526    1.081   .     S
H512   C1195   1.111   1_554 S
H513   C9      1.087   1_565 S
H514   C961    1.109   1_554 S
H517   C573    1.111   .     S
H518   C573    1.110   .     S
H525   C1193   1.082   1_554 S
O530   Zn545   1.943   .     S
O530   Zn544   1.958   .     S
O530   Zn543   1.961   .     S
O530   Zn546   1.947   .     S
O531   Zn544   1.945   .     S
O532   Zn546   1.953   .     S
O533   Zn545   1.953   .     S
O534   Zn543   1.946   .     S
O535   Zn543   1.929   .     S
O536   Zn546   1.927   .     S
O537   Zn544   1.944   .     S
O538   Zn545   1.951   .     S
O539   Zn546   1.949   .     S
O540   Zn543   1.942   .     S
O541   Zn544   1.930   .     S
O542   Zn545   1.929   .     S
C547   O617    1.267   .     A
C547   O615    1.282   .     A
C547   C553    1.442   .     S
C548   C562    1.419   .     A
C548   C567    1.539   .     S
C548   C576    1.431   .     A
C549   H580    1.084   .     S
C549   C561    1.380   .     A
C549   C562    1.396   .     A
C550   O616    1.284   .     A
C550   C552    1.471   .     S
C550   O618    1.277   .     A
C551   C563    1.402   .     A
C551   C575    1.414   .     A
C551   C560    1.465   .     S
C552   C631    1.363   .     S
C552   C650    1.530   .     S
C554   C557    1.472   .     S
C554   C87     1.343   1_565 S
C554   C97     1.540   1_565 S
C555   C556    1.440   .     S
C556   O613    1.279   .     A
C556   O619    1.286   .     A
C557   O614    1.291   .     A
C557   O620    1.274   .     A
C558   C569    1.397   .     A
C558   C563    1.395   .     A
C558   C570    1.507   .     S
C559   O611    1.276   .     A
C559   O609    1.276   .     A
C559   C562    1.448   .     S
C560   O610    1.284   .     A
C560   O612    1.281   .     A
C561   H601    1.083   .     S
C561   C1279   1.393   1_554 S
C563   H602    1.084   .     S
C564   N607    1.158   .     T
C564   C631    1.454   .     S
C565   H582    1.111   .     S
C565   H583    1.112   .     S
C566   H581    1.111   .     S
C566   H606    1.109   .     S
C566   H605    1.110   .     S
C566   C97     1.528   1_565 S
C567   C568    1.525   .     S
C567   H587    1.110   .     S
C567   H588    1.099   .     S
C568   H584    1.110   .     S
C568   H586    1.111   .     S
C568   H585    1.109   .     S
C569   C574    1.411   .     A
C569   H1305   1.082   .     S
C570   H594    1.111   .     S
C570   C571    1.528   .     S
C570   H593    1.112   .     S
C571   H589    1.111   .     S
C571   H1292   1.111   .     S
C571   H826    1.109   1_565 S
C572   C573    1.533   .     S
C572   H598    1.109   .     S
C572   H599    1.110   .     S
C573   H597    1.110   .     S
C574   C575    1.417   .     A
C574   C1278   1.425   .     S
C575   C579    1.409   .     A
C576   C1276   1.425   1_554 S
C576   C1279   1.424   1_554 S
C577   C578    1.393   .     A
C577   C1278   1.424   .     S
C577   C1263   1.393   .     S
C578   H600    1.084   .     S
C578   C579    1.383   .     A
C579   H604    1.081   .     S
H590   C1273   1.111   1_554 S
H591   C87     1.087   1_565 S
H592   C1039   1.109   1_554 S
H595   C651    1.111   .     S
H596   C651    1.110   .     S
H603   C1271   1.082   1_554 S
O608   Zn623   1.943   .     S
O608   Zn622   1.958   .     S
O608   Zn621   1.961   .     S
O608   Zn624   1.947   .     S
O609   Zn622   1.945   .     S
O610   Zn624   1.953   .     S
O611   Zn623   1.953   .     S
O612   Zn621   1.946   .     S
O613   Zn621   1.929   .     S
O614   Zn624   1.927   .     S
O615   Zn622   1.944   .     S
O616   Zn623   1.951   .     S
O617   Zn624   1.949   .     S
O618   Zn621   1.942   .     S
O619   Zn622   1.930   .     S
O620   Zn623   1.929   .     S
C625   O695    1.267   .     A
C625   O693    1.282   .     A
C625   C631    1.442   .     S
C626   C640    1.419   .     A
C626   C645    1.539   .     S
C626   C654    1.431   .     A
C627   H658    1.084   .     S
C627   C639    1.380   .     A
C627   C640    1.396   .     A
C628   O694    1.284   .     A
C628   C630    1.471   .     S
C628   O696    1.277   .     A
C629   C641    1.402   .     A
C629   C653    1.414   .     A
C629   C638    1.465   .     S
C630   C475    1.363   1_655 S
C630   C494    1.530   1_655 S
C632   C635    1.472   .     S
C632   C165    1.343   1_565 S
C632   C175    1.540   1_565 S
C633   C634    1.440   .     S
C634   O691    1.279   .     A
C634   O697    1.286   .     A
C635   O692    1.291   .     A
C635   O698    1.274   .     A
C636   C647    1.397   .     A
C636   C641    1.395   .     A
C636   C648    1.507   .     S
C637   O689    1.276   .     A
C637   O687    1.276   .     A
C637   C640    1.448   .     S
C638   O688    1.284   .     A
C638   O690    1.281   .     A
C639   H679    1.083   .     S
C639   C1357   1.393   1_554 S
C641   H680    1.084   .     S
C642   N685    1.158   .     T
C642   C475    1.454   1_655 S
C643   H660    1.111   .     S
C643   H661    1.112   .     S
C644   H659    1.111   .     S
C644   H684    1.109   .     S
C644   H683    1.110   .     S
C644   C175    1.528   1_565 S
C645   C646    1.525   .     S
C645   H665    1.110   .     S
C645   H666    1.099   .     S
C646   H662    1.110   .     S
C646   H664    1.111   .     S
C646   H663    1.109   .     S
C647   C652    1.411   .     A
C647   H1383   1.082   .     S
C648   H672    1.111   .     S
C648   C649    1.528   .     S
C648   H671    1.112   .     S
C649   H667    1.111   .     S
C649   H1370   1.111   .     S
C649   H904    1.109   1_565 S
C650   C651    1.533   .     S
C650   H676    1.109   .     S
C650   H677    1.110   .     S
C651   H675    1.110   .     S
C652   C653    1.417   .     A
C652   C1356   1.425   .     S
C653   C657    1.409   .     A
C654   C1354   1.425   1_554 S
C654   C1357   1.424   1_554 S
C655   C656    1.393   .     A
C655   C1356   1.424   .     S
C655   C1341   1.393   .     S
C656   H678    1.084   .     S
C656   C657    1.383   .     A
C657   H682    1.081   .     S
H668   C1351   1.111   1_554 S
H669   C165    1.087   1_565 S
H670   C1117   1.109   1_554 S
H673   C495    1.111   1_655 S
H674   C495    1.110   1_655 S
H681   C1349   1.082   1_554 S
O686   Zn701   1.943   .     S
O686   Zn700   1.958   .     S
O686   Zn699   1.961   .     S
O686   Zn702   1.947   .     S
O687   Zn700   1.945   .     S
O688   Zn702   1.953   .     S
O689   Zn701   1.953   .     S
O690   Zn699   1.946   .     S
O691   Zn699   1.929   .     S
O692   Zn702   1.927   .     S
O693   Zn700   1.944   .     S
O694   Zn701   1.951   .     S
O695   Zn702   1.949   .     S
O696   Zn699   1.942   .     S
O697   Zn700   1.930   .     S
O698   Zn701   1.929   .     S
C703   O773    1.267   .     A
C703   O771    1.282   .     A
C703   C709    1.442   .     S
C704   C718    1.419   .     A
C704   C723    1.539   .     S
C704   C732    1.431   .     A
C705   H736    1.084   .     S
C705   C717    1.380   .     A
C705   C718    1.396   .     A
C706   O772    1.284   .     A
C706   C708    1.471   .     S
C706   O774    1.277   .     A
C707   C719    1.402   .     A
C707   C731    1.414   .     A
C707   C716    1.465   .     S
C708   C787    1.363   .     S
C708   C806    1.530   .     S
C709   C864    1.363   1_455 S
C709   C876    1.454   1_455 S
C710   C713    1.472   .     S
C710   C945    1.343   .     S
C710   C955    1.540   .     S
C711   C712    1.440   .     S
C711   C1178   1.343   1_545 S
C711   H1215   1.087   1_545 S
C712   O769    1.279   .     A
C712   O775    1.286   .     A
C713   O770    1.291   .     A
C713   O776    1.274   .     A
C714   C725    1.397   .     A
C714   C719    1.395   .     A
C714   C726    1.507   .     S
C715   O767    1.276   .     A
C715   O765    1.276   .     A
C715   C718    1.448   .     S
C716   O766    1.284   .     A
C716   O768    1.281   .     A
C717   H757    1.083   .     S
C719   H758    1.084   .     S
C720   N763    1.158   .     T
C720   C787    1.454   .     S
C721   H738    1.111   .     S
C721   H739    1.112   .     S
C721   C1178   1.540   1_545 S
C721   C1190   1.528   1_545 S
C722   H737    1.111   .     S
C722   H762    1.109   .     S
C722   H761    1.110   .     S
C722   C955    1.528   .     S
C723   C724    1.525   .     S
C723   H743    1.110   .     S
C723   H744    1.099   .     S
C724   H740    1.110   .     S
C724   H742    1.111   .     S
C724   H741    1.109   .     S
C725   C730    1.411   .     A
C725   H57     1.082   1_556 S
C726   H750    1.111   .     S
C726   C727    1.528   .     S
C726   H749    1.112   .     S
C727   H745    1.111   .     S
C727   H44     1.111   1_556 S
C727   H280    1.109   1_556 S
C728   C729    1.533   .     S
C728   H754    1.109   .     S
C728   H755    1.110   .     S
C728   C864    1.530   1_455 S
C729   H753    1.110   .     S
C729   H907    1.111   1_455 S
C729   H908    1.110   1_455 S
C730   C731    1.417   .     A
C730   C30     1.425   1_556 S
C731   C735    1.409   .     A
C733   C734    1.393   .     A
C733   C30     1.424   1_556 S
C733   C15     1.393   1_556 S
C734   H756    1.084   .     S
C734   C735    1.383   .     A
C735   H760    1.081   .     S
H747   C945    1.087   .     S
H748   C493    1.109   1_545 S
H751   C807    1.111   .     S
H752   C807    1.110   .     S
O764   Zn779   1.943   .     S
O764   Zn778   1.958   .     S
O764   Zn777   1.961   .     S
O764   Zn780   1.947   .     S
O765   Zn778   1.945   .     S
O766   Zn780   1.953   .     S
O767   Zn779   1.953   .     S
O768   Zn777   1.946   .     S
O769   Zn777   1.929   .     S
O770   Zn780   1.927   .     S
O771   Zn778   1.944   .     S
O772   Zn779   1.951   .     S
O773   Zn780   1.949   .     S
O774   Zn777   1.942   .     S
O775   Zn778   1.930   .     S
O776   Zn779   1.929   .     S
C781   O851    1.267   .     A
C781   O849    1.282   .     A
C781   C787    1.442   .     S
C782   C796    1.419   .     A
C782   C801    1.539   .     S
C782   C810    1.431   .     A
C783   H814    1.084   .     S
C783   C795    1.380   .     A
C783   C796    1.396   .     A
C784   O850    1.284   .     A
C784   C786    1.471   .     S
C784   O852    1.277   .     A
C785   C797    1.402   .     A
C785   C809    1.414   .     A
C785   C794    1.465   .     S
C786   C865    1.363   .     S
C786   C884    1.530   .     S
C788   C791    1.472   .     S
C788   C1023   1.343   .     S
C788   C1033   1.540   .     S
C789   C790    1.440   .     S
C789   C1256   1.343   1_545 S
C789   H1293   1.087   1_545 S
C790   O847    1.279   .     A
C790   O853    1.286   .     A
C791   O848    1.291   .     A
C791   O854    1.274   .     A
C792   C803    1.397   .     A
C792   C797    1.395   .     A
C792   C804    1.507   .     S
C793   O845    1.276   .     A
C793   O843    1.276   .     A
C793   C796    1.448   .     S
C794   O844    1.284   .     A
C794   O846    1.281   .     A
C795   H835    1.083   .     S
C797   H836    1.084   .     S
C798   N841    1.158   .     T
C798   C865    1.454   .     S
C799   H816    1.111   .     S
C799   H817    1.112   .     S
C799   C1256   1.540   1_545 S
C799   C1268   1.528   1_545 S
C800   H815    1.111   .     S
C800   H840    1.109   .     S
C800   H839    1.110   .     S
C800   C1033   1.528   .     S
C801   C802    1.525   .     S
C801   H821    1.110   .     S
C801   H822    1.099   .     S
C802   H818    1.110   .     S
C802   H820    1.111   .     S
C802   H819    1.109   .     S
C803   C808    1.411   .     A
C803   H135    1.082   1_556 S
C804   H828    1.111   .     S
C804   C805    1.528   .     S
C804   H827    1.112   .     S
C805   H823    1.111   .     S
C805   H122    1.111   1_556 S
C805   H358    1.109   1_556 S
C806   C807    1.533   .     S
C806   H832    1.109   .     S
C806   H833    1.110   .     S
C807   H831    1.110   .     S
C808   C809    1.417   .     A
C808   C108    1.425   1_556 S
C809   C813    1.409   .     A
C811   C812    1.393   .     A
C811   C108    1.424   1_556 S
C811   C93     1.393   1_556 S
C812   H834    1.084   .     S
C812   C813    1.383   .     A
C813   H838    1.081   .     S
H825   C1023   1.087   .     S
H826   C571    1.109   1_545 S
H829   C885    1.111   .     S
H830   C885    1.110   .     S
O842   Zn857   1.943   .     S
O842   Zn856   1.958   .     S
O842   Zn855   1.961   .     S
O842   Zn858   1.947   .     S
O843   Zn856   1.945   .     S
O844   Zn858   1.953   .     S
O845   Zn857   1.953   .     S
O846   Zn855   1.946   .     S
O847   Zn855   1.929   .     S
O848   Zn858   1.927   .     S
O849   Zn856   1.944   .     S
O850   Zn857   1.951   .     S
O851   Zn858   1.949   .     S
O852   Zn855   1.942   .     S
O853   Zn856   1.930   .     S
O854   Zn857   1.929   .     S
C859   O929    1.267   .     A
C859   O927    1.282   .     A
C859   C865    1.442   .     S
C860   C874    1.419   .     A
C860   C879    1.539   .     S
C860   C888    1.431   .     A
C861   H892    1.084   .     S
C861   C873    1.380   .     A
C861   C874    1.396   .     A
C862   O928    1.284   .     A
C862   C864    1.471   .     S
C862   O930    1.277   .     A
C863   C875    1.402   .     A
C863   C887    1.414   .     A
C863   C872    1.465   .     S
C864   C709    1.363   1_655 S
C864   C728    1.530   1_655 S
C866   C869    1.472   .     S
C866   C1101   1.343   .     S
C866   C1111   1.540   .     S
C867   C868    1.440   .     S
C867   C1334   1.343   1_545 S
C867   H1371   1.087   1_545 S
C868   O925    1.279   .     A
C868   O931    1.286   .     A
C869   O926    1.291   .     A
C869   O932    1.274   .     A
C870   C881    1.397   .     A
C870   C875    1.395   .     A
C870   C882    1.507   .     S
C871   O923    1.276   .     A
C871   O921    1.276   .     A
C871   C874    1.448   .     S
C872   O922    1.284   .     A
C872   O924    1.281   .     A
C873   H913    1.083   .     S
C875   H914    1.084   .     S
C876   N919    1.158   .     T
C876   C709    1.454   1_655 S
C877   H894    1.111   .     S
C877   H895    1.112   .     S
C877   C1334   1.540   1_545 S
C877   C1346   1.528   1_545 S
C878   H893    1.111   .     S
C878   H918    1.109   .     S
C878   H917    1.110   .     S
C878   C1111   1.528   .     S
C879   C880    1.525   .     S
C879   H899    1.110   .     S
C879   H900    1.099   .     S
C880   H896    1.110   .     S
C880   H898    1.111   .     S
C880   H897    1.109   .     S
C881   C886    1.411   .     A
C881   H213    1.082   1_556 S
C882   H906    1.111   .     S
C882   C883    1.528   .     S
C882   H905    1.112   .     S
C883   H901    1.111   .     S
C883   H200    1.111   1_556 S
C883   H436    1.109   1_556 S
C884   C885    1.533   .     S
C884   H910    1.109   .     S
C884   H911    1.110   .     S
C885   H909    1.110   .     S
C886   C887    1.417   .     A
C886   C186    1.425   1_556 S
C887   C891    1.409   .     A
C889   C890    1.393   .     A
C889   C186    1.424   1_556 S
C889   C171    1.393   1_556 S
C890   H912    1.084   .     S
C890   C891    1.383   .     A
C891   H916    1.081   .     S
H903   C1101   1.087   .     S
H904   C649    1.109   1_545 S
H907   C729    1.111   1_655 S
H908   C729    1.110   1_655 S
O920   Zn935   1.943   .     S
O920   Zn934   1.958   .     S
O920   Zn933   1.961   .     S
O920   Zn936   1.947   .     S
O921   Zn934   1.945   .     S
O922   Zn936   1.953   .     S
O923   Zn935   1.953   .     S
O924   Zn933   1.946   .     S
O925   Zn933   1.929   .     S
O926   Zn936   1.927   .     S
O927   Zn934   1.944   .     S
O928   Zn935   1.951   .     S
O929   Zn936   1.949   .     S
O930   Zn933   1.942   .     S
O931   Zn934   1.930   .     S
O932   Zn935   1.929   .     S
C937   O1007   1.267   .     A
C937   O1005   1.282   .     A
C937   C943    1.442   .     S
C938   C952    1.419   .     A
C938   C957    1.539   .     S
C938   C966    1.431   .     A
C939   H970    1.084   .     S
C939   C951    1.380   .     A
C939   C952    1.396   .     A
C940   O1006   1.284   .     A
C940   C942    1.471   .     S
C940   O1008   1.277   .     A
C941   C953    1.402   .     A
C941   C965    1.414   .     A
C941   C950    1.465   .     S
C942   C1021   1.363   .     S
C942   C1040   1.530   .     S
C943   C1098   1.363   1_455 S
C943   C1110   1.454   1_455 S
C944   C947    1.472   .     S
C944   C1179   1.343   .     S
C944   C1189   1.540   .     S
C945   C946    1.440   .     S
C946   O1003   1.279   .     A
C946   O1009   1.286   .     A
C947   O1004   1.291   .     A
C947   O1010   1.274   .     A
C948   C959    1.397   .     A
C948   C953    1.395   .     A
C948   C960    1.507   .     S
C949   O1001   1.276   .     A
C949   O999    1.276   .     A
C949   C952    1.448   .     S
C950   O1000   1.284   .     A
C950   O1002   1.281   .     A
C951   H991    1.083   .     S
C953   H992    1.084   .     S
C954   N997    1.158   .     T
C954   C1021   1.454   .     S
C955   H972    1.111   .     S
C955   H973    1.112   .     S
C956   H971    1.111   .     S
C956   H996    1.109   .     S
C956   H995    1.110   .     S
C956   C1189   1.528   .     S
C957   C958    1.525   .     S
C957   H977    1.110   .     S
C957   H978    1.099   .     S
C958   H974    1.110   .     S
C958   H976    1.111   .     S
C958   H975    1.109   .     S
C959   C964    1.411   .     A
C959   H291    1.082   1_556 S
C960   H984    1.111   .     S
C960   C961    1.528   .     S
C960   H983    1.112   .     S
C961   H979    1.111   .     S
C961   H278    1.111   1_556 S
C961   H514    1.109   1_556 S
C962   C963    1.533   .     S
C962   H988    1.109   .     S
C962   H989    1.110   .     S
C962   C1098   1.530   1_455 S
C963   H987    1.110   .     S
C963   H1141   1.111   1_455 S
C963   H1142   1.110   1_455 S
C964   C965    1.417   .     A
C964   C264    1.425   1_556 S
C965   C969    1.409   .     A
C967   C968    1.393   .     A
C967   C264    1.424   1_556 S
C967   C249    1.393   1_556 S
C968   H990    1.084   .     S
C968   C969    1.383   .     A
C969   H994    1.081   .     S
H981   C1179   1.087   .     S
H985   C1041   1.111   .     S
H986   C1041   1.110   .     S
O998   Zn1013  1.943   .     S
O998   Zn1012  1.958   .     S
O998   Zn1011  1.961   .     S
O998   Zn1014  1.947   .     S
O999   Zn1012  1.945   .     S
O1000  Zn1014  1.953   .     S
O1001  Zn1013  1.953   .     S
O1002  Zn1011  1.946   .     S
O1003  Zn1011  1.929   .     S
O1004  Zn1014  1.927   .     S
O1005  Zn1012  1.944   .     S
O1006  Zn1013  1.951   .     S
O1007  Zn1014  1.949   .     S
O1008  Zn1011  1.942   .     S
O1009  Zn1012  1.930   .     S
O1010  Zn1013  1.929   .     S
C1015  O1085   1.267   .     A
C1015  O1083   1.282   .     A
C1015  C1021   1.442   .     S
C1016  C1030   1.419   .     A
C1016  C1035   1.539   .     S
C1016  C1044   1.431   .     A
C1017  H1048   1.084   .     S
C1017  C1029   1.380   .     A
C1017  C1030   1.396   .     A
C1018  O1084   1.284   .     A
C1018  C1020   1.471   .     S
C1018  O1086   1.277   .     A
C1019  C1031   1.402   .     A
C1019  C1043   1.414   .     A
C1019  C1028   1.465   .     S
C1020  C1099   1.363   .     S
C1020  C1118   1.530   .     S
C1022  C1025   1.472   .     S
C1022  C1257   1.343   .     S
C1022  C1267   1.540   .     S
C1023  C1024   1.440   .     S
C1024  O1081   1.279   .     A
C1024  O1087   1.286   .     A
C1025  O1082   1.291   .     A
C1025  O1088   1.274   .     A
C1026  C1037   1.397   .     A
C1026  C1031   1.395   .     A
C1026  C1038   1.507   .     S
C1027  O1079   1.276   .     A
C1027  O1077   1.276   .     A
C1027  C1030   1.448   .     S
C1028  O1078   1.284   .     A
C1028  O1080   1.281   .     A
C1029  H1069   1.083   .     S
C1031  H1070   1.084   .     S
C1032  N1075   1.158   .     T
C1032  C1099   1.454   .     S
C1033  H1050   1.111   .     S
C1033  H1051   1.112   .     S
C1034  H1049   1.111   .     S
C1034  H1074   1.109   .     S
C1034  H1073   1.110   .     S
C1034  C1267   1.528   .     S
C1035  C1036   1.525   .     S
C1035  H1055   1.110   .     S
C1035  H1056   1.099   .     S
C1036  H1052   1.110   .     S
C1036  H1054   1.111   .     S
C1036  H1053   1.109   .     S
C1037  C1042   1.411   .     A
C1037  H369    1.082   1_556 S
C1038  H1062   1.111   .     S
C1038  C1039   1.528   .     S
C1038  H1061   1.112   .     S
C1039  H1057   1.111   .     S
C1039  H356    1.111   1_556 S
C1039  H592    1.109   1_556 S
C1040  C1041   1.533   .     S
C1040  H1066   1.109   .     S
C1040  H1067   1.110   .     S
C1041  H1065   1.110   .     S
C1042  C1043   1.417   .     A
C1042  C342    1.425   1_556 S
C1043  C1047   1.409   .     A
C1045  C1046   1.393   .     A
C1045  C342    1.424   1_556 S
C1045  C327    1.393   1_556 S
C1046  H1068   1.084   .     S
C1046  C1047   1.383   .     A
C1047  H1072   1.081   .     S
H1059  C1257   1.087   .     S
H1063  C1119   1.111   .     S
H1064  C1119   1.110   .     S
O1076  Zn1091  1.943   .     S
O1076  Zn1090  1.958   .     S
O1076  Zn1089  1.961   .     S
O1076  Zn1092  1.947   .     S
O1077  Zn1090  1.945   .     S
O1078  Zn1092  1.953   .     S
O1079  Zn1091  1.953   .     S
O1080  Zn1089  1.946   .     S
O1081  Zn1089  1.929   .     S
O1082  Zn1092  1.927   .     S
O1083  Zn1090  1.944   .     S
O1084  Zn1091  1.951   .     S
O1085  Zn1092  1.949   .     S
O1086  Zn1089  1.942   .     S
O1087  Zn1090  1.930   .     S
O1088  Zn1091  1.929   .     S
C1093  O1163   1.267   .     A
C1093  O1161   1.282   .     A
C1093  C1099   1.442   .     S
C1094  C1108   1.419   .     A
C1094  C1113   1.539   .     S
C1094  C1122   1.431   .     A
C1095  H1126   1.084   .     S
C1095  C1107   1.380   .     A
C1095  C1108   1.396   .     A
C1096  O1162   1.284   .     A
C1096  C1098   1.471   .     S
C1096  O1164   1.277   .     A
C1097  C1109   1.402   .     A
C1097  C1121   1.414   .     A
C1097  C1106   1.465   .     S
C1098  C943    1.363   1_655 S
C1098  C962    1.530   1_655 S
C1100  C1103   1.472   .     S
C1100  C1335   1.343   .     S
C1100  C1345   1.540   .     S
C1101  C1102   1.440   .     S
C1102  O1159   1.279   .     A
C1102  O1165   1.286   .     A
C1103  O1160   1.291   .     A
C1103  O1166   1.274   .     A
C1104  C1115   1.397   .     A
C1104  C1109   1.395   .     A
C1104  C1116   1.507   .     S
C1105  O1157   1.276   .     A
C1105  O1155   1.276   .     A
C1105  C1108   1.448   .     S
C1106  O1156   1.284   .     A
C1106  O1158   1.281   .     A
C1107  H1147   1.083   .     S
C1109  H1148   1.084   .     S
C1110  N1153   1.158   .     T
C1110  C943    1.454   1_655 S
C1111  H1128   1.111   .     S
C1111  H1129   1.112   .     S
C1112  H1127   1.111   .     S
C1112  H1152   1.109   .     S
C1112  H1151   1.110   .     S
C1112  C1345   1.528   .     S
C1113  C1114   1.525   .     S
C1113  H1133   1.110   .     S
C1113  H1134   1.099   .     S
C1114  H1130   1.110   .     S
C1114  H1132   1.111   .     S
C1114  H1131   1.109   .     S
C1115  C1120   1.411   .     A
C1115  H447    1.082   1_556 S
C1116  H1140   1.111   .     S
C1116  C1117   1.528   .     S
C1116  H1139   1.112   .     S
C1117  H1135   1.111   .     S
C1117  H434    1.111   1_556 S
C1117  H670    1.109   1_556 S
C1118  C1119   1.533   .     S
C1118  H1144   1.109   .     S
C1118  H1145   1.110   .     S
C1119  H1143   1.110   .     S
C1120  C1121   1.417   .     A
C1120  C420    1.425   1_556 S
C1121  C1125   1.409   .     A
C1123  C1124   1.393   .     A
C1123  C420    1.424   1_556 S
C1123  C405    1.393   1_556 S
C1124  H1146   1.084   .     S
C1124  C1125   1.383   .     A
C1125  H1150   1.081   .     S
H1137  C1335   1.087   .     S
H1141  C963    1.111   1_655 S
H1142  C963    1.110   1_655 S
O1154  Zn1169  1.943   .     S
O1154  Zn1168  1.958   .     S
O1154  Zn1167  1.961   .     S
O1154  Zn1170  1.947   .     S
O1155  Zn1168  1.945   .     S
O1156  Zn1170  1.953   .     S
O1157  Zn1169  1.953   .     S
O1158  Zn1167  1.946   .     S
O1159  Zn1167  1.929   .     S
O1160  Zn1170  1.927   .     S
O1161  Zn1168  1.944   .     S
O1162  Zn1169  1.951   .     S
O1163  Zn1170  1.949   .     S
O1164  Zn1167  1.942   .     S
O1165  Zn1168  1.930   .     S
O1166  Zn1169  1.929   .     S
C1171  O1241   1.267   .     A
C1171  O1239   1.282   .     A
C1171  C1177   1.442   .     S
C1172  C1186   1.419   .     A
C1172  C1191   1.539   .     S
C1172  C1200   1.431   .     A
C1173  H1204   1.084   .     S
C1173  C1185   1.380   .     A
C1173  C1186   1.396   .     A
C1174  O1240   1.284   .     A
C1174  C1176   1.471   .     S
C1174  O1242   1.277   .     A
C1175  C1187   1.402   .     A
C1175  C1199   1.414   .     A
C1175  C1184   1.465   .     S
C1176  C1255   1.363   .     S
C1176  C1274   1.530   .     S
C1177  C1332   1.363   1_455 S
C1177  C1344   1.454   1_455 S
C1178  C1181   1.472   .     S
C1178  C711    1.343   1_565 S
C1178  C721    1.540   1_565 S
C1179  C1180   1.440   .     S
C1180  O1237   1.279   .     A
C1180  O1243   1.286   .     A
C1181  O1238   1.291   .     A
C1181  O1244   1.274   .     A
C1182  C1193   1.397   .     A
C1182  C1187   1.395   .     A
C1182  C1194   1.507   .     S
C1183  O1235   1.276   .     A
C1183  O1233   1.276   .     A
C1183  C1186   1.448   .     S
C1184  O1234   1.284   .     A
C1184  O1236   1.281   .     A
C1185  H1225   1.083   .     S
C1187  H1226   1.084   .     S
C1188  N1231   1.158   .     T
C1188  C1255   1.454   .     S
C1189  H1206   1.111   .     S
C1189  H1207   1.112   .     S
C1190  H1205   1.111   .     S
C1190  H1230   1.109   .     S
C1190  H1229   1.110   .     S
C1190  C721    1.528   1_565 S
C1191  C1192   1.525   .     S
C1191  H1211   1.110   .     S
C1191  H1212   1.099   .     S
C1192  H1208   1.110   .     S
C1192  H1210   1.111   .     S
C1192  H1209   1.109   .     S
C1193  C1198   1.411   .     A
C1193  H525    1.082   1_556 S
C1194  H1218   1.111   .     S
C1194  C1195   1.528   .     S
C1194  H1217   1.112   .     S
C1195  H1213   1.111   .     S
C1195  H512    1.111   1_556 S
C1195  H46     1.109   1_566 S
C1196  C1197   1.533   .     S
C1196  H1222   1.109   .     S
C1196  H1223   1.110   .     S
C1196  C1332   1.530   1_455 S
C1197  H1221   1.110   .     S
C1197  H1375   1.111   1_455 S
C1197  H1376   1.110   1_455 S
C1198  C1199   1.417   .     A
C1198  C498    1.425   1_556 S
C1199  C1203   1.409   .     A
C1201  C1202   1.393   .     A
C1201  C498    1.424   1_556 S
C1201  C483    1.393   1_556 S
C1202  H1224   1.084   .     S
C1202  C1203   1.383   .     A
C1203  H1228   1.081   .     S
H1215  C711    1.087   1_565 S
H1219  C1275   1.111   .     S
H1220  C1275   1.110   .     S
O1232  Zn1247  1.943   .     S
O1232  Zn1246  1.958   .     S
O1232  Zn1245  1.961   .     S
O1232  Zn1248  1.947   .     S
O1233  Zn1246  1.945   .     S
O1234  Zn1248  1.953   .     S
O1235  Zn1247  1.953   .     S
O1236  Zn1245  1.946   .     S
O1237  Zn1245  1.929   .     S
O1238  Zn1248  1.927   .     S
O1239  Zn1246  1.944   .     S
O1240  Zn1247  1.951   .     S
O1241  Zn1248  1.949   .     S
O1242  Zn1245  1.942   .     S
O1243  Zn1246  1.930   .     S
O1244  Zn1247  1.929   .     S
C1249  O1319   1.267   .     A
C1249  O1317   1.282   .     A
C1249  C1255   1.442   .     S
C1250  C1264   1.419   .     A
C1250  C1269   1.539   .     S
C1250  C1278   1.431   .     A
C1251  H1282   1.084   .     S
C1251  C1263   1.380   .     A
C1251  C1264   1.396   .     A
C1252  O1318   1.284   .     A
C1252  C1254   1.471   .     S
C1252  O1320   1.277   .     A
C1253  C1265   1.402   .     A
C1253  C1277   1.414   .     A
C1253  C1262   1.465   .     S
C1254  C1333   1.363   .     S
C1254  C1352   1.530   .     S
C1256  C1259   1.472   .     S
C1256  C789    1.343   1_565 S
C1256  C799    1.540   1_565 S
C1257  C1258   1.440   .     S
C1258  O1315   1.279   .     A
C1258  O1321   1.286   .     A
C1259  O1316   1.291   .     A
C1259  O1322   1.274   .     A
C1260  C1271   1.397   .     A
C1260  C1265   1.395   .     A
C1260  C1272   1.507   .     S
C1261  O1313   1.276   .     A
C1261  O1311   1.276   .     A
C1261  C1264   1.448   .     S
C1262  O1312   1.284   .     A
C1262  O1314   1.281   .     A
C1263  H1303   1.083   .     S
C1265  H1304   1.084   .     S
C1266  N1309   1.158   .     T
C1266  C1333   1.454   .     S
C1267  H1284   1.111   .     S
C1267  H1285   1.112   .     S
C1268  H1283   1.111   .     S
C1268  H1308   1.109   .     S
C1268  H1307   1.110   .     S
C1268  C799    1.528   1_565 S
C1269  C1270   1.525   .     S
C1269  H1289   1.110   .     S
C1269  H1290   1.099   .     S
C1270  H1286   1.110   .     S
C1270  H1288   1.111   .     S
C1270  H1287   1.109   .     S
C1271  C1276   1.411   .     A
C1271  H603    1.082   1_556 S
C1272  H1296   1.111   .     S
C1272  C1273   1.528   .     S
C1272  H1295   1.112   .     S
C1273  H1291   1.111   .     S
C1273  H590    1.111   1_556 S
C1273  H124    1.109   1_566 S
C1274  C1275   1.533   .     S
C1274  H1300   1.109   .     S
C1274  H1301   1.110   .     S
C1275  H1299   1.110   .     S
C1276  C1277   1.417   .     A
C1276  C576    1.425   1_556 S
C1277  C1281   1.409   .     A
C1279  C1280   1.393   .     A
C1279  C576    1.424   1_556 S
C1279  C561    1.393   1_556 S
C1280  H1302   1.084   .     S
C1280  C1281   1.383   .     A
C1281  H1306   1.081   .     S
H1293  C789    1.087   1_565 S
H1297  C1353   1.111   .     S
H1298  C1353   1.110   .     S
O1310  Zn1325  1.943   .     S
O1310  Zn1324  1.958   .     S
O1310  Zn1323  1.961   .     S
O1310  Zn1326  1.947   .     S
O1311  Zn1324  1.945   .     S
O1312  Zn1326  1.953   .     S
O1313  Zn1325  1.953   .     S
O1314  Zn1323  1.946   .     S
O1315  Zn1323  1.929   .     S
O1316  Zn1326  1.927   .     S
O1317  Zn1324  1.944   .     S
O1318  Zn1325  1.951   .     S
O1319  Zn1326  1.949   .     S
O1320  Zn1323  1.942   .     S
O1321  Zn1324  1.930   .     S
O1322  Zn1325  1.929   .     S
C1327  O1397   1.267   .     A
C1327  O1395   1.282   .     A
C1327  C1333   1.442   .     S
C1328  C1342   1.419   .     A
C1328  C1347   1.539   .     S
C1328  C1356   1.431   .     A
C1329  H1360   1.084   .     S
C1329  C1341   1.380   .     A
C1329  C1342   1.396   .     A
C1330  O1396   1.284   .     A
C1330  C1332   1.471   .     S
C1330  O1398   1.277   .     A
C1331  C1343   1.402   .     A
C1331  C1355   1.414   .     A
C1331  C1340   1.465   .     S
C1332  C1177   1.363   1_655 S
C1332  C1196   1.530   1_655 S
C1334  C1337   1.472   .     S
C1334  C867    1.343   1_565 S
C1334  C877    1.540   1_565 S
C1335  C1336   1.440   .     S
C1336  O1393   1.279   .     A
C1336  O1399   1.286   .     A
C1337  O1394   1.291   .     A
C1337  O1400   1.274   .     A
C1338  C1349   1.397   .     A
C1338  C1343   1.395   .     A
C1338  C1350   1.507   .     S
C1339  O1391   1.276   .     A
C1339  O1389   1.276   .     A
C1339  C1342   1.448   .     S
C1340  O1390   1.284   .     A
C1340  O1392   1.281   .     A
C1341  H1381   1.083   .     S
C1343  H1382   1.084   .     S
C1344  N1387   1.158   .     T
C1344  C1177   1.454   1_655 S
C1345  H1362   1.111   .     S
C1345  H1363   1.112   .     S
C1346  H1361   1.111   .     S
C1346  H1386   1.109   .     S
C1346  H1385   1.110   .     S
C1346  C877    1.528   1_565 S
C1347  C1348   1.525   .     S
C1347  H1367   1.110   .     S
C1347  H1368   1.099   .     S
C1348  H1364   1.110   .     S
C1348  H1366   1.111   .     S
C1348  H1365   1.109   .     S
C1349  C1354   1.411   .     A
C1349  H681    1.082   1_556 S
C1350  H1374   1.111   .     S
C1350  C1351   1.528   .     S
C1350  H1373   1.112   .     S
C1351  H1369   1.111   .     S
C1351  H668    1.111   1_556 S
C1351  H202    1.109   1_566 S
C1352  C1353   1.533   .     S
C1352  H1378   1.109   .     S
C1352  H1379   1.110   .     S
C1353  H1377   1.110   .     S
C1354  C1355   1.417   .     A
C1354  C654    1.425   1_556 S
C1355  C1359   1.409   .     A
C1357  C1358   1.393   .     A
C1357  C654    1.424   1_556 S
C1357  C639    1.393   1_556 S
C1358  H1380   1.084   .     S
C1358  C1359   1.383   .     A
C1359  H1384   1.081   .     S
H1371  C867    1.087   1_565 S
H1375  C1197   1.111   1_655 S
H1376  C1197   1.110   1_655 S
O1388  Zn1403  1.943   .     S
O1388  Zn1402  1.958   .     S
O1388  Zn1401  1.961   .     S
O1388  Zn1404  1.947   .     S
O1389  Zn1402  1.945   .     S
O1390  Zn1404  1.953   .     S
O1391  Zn1403  1.953   .     S
O1392  Zn1401  1.946   .     S
O1393  Zn1401  1.929   .     S
O1394  Zn1404  1.927   .     S
O1395  Zn1402  1.944   .     S
O1396  Zn1403  1.951   .     S
O1397  Zn1404  1.949   .     S
O1398  Zn1401  1.942   .     S
O1399  Zn1402  1.930   .     S
O1400  Zn1403  1.929   .     S
