data_str_m1_o5_o17_pcu_sym.93
_audit_creation_date              2020-01-03
_audit_creation_method            'Materials Studio'
_symmetry_space_group_name_H-M    'P1'
_symmetry_Int_Tables_number       1
_symmetry_cell_setting            triclinic
loop_
_symmetry_equiv_pos_as_xyz
  x,y,z
_cell_length_a                    32.1705
_cell_length_b                    32.1705
_cell_length_c                    34.3508
_cell_angle_alpha                 89.9997
_cell_angle_beta                  90.0003
_cell_angle_gamma                 89.9504
loop_
_atom_site_label
_atom_site_type_symbol
_atom_site_fract_x
_atom_site_fract_y
_atom_site_fract_z
_atom_site_U_iso_or_equiv
_atom_site_adp_type
_atom_site_occupancy
C1     C     0.25000  -0.00000   0.35565   0.00000  Uiso   1.00
C2     C     0.33003   0.41997   0.75000   0.00000  Uiso   1.00
C3     C     0.42432   0.24923   0.02002   0.00000  Uiso   1.00
C4     C     0.25078   0.07567   0.97998   0.00000  Uiso   1.00
C5     C     0.25476   0.42454   0.02039   0.00000  Uiso   1.00
C6     C     0.42454   0.25476   0.97961   0.00000  Uiso   1.00
C7     C     0.07568   0.25078   0.02002   0.00000  Uiso   1.00
C8     C     0.47223   0.32378   0.39658   0.00000  Uiso   1.00
C9     C     0.00184   0.34480   0.36760   0.00000  Uiso   1.00
C10    C     0.47298   0.17602   0.60319   0.00000  Uiso   1.00
C11    C     0.00188   0.15504   0.63280   0.00000  Uiso   1.00
C12    C     0.17602   0.47298   0.39681   0.00000  Uiso   1.00
C13    C     0.41996   0.16996   0.25000   0.00000  Uiso   1.00
C14    C     0.15504   0.00188   0.36720   0.00000  Uiso   1.00
C15    C     0.32378   0.47223   0.60342   0.00000  Uiso   1.00
C16    C     0.34480   0.00184   0.63239   0.00000  Uiso   1.00
C17    C     0.02777   0.17622   0.39658   0.00000  Uiso   1.00
C18    C     0.49816   0.15520   0.36760   0.00000  Uiso   1.00
C19    C     0.02702   0.32398   0.60319   0.00000  Uiso   1.00
C20    C     0.49812   0.34496   0.63280   0.00000  Uiso   1.00
C21    C     0.32398   0.02702   0.39681   0.00000  Uiso   1.00
C22    C     0.34496   0.49812   0.36720   0.00000  Uiso   1.00
C23    C     0.17622   0.02777   0.60342   0.00000  Uiso   1.00
C24    C     0.08004   0.33004   0.75000   0.00000  Uiso   1.00
C25    C     0.15520   0.49816   0.63239   0.00000  Uiso   1.00
C26    C     0.22223   0.07378   0.89658   0.00000  Uiso   1.00
C27    C     0.25184   0.09480   0.86760   0.00000  Uiso   1.00
C28    C     0.22298   0.42602   0.10319   0.00000  Uiso   1.00
C29    C     0.25188   0.40504   0.13280   0.00000  Uiso   1.00
C30    C     0.42602   0.22298   0.89681   0.00000  Uiso   1.00
C31    C     0.40504   0.25188   0.86720   0.00000  Uiso   1.00
C32    C     0.07378   0.22223   0.10342   0.00000  Uiso   1.00
C33    C     0.09480   0.25184   0.13239   0.00000  Uiso   1.00
C34    C     0.27777   0.42622   0.89658   0.00000  Uiso   1.00
C35    C     0.33003   0.41997   0.25000   0.00000  Uiso   1.00
C36    C     0.24816   0.40519   0.86760   0.00000  Uiso   1.00
C37    C     0.27702   0.07398   0.10319   0.00000  Uiso   1.00
C38    C     0.24812   0.09496   0.13280   0.00000  Uiso   1.00
C39    C     0.07399   0.27702   0.89681   0.00000  Uiso   1.00
C40    C     0.09496   0.24811   0.86720   0.00000  Uiso   1.00
C41    C     0.42622   0.27776   0.10342   0.00000  Uiso   1.00
C42    C     0.40520   0.24815   0.13239   0.00000  Uiso   1.00
C43    C     0.47497   0.13992   0.46257   0.00000  Uiso   1.00
C44    C     0.43450   0.14807   0.44892   0.00000  Uiso   1.00
C45    C     0.41314   0.11828   0.42724   0.00000  Uiso   1.00
C46    C     0.16997   0.08003   0.75000   0.00000  Uiso   1.00
C47    C     0.43194   0.08018   0.41930   0.00000  Uiso   1.00
C48    C     0.47075   0.07078   0.43522   0.00000  Uiso   1.00
C49    C     0.49232   0.10047   0.45684   0.00000  Uiso   1.00
C50    C     0.46954   0.35855   0.53824   0.00000  Uiso   1.00
C51    C     0.42856   0.34931   0.54968   0.00000  Uiso   1.00
C52    C     0.40629   0.37716   0.57292   0.00000  Uiso   1.00
C53    C     0.42518   0.41378   0.58553   0.00000  Uiso   1.00
C54    C     0.46504   0.42392   0.57267   0.00000  Uiso   1.00
C55    C     0.48660   0.39710   0.54793   0.00000  Uiso   1.00
C56    C     0.35855   0.46954   0.46176   0.00000  Uiso   1.00
C57    C     0.08004   0.33004   0.25000   0.00000  Uiso   1.00
C58    C     0.34932   0.42856   0.45032   0.00000  Uiso   1.00
C59    C     0.37716   0.40629   0.42708   0.00000  Uiso   1.00
C60    C     0.41378   0.42518   0.41447   0.00000  Uiso   1.00
C61    C     0.42392   0.46504   0.42733   0.00000  Uiso   1.00
C62    C     0.39711   0.48660   0.45207   0.00000  Uiso   1.00
C63    C     0.13992   0.47497   0.53743   0.00000  Uiso   1.00
C64    C     0.14807   0.43450   0.55108   0.00000  Uiso   1.00
C65    C     0.11828   0.41314   0.57277   0.00000  Uiso   1.00
C66    C     0.08018   0.43194   0.58070   0.00000  Uiso   1.00
C67    C     0.07078   0.47075   0.56478   0.00000  Uiso   1.00
C68    C     0.41996   0.16996   0.75000   0.00000  Uiso   1.00
C69    C     0.10047   0.49232   0.54316   0.00000  Uiso   1.00
C70    C     0.02504   0.36008   0.46257   0.00000  Uiso   1.00
C71    C     0.06551   0.35192   0.44892   0.00000  Uiso   1.00
C72    C     0.08687   0.38172   0.42723   0.00000  Uiso   1.00
C73    C     0.06806   0.41981   0.41929   0.00000  Uiso   1.00
C74    C     0.02926   0.42922   0.43521   0.00000  Uiso   1.00
C75    C     0.00768   0.39953   0.45684   0.00000  Uiso   1.00
C76    C     0.03046   0.14145   0.53824   0.00000  Uiso   1.00
C77    C     0.07144   0.15068   0.54969   0.00000  Uiso   1.00
C78    C     0.09371   0.12284   0.57292   0.00000  Uiso   1.00
C79    C     0.16996   0.41996   0.75000   0.00000  Uiso   1.00
C80    C     0.07482   0.08622   0.58554   0.00000  Uiso   1.00
C81    C     0.03496   0.07608   0.57268   0.00000  Uiso   1.00
C82    C     0.01340   0.10289   0.54794   0.00000  Uiso   1.00
C83    C     0.14145   0.03046   0.46176   0.00000  Uiso   1.00
C84    C     0.15068   0.07144   0.45031   0.00000  Uiso   1.00
C85    C     0.12284   0.09371   0.42708   0.00000  Uiso   1.00
C86    C     0.08622   0.07481   0.41446   0.00000  Uiso   1.00
C87    C     0.07608   0.03496   0.42732   0.00000  Uiso   1.00
C88    C     0.10290   0.01339   0.45206   0.00000  Uiso   1.00
C89    C     0.36008   0.02504   0.53743   0.00000  Uiso   1.00
C90    C     0.33004   0.08004   0.25000   0.00000  Uiso   1.00
C91    C     0.35192   0.06551   0.55108   0.00000  Uiso   1.00
C92    C     0.38172   0.08686   0.57276   0.00000  Uiso   1.00
C93    C     0.41981   0.06806   0.58071   0.00000  Uiso   1.00
C94    C     0.42922   0.02926   0.56479   0.00000  Uiso   1.00
C95    C     0.39953   0.00768   0.54316   0.00000  Uiso   1.00
C96    C     0.22497   0.38992   0.96257   0.00000  Uiso   1.00
C97    C     0.18450   0.39807   0.94892   0.00000  Uiso   1.00
C98    C     0.16314   0.36827   0.92724   0.00000  Uiso   1.00
C99    C     0.18194   0.33017   0.91930   0.00000  Uiso   1.00
C100   C     0.22075   0.32077   0.93522   0.00000  Uiso   1.00
C101   C     0.41997   0.33003   0.75000   0.00000  Uiso   1.00
C102   C     0.24233   0.35046   0.95684   0.00000  Uiso   1.00
C103   C     0.21954   0.10854   0.03824   0.00000  Uiso   1.00
C104   C     0.17857   0.09931   0.04968   0.00000  Uiso   1.00
C105   C     0.15630   0.12715   0.07292   0.00000  Uiso   1.00
C106   C     0.17519   0.16378   0.08553   0.00000  Uiso   1.00
C107   C     0.21503   0.17392   0.07266   0.00000  Uiso   1.00
C108   C     0.23661   0.14711   0.04792   0.00000  Uiso   1.00
C109   C     0.10855   0.21954   0.96176   0.00000  Uiso   1.00
C110   C     0.09931   0.17857   0.95031   0.00000  Uiso   1.00
C111   C     0.12716   0.15629   0.92708   0.00000  Uiso   1.00
C112   C     0.25000   0.00000   0.64431   0.00000  Uiso   1.00
C113   C     0.08003   0.16997   0.25000   0.00000  Uiso   1.00
C114   C     0.16378   0.17518   0.91447   0.00000  Uiso   1.00
C115   C     0.17393   0.21503   0.92735   0.00000  Uiso   1.00
C116   C     0.14711   0.23660   0.95208   0.00000  Uiso   1.00
C117   C     0.38992   0.22497   0.03743   0.00000  Uiso   1.00
C118   C     0.39807   0.18450   0.05108   0.00000  Uiso   1.00
C119   C     0.36827   0.16314   0.07276   0.00000  Uiso   1.00
C120   C     0.33018   0.18194   0.08070   0.00000  Uiso   1.00
C121   C     0.32078   0.22075   0.06478   0.00000  Uiso   1.00
C122   C     0.35047   0.24232   0.04315   0.00000  Uiso   1.00
C123   C     0.27505   0.11007   0.96257   0.00000  Uiso   1.00
C124   C     0.33004   0.08004   0.75000   0.00000  Uiso   1.00
C125   C     0.31552   0.10191   0.94893   0.00000  Uiso   1.00
C126   C     0.33688   0.13170   0.92724   0.00000  Uiso   1.00
C127   C     0.31808   0.16980   0.91929   0.00000  Uiso   1.00
C128   C     0.27927   0.17920   0.93520   0.00000  Uiso   1.00
C129   C     0.25770   0.14952   0.95683   0.00000  Uiso   1.00
C130   C     0.28046   0.39145   0.03825   0.00000  Uiso   1.00
C131   C     0.32144   0.40067   0.04969   0.00000  Uiso   1.00
C132   C     0.34371   0.37283   0.07292   0.00000  Uiso   1.00
C133   C     0.32481   0.33621   0.08554   0.00000  Uiso   1.00
C134   C     0.28495   0.32607   0.07268   0.00000  Uiso   1.00
C135   C     0.16996   0.41996   0.25000   0.00000  Uiso   1.00
C136   C     0.26339   0.35289   0.04794   0.00000  Uiso   1.00
C137   C     0.39145   0.28046   0.96175   0.00000  Uiso   1.00
C138   C     0.40068   0.32144   0.95031   0.00000  Uiso   1.00
C139   C     0.37284   0.34371   0.92708   0.00000  Uiso   1.00
C140   C     0.33622   0.32481   0.91446   0.00000  Uiso   1.00
C141   C     0.32608   0.28496   0.92732   0.00000  Uiso   1.00
C142   C     0.35289   0.26339   0.95206   0.00000  Uiso   1.00
C143   C     0.11007   0.27505   0.03743   0.00000  Uiso   1.00
C144   C     0.10191   0.31553   0.05106   0.00000  Uiso   1.00
C145   C     0.13170   0.33689   0.07275   0.00000  Uiso   1.00
C146   C     0.08003   0.16997   0.75000   0.00000  Uiso   1.00
C147   C     0.16979   0.31809   0.08071   0.00000  Uiso   1.00
C148   C     0.17920   0.27927   0.06481   0.00000  Uiso   1.00
C149   C     0.14952   0.25769   0.04318   0.00000  Uiso   1.00
C150   C     0.41997   0.33003   0.25000   0.00000  Uiso   1.00
C151   C     0.13829   0.38829   0.25000   0.00000  Uiso   1.00
C152   C     0.36171   0.11171   0.75000   0.00000  Uiso   1.00
C153   C     0.11171   0.13829   0.25000   0.00000  Uiso   1.00
C154   C     0.38829   0.36171   0.75000   0.00000  Uiso   1.00
C155   C     0.36171   0.11171   0.25000   0.00000  Uiso   1.00
C156   C     0.00000   0.25000   0.35568   0.00000  Uiso   1.00
C157   C     0.13829   0.38829   0.75000   0.00000  Uiso   1.00
C158   C     0.38829   0.36171   0.25000   0.00000  Uiso   1.00
C159   C     0.11171   0.13829   0.75000   0.00000  Uiso   1.00
C160   C     0.13829   0.11171   0.75000   0.00000  Uiso   1.00
C161   C     0.36171   0.38829   0.25000   0.00000  Uiso   1.00
C162   C     0.11171   0.36171   0.75000   0.00000  Uiso   1.00
C163   C     0.38829   0.13829   0.25000   0.00000  Uiso   1.00
C164   C     0.36171   0.38829   0.75000   0.00000  Uiso   1.00
C165   C     0.13829   0.11171   0.25000   0.00000  Uiso   1.00
C166   C     0.38829   0.13829   0.75000   0.00000  Uiso   1.00
C167   C     0.00000   0.25000   0.64435   0.00000  Uiso   1.00
C168   C     0.11171   0.36171   0.25000   0.00000  Uiso   1.00
C169   C     0.49182   0.28717   0.41816   0.00000  Uiso   1.00
C170   C     0.49294   0.21264   0.58198   0.00000  Uiso   1.00
C171   C     0.21264   0.49294   0.41802   0.00000  Uiso   1.00
C172   C     0.28718   0.49182   0.58184   0.00000  Uiso   1.00
C173   C     0.00818   0.21282   0.41816   0.00000  Uiso   1.00
C174   C     0.00706   0.28736   0.58198   0.00000  Uiso   1.00
C175   C     0.28736   0.00706   0.41802   0.00000  Uiso   1.00
C176   C     0.21282   0.00818   0.58184   0.00000  Uiso   1.00
C177   C     0.24182   0.03717   0.91816   0.00000  Uiso   1.00
C178   C     0.00000   0.25000   0.85565   0.00000  Uiso   1.00
C179   C     0.24294   0.46264   0.08198   0.00000  Uiso   1.00
C180   C     0.46264   0.24294   0.91802   0.00000  Uiso   1.00
C181   C     0.03717   0.24182   0.08184   0.00000  Uiso   1.00
C182   C     0.25818   0.46282   0.91816   0.00000  Uiso   1.00
C183   C     0.25706   0.03736   0.08198   0.00000  Uiso   1.00
C184   C     0.03736   0.25706   0.91802   0.00000  Uiso   1.00
C185   C     0.46282   0.25818   0.08184   0.00000  Uiso   1.00
C186   C     0.00000   0.25000   0.39802   0.00000  Uiso   1.00
C187   C     0.00000   0.25000   0.60210   0.00000  Uiso   1.00
C188   C     0.25000  -0.00000   0.39790   0.00000  Uiso   1.00
C189   C    -0.00000   0.25000   0.14431   0.00000  Uiso   1.00
C190   C     0.25000   0.00000   0.60198   0.00000  Uiso   1.00
C191   C     0.25000  -0.00000   0.89802   0.00000  Uiso   1.00
C192   C     0.25000   0.00000   0.10210   0.00000  Uiso   1.00
C193   C     0.00000   0.25000   0.89790   0.00000  Uiso   1.00
C194   C    -0.00000   0.25000   0.10198   0.00000  Uiso   1.00
C195   C     0.00231   0.21202   0.45907   0.00000  Uiso   1.00
C196   C     0.00053   0.28799   0.54117   0.00000  Uiso   1.00
C197   C     0.28799   0.00053   0.45883   0.00000  Uiso   1.00
C198   C     0.21202   0.00231   0.54093   0.00000  Uiso   1.00
C199   C     0.49769   0.28798   0.45907   0.00000  Uiso   1.00
C200   C     0.25000  -0.00000   0.85568   0.00000  Uiso   1.00
C201   C     0.49947   0.21201   0.54117   0.00000  Uiso   1.00
C202   C     0.21201   0.49947   0.45883   0.00000  Uiso   1.00
C203   C     0.28798   0.49769   0.54093   0.00000  Uiso   1.00
C204   C     0.25231   0.46202   0.95907   0.00000  Uiso   1.00
C205   C     0.25054   0.03799   0.04117   0.00000  Uiso   1.00
C206   C     0.03799   0.25053   0.95883   0.00000  Uiso   1.00
C207   C     0.46202   0.25231   0.04093   0.00000  Uiso   1.00
C208   C     0.24770   0.03797   0.95907   0.00000  Uiso   1.00
C209   C     0.24947   0.46201   0.04117   0.00000  Uiso   1.00
C210   C     0.46201   0.24947   0.95883   0.00000  Uiso   1.00
C211   C     0.25000   0.00000   0.14435   0.00000  Uiso   1.00
C212   C     0.03797   0.24770   0.04093   0.00000  Uiso   1.00
C213   C     0.00000   0.25000   0.47957   0.00000  Uiso   1.00
C214   C     0.00000   0.25000   0.52063   0.00000  Uiso   1.00
C215   C     0.25000   0.00000   0.47937   0.00000  Uiso   1.00
C216   C     0.25000   0.00000   0.52043   0.00000  Uiso   1.00
C217   C     0.25000  -0.00000   0.97957   0.00000  Uiso   1.00
C218   C     0.25000  -0.00000   0.02063   0.00000  Uiso   1.00
C219   C    -0.00000   0.25000   0.97937   0.00000  Uiso   1.00
C220   C    -0.00000   0.25000   0.02043   0.00000  Uiso   1.00
C221   C     0.49923   0.17432   0.47998   0.00000  Uiso   1.00
C222   C     0.16997   0.08003   0.25000   0.00000  Uiso   1.00
C223   C     0.49524   0.32546   0.52039   0.00000  Uiso   1.00
C224   C     0.32546   0.49524   0.47961   0.00000  Uiso   1.00
C225   C     0.17432   0.49923   0.52002   0.00000  Uiso   1.00
C226   C     0.00077   0.32568   0.47998   0.00000  Uiso   1.00
C227   C     0.00476   0.17454   0.52039   0.00000  Uiso   1.00
C228   C     0.17454   0.00476   0.47961   0.00000  Uiso   1.00
C229   C     0.32568   0.00077   0.52002   0.00000  Uiso   1.00
C230   C     0.24923   0.42432   0.97998   0.00000  Uiso   1.00
C231   C     0.24525   0.07546   0.02039   0.00000  Uiso   1.00
C232   C     0.07546   0.24524   0.97961   0.00000  Uiso   1.00
H233   H     0.03484   0.33890   0.37506   0.00000  Uiso   1.00
H234   H     0.44457   0.18693   0.61849   0.00000  Uiso   1.00
H235   H     0.09341   0.02310   0.53241   0.00000  Uiso   1.00
H236   H     0.07975   0.32182   0.45366   0.00000  Uiso   1.00
H237   H     0.11739   0.37483   0.41566   0.00000  Uiso   1.00
H238   H     0.08368   0.44227   0.40112   0.00000  Uiso   1.00
H239   H     0.01567   0.45927   0.43017   0.00000  Uiso   1.00
H240   H     0.47690   0.40659   0.46758   0.00000  Uiso   1.00
H241   H     0.08538   0.18020   0.54200   0.00000  Uiso   1.00
H242   H     0.12479   0.13052   0.58259   0.00000  Uiso   1.00
H243   H     0.09067   0.06593   0.60567   0.00000  Uiso   1.00
H244   H     0.02018   0.04834   0.58328   0.00000  Uiso   1.00
H245   H     0.15777   0.03489   0.37598   0.00000  Uiso   1.00
H246   H     0.48241   0.09513   0.53844   0.00000  Uiso   1.00
H247   H     0.18020   0.08538   0.45800   0.00000  Uiso   1.00
H248   H     0.13052   0.12479   0.41741   0.00000  Uiso   1.00
H249   H     0.06593   0.09067   0.39433   0.00000  Uiso   1.00
H250   H     0.04834   0.02018   0.41672   0.00000  Uiso   1.00
H251   H     0.09514   0.48241   0.46156   0.00000  Uiso   1.00
H252   H     0.32182   0.07975   0.54634   0.00000  Uiso   1.00
H253   H     0.37483   0.11739   0.58434   0.00000  Uiso   1.00
H254   H     0.44227   0.08368   0.59888   0.00000  Uiso   1.00
H255   H     0.45927   0.01567   0.56983   0.00000  Uiso   1.00
H256   H     0.16922   0.49819   0.33796   0.00000  Uiso   1.00
H257   H     0.40659   0.47690   0.53242   0.00000  Uiso   1.00
H258   H     0.17026   0.42817   0.95366   0.00000  Uiso   1.00
H259   H     0.13261   0.37515   0.91566   0.00000  Uiso   1.00
H260   H     0.16633   0.30771   0.90113   0.00000  Uiso   1.00
H261   H     0.23435   0.29072   0.93018   0.00000  Uiso   1.00
H262   H     0.27311   0.34341   0.96759   0.00000  Uiso   1.00
H263   H     0.16463   0.06979   0.04201   0.00000  Uiso   1.00
H264   H     0.12522   0.11947   0.08259   0.00000  Uiso   1.00
H265   H     0.15933   0.18407   0.10566   0.00000  Uiso   1.00
H266   H     0.22982   0.20167   0.08325   0.00000  Uiso   1.00
H267   H     0.12166   0.49384   0.36436   0.00000  Uiso   1.00
H268   H     0.26759   0.15487   0.03842   0.00000  Uiso   1.00
H269   H     0.06979   0.16463   0.95799   0.00000  Uiso   1.00
H270   H     0.11948   0.12522   0.91741   0.00000  Uiso   1.00
H271   H     0.18407   0.15933   0.89434   0.00000  Uiso   1.00
H272   H     0.20168   0.22981   0.91676   0.00000  Uiso   1.00
H273   H     0.15487   0.26758   0.96158   0.00000  Uiso   1.00
H274   H     0.42818   0.17026   0.04634   0.00000  Uiso   1.00
H275   H     0.37516   0.13261   0.08434   0.00000  Uiso   1.00
H276   H     0.30771   0.16633   0.09887   0.00000  Uiso   1.00
H277   H     0.29072   0.23434   0.06981   0.00000  Uiso   1.00
H278   H     0.15286   0.46105   0.41775   0.00000  Uiso   1.00
H279   H     0.34341   0.27311   0.03241   0.00000  Uiso   1.00
H280   H     0.32976   0.07181   0.95367   0.00000  Uiso   1.00
H281   H     0.36741   0.12481   0.91567   0.00000  Uiso   1.00
H282   H     0.33370   0.19225   0.90111   0.00000  Uiso   1.00
H283   H     0.26568   0.20925   0.93015   0.00000  Uiso   1.00
H284   H     0.22691   0.15659   0.96757   0.00000  Uiso   1.00
H285   H     0.33538   0.43019   0.04200   0.00000  Uiso   1.00
H286   H     0.37479   0.38050   0.08259   0.00000  Uiso   1.00
H287   H     0.34066   0.31592   0.10567   0.00000  Uiso   1.00
H288   H     0.27017   0.29833   0.08328   0.00000  Uiso   1.00
H289   H     0.18693   0.44457   0.38151   0.00000  Uiso   1.00
H290   H     0.23241   0.34513   0.03844   0.00000  Uiso   1.00
H291   H     0.43020   0.33538   0.95800   0.00000  Uiso   1.00
H292   H     0.38051   0.37479   0.91742   0.00000  Uiso   1.00
H293   H     0.31593   0.34067   0.89432   0.00000  Uiso   1.00
H294   H     0.29834   0.27017   0.91672   0.00000  Uiso   1.00
H295   H     0.34514   0.23241   0.96156   0.00000  Uiso   1.00
H296   H     0.07181   0.32976   0.04630   0.00000  Uiso   1.00
H297   H     0.12482   0.36742   0.08431   0.00000  Uiso   1.00
H298   H     0.19225   0.33371   0.09889   0.00000  Uiso   1.00
H299   H     0.20924   0.26568   0.06987   0.00000  Uiso   1.00
H300   H     0.33890   0.03484   0.62494   0.00000  Uiso   1.00
H301   H     0.15658   0.22691   0.03244   0.00000  Uiso   1.00
H302   H     0.33304   0.49622   0.66232   0.00000  Uiso   1.00
H303   H     0.37886   0.49645   0.63273   0.00000  Uiso   1.00
H304   H     0.34693   0.45986   0.58270   0.00000  Uiso   1.00
H305   H     0.49622   0.33304   0.33768   0.00000  Uiso   1.00
H306   H     0.31290   0.44415   0.61922   0.00000  Uiso   1.00
H307   H     0.46516   0.16110   0.37506   0.00000  Uiso   1.00
H308   H     0.00379   0.16696   0.33768   0.00000  Uiso   1.00
H309   H     0.00354   0.12114   0.36727   0.00000  Uiso   1.00
H310   H     0.04014   0.15307   0.41729   0.00000  Uiso   1.00
H311   H     0.05585   0.18710   0.38078   0.00000  Uiso   1.00
H312   H     0.46511   0.34223   0.62402   0.00000  Uiso   1.00
H313   H     0.00181   0.33079   0.66204   0.00000  Uiso   1.00
H314   H     0.00615   0.37834   0.63563   0.00000  Uiso   1.00
H315   H     0.03895   0.34714   0.58225   0.00000  Uiso   1.00
H316   H     0.49645   0.37886   0.36726   0.00000  Uiso   1.00
H317   H     0.05543   0.31307   0.61849   0.00000  Uiso   1.00
H318   H     0.34223   0.46511   0.37598   0.00000  Uiso   1.00
H319   H     0.33079   0.00181   0.33796   0.00000  Uiso   1.00
H320   H     0.37834   0.00615   0.36436   0.00000  Uiso   1.00
H321   H     0.34714   0.03895   0.41775   0.00000  Uiso   1.00
H322   H     0.31308   0.05543   0.38151   0.00000  Uiso   1.00
H323   H     0.16111   0.46516   0.62494   0.00000  Uiso   1.00
H324   H     0.16695   0.00379   0.66232   0.00000  Uiso   1.00
H325   H     0.12114   0.00354   0.63273   0.00000  Uiso   1.00
H326   H     0.15307   0.04014   0.58270   0.00000  Uiso   1.00
H327   H     0.45986   0.34693   0.41729   0.00000  Uiso   1.00
H328   H     0.18710   0.05585   0.61922   0.00000  Uiso   1.00
H329   H     0.28483   0.08891   0.87507   0.00000  Uiso   1.00
H330   H     0.24622   0.08303   0.83768   0.00000  Uiso   1.00
H331   H     0.24644   0.12886   0.86726   0.00000  Uiso   1.00
H332   H     0.20986   0.09692   0.91730   0.00000  Uiso   1.00
H333   H     0.19415   0.06289   0.88078   0.00000  Uiso   1.00
H334   H     0.28489   0.40777   0.12402   0.00000  Uiso   1.00
H335   H     0.24819   0.41921   0.16204   0.00000  Uiso   1.00
H336   H     0.24384   0.37166   0.13564   0.00000  Uiso   1.00
H337   H     0.21104   0.40287   0.08225   0.00000  Uiso   1.00
H338   H     0.44415   0.31290   0.38078   0.00000  Uiso   1.00
H339   H     0.19457   0.43693   0.11849   0.00000  Uiso   1.00
H340   H     0.40777   0.28488   0.87598   0.00000  Uiso   1.00
H341   H     0.41922   0.24819   0.83796   0.00000  Uiso   1.00
H342   H     0.37166   0.24384   0.86436   0.00000  Uiso   1.00
H343   H     0.40287   0.21104   0.91775   0.00000  Uiso   1.00
H344   H     0.43693   0.19457   0.88151   0.00000  Uiso   1.00
H345   H     0.08894   0.28483   0.12491   0.00000  Uiso   1.00
H346   H     0.08301   0.24625   0.16231   0.00000  Uiso   1.00
H347   H     0.12886   0.24641   0.13276   0.00000  Uiso   1.00
H348   H     0.09692   0.20986   0.08270   0.00000  Uiso   1.00
H349   H     0.03489   0.15777   0.62402   0.00000  Uiso   1.00
H350   H     0.06289   0.19415   0.11922   0.00000  Uiso   1.00
H351   H     0.21516   0.41109   0.87507   0.00000  Uiso   1.00
H352   H     0.25378   0.41696   0.83768   0.00000  Uiso   1.00
H353   H     0.25355   0.37113   0.86726   0.00000  Uiso   1.00
H354   H     0.29014   0.40307   0.91729   0.00000  Uiso   1.00
H355   H     0.30585   0.43710   0.88078   0.00000  Uiso   1.00
H356   H     0.21511   0.09222   0.12402   0.00000  Uiso   1.00
H357   H     0.25181   0.08079   0.16204   0.00000  Uiso   1.00
H358   H     0.25615   0.12834   0.13563   0.00000  Uiso   1.00
H359   H     0.28895   0.09714   0.08225   0.00000  Uiso   1.00
H360   H     0.49819   0.16921   0.66204   0.00000  Uiso   1.00
H361   H     0.30543   0.06308   0.11849   0.00000  Uiso   1.00
H362   H     0.09222   0.21511   0.87598   0.00000  Uiso   1.00
H363   H     0.08079   0.25180   0.83796   0.00000  Uiso   1.00
H364   H     0.12835   0.25614   0.86437   0.00000  Uiso   1.00
H365   H     0.09714   0.28895   0.91775   0.00000  Uiso   1.00
H366   H     0.06308   0.30543   0.88151   0.00000  Uiso   1.00
H367   H     0.41111   0.21516   0.12494   0.00000  Uiso   1.00
H368   H     0.41695   0.25378   0.16232   0.00000  Uiso   1.00
H369   H     0.37113   0.25354   0.13273   0.00000  Uiso   1.00
H370   H     0.40307   0.29014   0.08271   0.00000  Uiso   1.00
H371   H     0.49384   0.12166   0.63564   0.00000  Uiso   1.00
H372   H     0.43710   0.30585   0.11922   0.00000  Uiso   1.00
H373   H     0.42026   0.17818   0.45366   0.00000  Uiso   1.00
H374   H     0.38261   0.12516   0.41566   0.00000  Uiso   1.00
H375   H     0.41633   0.05772   0.40113   0.00000  Uiso   1.00
H376   H     0.48434   0.04073   0.43018   0.00000  Uiso   1.00
H377   H     0.02311   0.09341   0.46759   0.00000  Uiso   1.00
H378   H     0.41462   0.31979   0.54200   0.00000  Uiso   1.00
H379   H     0.37521   0.36948   0.58258   0.00000  Uiso   1.00
H380   H     0.40933   0.43407   0.60567   0.00000  Uiso   1.00
H381   H     0.47982   0.45167   0.58327   0.00000  Uiso   1.00
H382   H     0.46105   0.15286   0.58225   0.00000  Uiso   1.00
H383   H     0.01759   0.40487   0.53843   0.00000  Uiso   1.00
H384   H     0.31979   0.41462   0.45800   0.00000  Uiso   1.00
H385   H     0.36948   0.37521   0.41742   0.00000  Uiso   1.00
H386   H     0.43407   0.40933   0.39433   0.00000  Uiso   1.00
H387   H     0.45167   0.47982   0.41673   0.00000  Uiso   1.00
H388   H     0.40487   0.01759   0.46157   0.00000  Uiso   1.00
H389   H     0.17818   0.42026   0.54635   0.00000  Uiso   1.00
H390   H     0.12516   0.38262   0.58435   0.00000  Uiso   1.00
H391   H     0.05772   0.41633   0.59887   0.00000  Uiso   1.00
H392   H     0.04072   0.48434   0.56982   0.00000  Uiso   1.00
O393   O     0.25000   0.00000   0.25000   0.00000  Uiso   1.00
O394   O     0.25000   0.46538   0.66251   0.00000  Uiso   1.00
O395   O     0.46539   0.25000   0.33749   0.00000  Uiso   1.00
O396   O     0.03462   0.25000   0.66251   0.00000  Uiso   1.00
O397   O     0.00000   0.21538   0.83749   0.00000  Uiso   1.00
O398   O     0.00000   0.28461   0.16251   0.00000  Uiso   1.00
O399   O     0.28462  -0.00000   0.83749   0.00000  Uiso   1.00
O400   O     0.21539  -0.00000   0.16251   0.00000  Uiso   1.00
O401   O     0.00000   0.28461   0.83749   0.00000  Uiso   1.00
O402   O     0.00000   0.21538   0.16251   0.00000  Uiso   1.00
O403   O     0.21539  -0.00000   0.83749   0.00000  Uiso   1.00
O404   O     0.25000   0.00000   0.75000   0.00000  Uiso   1.00
O405   O     0.28462  -0.00000   0.16251   0.00000  Uiso   1.00
O406   O     0.20127   0.08332   0.27298   0.00000  Uiso   1.00
O407   O     0.29874   0.41668   0.72702   0.00000  Uiso   1.00
O408   O     0.41668   0.20126   0.27298   0.00000  Uiso   1.00
O409   O     0.08332   0.29873   0.72702   0.00000  Uiso   1.00
O410   O     0.29874   0.41668   0.27298   0.00000  Uiso   1.00
O411   O     0.20127   0.08332   0.72702   0.00000  Uiso   1.00
O412   O     0.08332   0.29873   0.27298   0.00000  Uiso   1.00
O413   O     0.41668   0.20126   0.72702   0.00000  Uiso   1.00
O414   O     0.20127   0.41668   0.72702   0.00000  Uiso   1.00
O415   O     0.00000   0.25000   0.25000   0.00000  Uiso   1.00
O416   O     0.29874   0.08332   0.27298   0.00000  Uiso   1.00
O417   O     0.41668   0.29873   0.72702   0.00000  Uiso   1.00
O418   O     0.08332   0.20126   0.27298   0.00000  Uiso   1.00
O419   O     0.29874   0.08332   0.72702   0.00000  Uiso   1.00
O420   O     0.20127   0.41668   0.27298   0.00000  Uiso   1.00
O421   O     0.08332   0.20126   0.72702   0.00000  Uiso   1.00
O422   O     0.41668   0.29873   0.27298   0.00000  Uiso   1.00
O423   O     0.45127   0.33332   0.77298   0.00000  Uiso   1.00
O424   O     0.04874   0.16668   0.22702   0.00000  Uiso   1.00
O425   O     0.16668   0.45126   0.77298   0.00000  Uiso   1.00
O426   O     0.00000   0.25000   0.75000   0.00000  Uiso   1.00
O427   O     0.33332   0.04873   0.22702   0.00000  Uiso   1.00
O428   O     0.04874   0.16668   0.77298   0.00000  Uiso   1.00
O429   O     0.45127   0.33332   0.22702   0.00000  Uiso   1.00
O430   O     0.33332   0.04873   0.77298   0.00000  Uiso   1.00
O431   O     0.16668   0.45126   0.22702   0.00000  Uiso   1.00
O432   O     0.45127   0.16668   0.22702   0.00000  Uiso   1.00
O433   O     0.04874   0.33332   0.77298   0.00000  Uiso   1.00
O434   O     0.16668   0.04873   0.22702   0.00000  Uiso   1.00
O435   O     0.33332   0.45126   0.77298   0.00000  Uiso   1.00
O436   O     0.04874   0.33332   0.22702   0.00000  Uiso   1.00
O437   O     0.25000   0.46538   0.33749   0.00000  Uiso   1.00
O438   O     0.45127   0.16668   0.77298   0.00000  Uiso   1.00
O439   O     0.33332   0.45126   0.22702   0.00000  Uiso   1.00
O440   O     0.16668   0.04873   0.77298   0.00000  Uiso   1.00
O441   O     0.25000   0.03462   0.66251   0.00000  Uiso   1.00
O442   O     0.03462   0.25000   0.33749   0.00000  Uiso   1.00
O443   O     0.46539   0.25000   0.66251   0.00000  Uiso   1.00
O444   O     0.25000   0.03462   0.33749   0.00000  Uiso   1.00
Zn445  Zn    0.20053   0.00000   0.21730   0.00000  Uiso   1.00
Zn446  Zn    0.04948   0.25000   0.28270   0.00000  Uiso   1.00
Zn447  Zn    0.25000   0.45052   0.71730   0.00000  Uiso   1.00
Zn448  Zn    0.25000   0.04947   0.28270   0.00000  Uiso   1.00
Zn449  Zn    0.04948   0.25000   0.71730   0.00000  Uiso   1.00
Zn450  Zn    0.45053   0.25000   0.28270   0.00000  Uiso   1.00
Zn451  Zn    0.25000   0.04947   0.71730   0.00000  Uiso   1.00
Zn452  Zn    0.25000   0.45052   0.28270   0.00000  Uiso   1.00
Zn453  Zn    0.29948   0.00000   0.78270   0.00000  Uiso   1.00
Zn454  Zn    0.00000   0.20052   0.21730   0.00000  Uiso   1.00
Zn455  Zn    0.00000   0.29947   0.78270   0.00000  Uiso   1.00
Zn456  Zn    0.29948   0.00000   0.21730   0.00000  Uiso   1.00
Zn457  Zn    0.20053   0.00000   0.78270   0.00000  Uiso   1.00
Zn458  Zn    0.00000   0.29947   0.21730   0.00000  Uiso   1.00
Zn459  Zn    0.00000   0.20052   0.78270   0.00000  Uiso   1.00
Zn460  Zn    0.45053   0.25000   0.71730   0.00000  Uiso   1.00
C461   C     0.75000  -0.00000   0.35565   0.00000  Uiso   1.00
C462   C     0.83003   0.41997   0.75000   0.00000  Uiso   1.00
C463   C     0.92432   0.24923   0.02002   0.00000  Uiso   1.00
C464   C     0.75078   0.07567   0.97998   0.00000  Uiso   1.00
C465   C     0.75476   0.42454   0.02039   0.00000  Uiso   1.00
C466   C     0.92454   0.25476   0.97961   0.00000  Uiso   1.00
C467   C     0.57568   0.25078   0.02002   0.00000  Uiso   1.00
C468   C     0.97223   0.32378   0.39658   0.00000  Uiso   1.00
C469   C     0.50184   0.34480   0.36760   0.00000  Uiso   1.00
C470   C     0.97298   0.17602   0.60319   0.00000  Uiso   1.00
C471   C     0.50188   0.15504   0.63280   0.00000  Uiso   1.00
C472   C     0.67602   0.47298   0.39681   0.00000  Uiso   1.00
C473   C     0.91996   0.16996   0.25000   0.00000  Uiso   1.00
C474   C     0.65504   0.00188   0.36720   0.00000  Uiso   1.00
C475   C     0.82378   0.47223   0.60342   0.00000  Uiso   1.00
C476   C     0.84480   0.00184   0.63239   0.00000  Uiso   1.00
C477   C     0.52777   0.17622   0.39658   0.00000  Uiso   1.00
C478   C     0.99816   0.15520   0.36760   0.00000  Uiso   1.00
C479   C     0.52702   0.32398   0.60319   0.00000  Uiso   1.00
C480   C     0.99812   0.34496   0.63280   0.00000  Uiso   1.00
C481   C     0.82398   0.02702   0.39681   0.00000  Uiso   1.00
C482   C     0.84496   0.49812   0.36720   0.00000  Uiso   1.00
C483   C     0.67622   0.02777   0.60342   0.00000  Uiso   1.00
C484   C     0.58004   0.33004   0.75000   0.00000  Uiso   1.00
C485   C     0.65520   0.49816   0.63239   0.00000  Uiso   1.00
C486   C     0.72223   0.07378   0.89658   0.00000  Uiso   1.00
C487   C     0.75184   0.09480   0.86760   0.00000  Uiso   1.00
C488   C     0.72298   0.42602   0.10319   0.00000  Uiso   1.00
C489   C     0.75188   0.40504   0.13280   0.00000  Uiso   1.00
C490   C     0.92602   0.22298   0.89681   0.00000  Uiso   1.00
C491   C     0.90504   0.25188   0.86720   0.00000  Uiso   1.00
C492   C     0.57378   0.22223   0.10342   0.00000  Uiso   1.00
C493   C     0.59480   0.25184   0.13239   0.00000  Uiso   1.00
C494   C     0.77777   0.42622   0.89658   0.00000  Uiso   1.00
C495   C     0.83003   0.41997   0.25000   0.00000  Uiso   1.00
C496   C     0.74816   0.40519   0.86760   0.00000  Uiso   1.00
C497   C     0.77702   0.07398   0.10319   0.00000  Uiso   1.00
C498   C     0.74812   0.09496   0.13280   0.00000  Uiso   1.00
C499   C     0.57399   0.27702   0.89681   0.00000  Uiso   1.00
C500   C     0.59496   0.24811   0.86720   0.00000  Uiso   1.00
C501   C     0.92622   0.27776   0.10342   0.00000  Uiso   1.00
C502   C     0.90520   0.24815   0.13239   0.00000  Uiso   1.00
C503   C     0.97497   0.13992   0.46257   0.00000  Uiso   1.00
C504   C     0.93450   0.14807   0.44892   0.00000  Uiso   1.00
C505   C     0.91314   0.11828   0.42724   0.00000  Uiso   1.00
C506   C     0.66997   0.08003   0.75000   0.00000  Uiso   1.00
C507   C     0.93194   0.08018   0.41930   0.00000  Uiso   1.00
C508   C     0.97075   0.07078   0.43522   0.00000  Uiso   1.00
C509   C     0.99232   0.10047   0.45684   0.00000  Uiso   1.00
C510   C     0.96954   0.35855   0.53824   0.00000  Uiso   1.00
C511   C     0.92856   0.34931   0.54968   0.00000  Uiso   1.00
C512   C     0.90629   0.37716   0.57292   0.00000  Uiso   1.00
C513   C     0.92518   0.41378   0.58553   0.00000  Uiso   1.00
C514   C     0.96504   0.42392   0.57267   0.00000  Uiso   1.00
C515   C     0.98660   0.39710   0.54793   0.00000  Uiso   1.00
C516   C     0.85855   0.46954   0.46176   0.00000  Uiso   1.00
C517   C     0.58004   0.33004   0.25000   0.00000  Uiso   1.00
C518   C     0.84932   0.42856   0.45032   0.00000  Uiso   1.00
C519   C     0.87716   0.40629   0.42708   0.00000  Uiso   1.00
C520   C     0.91378   0.42518   0.41447   0.00000  Uiso   1.00
C521   C     0.92392   0.46504   0.42733   0.00000  Uiso   1.00
C522   C     0.89711   0.48660   0.45207   0.00000  Uiso   1.00
C523   C     0.63992   0.47497   0.53743   0.00000  Uiso   1.00
C524   C     0.64807   0.43450   0.55108   0.00000  Uiso   1.00
C525   C     0.61828   0.41314   0.57277   0.00000  Uiso   1.00
C526   C     0.58018   0.43194   0.58070   0.00000  Uiso   1.00
C527   C     0.57078   0.47075   0.56478   0.00000  Uiso   1.00
C528   C     0.91996   0.16996   0.75000   0.00000  Uiso   1.00
C529   C     0.60047   0.49232   0.54316   0.00000  Uiso   1.00
C530   C     0.52504   0.36008   0.46257   0.00000  Uiso   1.00
C531   C     0.56551   0.35192   0.44892   0.00000  Uiso   1.00
C532   C     0.58687   0.38172   0.42723   0.00000  Uiso   1.00
C533   C     0.56806   0.41981   0.41929   0.00000  Uiso   1.00
C534   C     0.52926   0.42922   0.43521   0.00000  Uiso   1.00
C535   C     0.50768   0.39953   0.45684   0.00000  Uiso   1.00
C536   C     0.53046   0.14145   0.53824   0.00000  Uiso   1.00
C537   C     0.57144   0.15068   0.54969   0.00000  Uiso   1.00
C538   C     0.59371   0.12284   0.57292   0.00000  Uiso   1.00
C539   C     0.66996   0.41996   0.75000   0.00000  Uiso   1.00
C540   C     0.57482   0.08622   0.58554   0.00000  Uiso   1.00
C541   C     0.53496   0.07608   0.57268   0.00000  Uiso   1.00
C542   C     0.51340   0.10289   0.54794   0.00000  Uiso   1.00
C543   C     0.64145   0.03046   0.46176   0.00000  Uiso   1.00
C544   C     0.65068   0.07144   0.45031   0.00000  Uiso   1.00
C545   C     0.62284   0.09371   0.42708   0.00000  Uiso   1.00
C546   C     0.58622   0.07481   0.41446   0.00000  Uiso   1.00
C547   C     0.57608   0.03496   0.42732   0.00000  Uiso   1.00
C548   C     0.60290   0.01339   0.45206   0.00000  Uiso   1.00
C549   C     0.86008   0.02504   0.53743   0.00000  Uiso   1.00
C550   C     0.83004   0.08004   0.25000   0.00000  Uiso   1.00
C551   C     0.85192   0.06551   0.55108   0.00000  Uiso   1.00
C552   C     0.88172   0.08686   0.57276   0.00000  Uiso   1.00
C553   C     0.91981   0.06806   0.58071   0.00000  Uiso   1.00
C554   C     0.92922   0.02926   0.56479   0.00000  Uiso   1.00
C555   C     0.89953   0.00768   0.54316   0.00000  Uiso   1.00
C556   C     0.72497   0.38992   0.96257   0.00000  Uiso   1.00
C557   C     0.68450   0.39807   0.94892   0.00000  Uiso   1.00
C558   C     0.66314   0.36827   0.92724   0.00000  Uiso   1.00
C559   C     0.68194   0.33017   0.91930   0.00000  Uiso   1.00
C560   C     0.72075   0.32077   0.93522   0.00000  Uiso   1.00
C561   C     0.91997   0.33003   0.75000   0.00000  Uiso   1.00
C562   C     0.74233   0.35046   0.95684   0.00000  Uiso   1.00
C563   C     0.71954   0.10854   0.03824   0.00000  Uiso   1.00
C564   C     0.67857   0.09931   0.04968   0.00000  Uiso   1.00
C565   C     0.65630   0.12715   0.07292   0.00000  Uiso   1.00
C566   C     0.67519   0.16378   0.08553   0.00000  Uiso   1.00
C567   C     0.71503   0.17392   0.07266   0.00000  Uiso   1.00
C568   C     0.73661   0.14711   0.04792   0.00000  Uiso   1.00
C569   C     0.60855   0.21954   0.96176   0.00000  Uiso   1.00
C570   C     0.59931   0.17857   0.95031   0.00000  Uiso   1.00
C571   C     0.62716   0.15629   0.92708   0.00000  Uiso   1.00
C572   C     0.75000   0.00000   0.64431   0.00000  Uiso   1.00
C573   C     0.58003   0.16997   0.25000   0.00000  Uiso   1.00
C574   C     0.66378   0.17518   0.91447   0.00000  Uiso   1.00
C575   C     0.67393   0.21503   0.92735   0.00000  Uiso   1.00
C576   C     0.64711   0.23660   0.95208   0.00000  Uiso   1.00
C577   C     0.88992   0.22497   0.03743   0.00000  Uiso   1.00
C578   C     0.89807   0.18450   0.05108   0.00000  Uiso   1.00
C579   C     0.86827   0.16314   0.07276   0.00000  Uiso   1.00
C580   C     0.83018   0.18194   0.08070   0.00000  Uiso   1.00
C581   C     0.82078   0.22075   0.06478   0.00000  Uiso   1.00
C582   C     0.85047   0.24232   0.04315   0.00000  Uiso   1.00
C583   C     0.77505   0.11007   0.96257   0.00000  Uiso   1.00
C584   C     0.83004   0.08004   0.75000   0.00000  Uiso   1.00
C585   C     0.81552   0.10191   0.94893   0.00000  Uiso   1.00
C586   C     0.83688   0.13170   0.92724   0.00000  Uiso   1.00
C587   C     0.81808   0.16980   0.91929   0.00000  Uiso   1.00
C588   C     0.77927   0.17920   0.93520   0.00000  Uiso   1.00
C589   C     0.75770   0.14952   0.95683   0.00000  Uiso   1.00
C590   C     0.78046   0.39145   0.03825   0.00000  Uiso   1.00
C591   C     0.82144   0.40067   0.04969   0.00000  Uiso   1.00
C592   C     0.84371   0.37283   0.07292   0.00000  Uiso   1.00
C593   C     0.82481   0.33621   0.08554   0.00000  Uiso   1.00
C594   C     0.78495   0.32607   0.07268   0.00000  Uiso   1.00
C595   C     0.66996   0.41996   0.25000   0.00000  Uiso   1.00
C596   C     0.76339   0.35289   0.04794   0.00000  Uiso   1.00
C597   C     0.89145   0.28046   0.96175   0.00000  Uiso   1.00
C598   C     0.90068   0.32144   0.95031   0.00000  Uiso   1.00
C599   C     0.87284   0.34371   0.92708   0.00000  Uiso   1.00
C600   C     0.83622   0.32481   0.91446   0.00000  Uiso   1.00
C601   C     0.82608   0.28496   0.92732   0.00000  Uiso   1.00
C602   C     0.85289   0.26339   0.95206   0.00000  Uiso   1.00
C603   C     0.61007   0.27505   0.03743   0.00000  Uiso   1.00
C604   C     0.60191   0.31553   0.05106   0.00000  Uiso   1.00
C605   C     0.63170   0.33689   0.07275   0.00000  Uiso   1.00
C606   C     0.58003   0.16997   0.75000   0.00000  Uiso   1.00
C607   C     0.66979   0.31809   0.08071   0.00000  Uiso   1.00
C608   C     0.67920   0.27927   0.06481   0.00000  Uiso   1.00
C609   C     0.64952   0.25769   0.04318   0.00000  Uiso   1.00
C610   C     0.91997   0.33003   0.25000   0.00000  Uiso   1.00
C611   C     0.63829   0.38829   0.25000   0.00000  Uiso   1.00
C612   C     0.86171   0.11171   0.75000   0.00000  Uiso   1.00
C613   C     0.61171   0.13829   0.25000   0.00000  Uiso   1.00
C614   C     0.88829   0.36171   0.75000   0.00000  Uiso   1.00
C615   C     0.86171   0.11171   0.25000   0.00000  Uiso   1.00
C616   C     0.50000   0.25000   0.35568   0.00000  Uiso   1.00
C617   C     0.63829   0.38829   0.75000   0.00000  Uiso   1.00
C618   C     0.88829   0.36171   0.25000   0.00000  Uiso   1.00
C619   C     0.61171   0.13829   0.75000   0.00000  Uiso   1.00
C620   C     0.63829   0.11171   0.75000   0.00000  Uiso   1.00
C621   C     0.86171   0.38829   0.25000   0.00000  Uiso   1.00
C622   C     0.61171   0.36171   0.75000   0.00000  Uiso   1.00
C623   C     0.88829   0.13829   0.25000   0.00000  Uiso   1.00
C624   C     0.86171   0.38829   0.75000   0.00000  Uiso   1.00
C625   C     0.63829   0.11171   0.25000   0.00000  Uiso   1.00
C626   C     0.88829   0.13829   0.75000   0.00000  Uiso   1.00
C627   C     0.50000   0.25000   0.64435   0.00000  Uiso   1.00
C628   C     0.61171   0.36171   0.25000   0.00000  Uiso   1.00
C629   C     0.99182   0.28717   0.41816   0.00000  Uiso   1.00
C630   C     0.99294   0.21264   0.58198   0.00000  Uiso   1.00
C631   C     0.71264   0.49294   0.41802   0.00000  Uiso   1.00
C632   C     0.78718   0.49182   0.58184   0.00000  Uiso   1.00
C633   C     0.50818   0.21282   0.41816   0.00000  Uiso   1.00
C634   C     0.50706   0.28736   0.58198   0.00000  Uiso   1.00
C635   C     0.78736   0.00706   0.41802   0.00000  Uiso   1.00
C636   C     0.71282   0.00818   0.58184   0.00000  Uiso   1.00
C637   C     0.74182   0.03717   0.91816   0.00000  Uiso   1.00
C638   C     0.50000   0.25000   0.85565   0.00000  Uiso   1.00
C639   C     0.74294   0.46264   0.08198   0.00000  Uiso   1.00
C640   C     0.96264   0.24294   0.91802   0.00000  Uiso   1.00
C641   C     0.53717   0.24182   0.08184   0.00000  Uiso   1.00
C642   C     0.75818   0.46282   0.91816   0.00000  Uiso   1.00
C643   C     0.75706   0.03736   0.08198   0.00000  Uiso   1.00
C644   C     0.53736   0.25706   0.91802   0.00000  Uiso   1.00
C645   C     0.96282   0.25818   0.08184   0.00000  Uiso   1.00
C646   C     0.50000   0.25000   0.39802   0.00000  Uiso   1.00
C647   C     0.50000   0.25000   0.60210   0.00000  Uiso   1.00
C648   C     0.75000  -0.00000   0.39790   0.00000  Uiso   1.00
C649   C     0.50000   0.25000   0.14431   0.00000  Uiso   1.00
C650   C     0.75000   0.00000   0.60198   0.00000  Uiso   1.00
C651   C     0.75000  -0.00000   0.89802   0.00000  Uiso   1.00
C652   C     0.75000   0.00000   0.10210   0.00000  Uiso   1.00
C653   C     0.50000   0.25000   0.89790   0.00000  Uiso   1.00
C654   C     0.50000   0.25000   0.10198   0.00000  Uiso   1.00
C655   C     0.50231   0.21202   0.45907   0.00000  Uiso   1.00
C656   C     0.50053   0.28799   0.54117   0.00000  Uiso   1.00
C657   C     0.78799   0.00053   0.45883   0.00000  Uiso   1.00
C658   C     0.71202   0.00231   0.54093   0.00000  Uiso   1.00
C659   C     0.99769   0.28798   0.45907   0.00000  Uiso   1.00
C660   C     0.75000  -0.00000   0.85568   0.00000  Uiso   1.00
C661   C     0.99947   0.21201   0.54117   0.00000  Uiso   1.00
C662   C     0.71201   0.49947   0.45883   0.00000  Uiso   1.00
C663   C     0.78798   0.49769   0.54093   0.00000  Uiso   1.00
C664   C     0.75231   0.46202   0.95907   0.00000  Uiso   1.00
C665   C     0.75054   0.03799   0.04117   0.00000  Uiso   1.00
C666   C     0.53799   0.25053   0.95883   0.00000  Uiso   1.00
C667   C     0.96202   0.25231   0.04093   0.00000  Uiso   1.00
C668   C     0.74770   0.03797   0.95907   0.00000  Uiso   1.00
C669   C     0.74947   0.46201   0.04117   0.00000  Uiso   1.00
C670   C     0.96201   0.24947   0.95883   0.00000  Uiso   1.00
C671   C     0.75000   0.00000   0.14435   0.00000  Uiso   1.00
C672   C     0.53797   0.24770   0.04093   0.00000  Uiso   1.00
C673   C     0.50000   0.25000   0.47957   0.00000  Uiso   1.00
C674   C     0.50000   0.25000   0.52063   0.00000  Uiso   1.00
C675   C     0.75000   0.00000   0.47937   0.00000  Uiso   1.00
C676   C     0.75000   0.00000   0.52043   0.00000  Uiso   1.00
C677   C     0.75000  -0.00000   0.97957   0.00000  Uiso   1.00
C678   C     0.75000  -0.00000   0.02063   0.00000  Uiso   1.00
C679   C     0.50000   0.25000   0.97937   0.00000  Uiso   1.00
C680   C     0.50000   0.25000   0.02043   0.00000  Uiso   1.00
C681   C     0.99923   0.17432   0.47998   0.00000  Uiso   1.00
C682   C     0.66997   0.08003   0.25000   0.00000  Uiso   1.00
C683   C     0.99524   0.32546   0.52039   0.00000  Uiso   1.00
C684   C     0.82546   0.49524   0.47961   0.00000  Uiso   1.00
C685   C     0.67432   0.49923   0.52002   0.00000  Uiso   1.00
C686   C     0.50077   0.32568   0.47998   0.00000  Uiso   1.00
C687   C     0.50476   0.17454   0.52039   0.00000  Uiso   1.00
C688   C     0.67454   0.00476   0.47961   0.00000  Uiso   1.00
C689   C     0.82568   0.00077   0.52002   0.00000  Uiso   1.00
C690   C     0.74923   0.42432   0.97998   0.00000  Uiso   1.00
C691   C     0.74525   0.07546   0.02039   0.00000  Uiso   1.00
C692   C     0.57546   0.24524   0.97961   0.00000  Uiso   1.00
H693   H     0.53484   0.33890   0.37506   0.00000  Uiso   1.00
H694   H     0.94457   0.18693   0.61849   0.00000  Uiso   1.00
H695   H     0.59341   0.02310   0.53241   0.00000  Uiso   1.00
H696   H     0.57975   0.32182   0.45366   0.00000  Uiso   1.00
H697   H     0.61739   0.37483   0.41566   0.00000  Uiso   1.00
H698   H     0.58368   0.44227   0.40112   0.00000  Uiso   1.00
H699   H     0.51567   0.45927   0.43017   0.00000  Uiso   1.00
H700   H     0.97690   0.40659   0.46758   0.00000  Uiso   1.00
H701   H     0.58538   0.18020   0.54200   0.00000  Uiso   1.00
H702   H     0.62479   0.13052   0.58259   0.00000  Uiso   1.00
H703   H     0.59067   0.06593   0.60567   0.00000  Uiso   1.00
H704   H     0.52018   0.04834   0.58328   0.00000  Uiso   1.00
H705   H     0.65777   0.03489   0.37598   0.00000  Uiso   1.00
H706   H     0.98241   0.09513   0.53844   0.00000  Uiso   1.00
H707   H     0.68020   0.08538   0.45800   0.00000  Uiso   1.00
H708   H     0.63052   0.12479   0.41741   0.00000  Uiso   1.00
H709   H     0.56593   0.09067   0.39433   0.00000  Uiso   1.00
H710   H     0.54834   0.02018   0.41672   0.00000  Uiso   1.00
H711   H     0.59514   0.48241   0.46156   0.00000  Uiso   1.00
H712   H     0.82182   0.07975   0.54634   0.00000  Uiso   1.00
H713   H     0.87483   0.11739   0.58434   0.00000  Uiso   1.00
H714   H     0.94227   0.08368   0.59888   0.00000  Uiso   1.00
H715   H     0.95927   0.01567   0.56983   0.00000  Uiso   1.00
H716   H     0.66922   0.49819   0.33796   0.00000  Uiso   1.00
H717   H     0.90659   0.47690   0.53242   0.00000  Uiso   1.00
H718   H     0.67026   0.42817   0.95366   0.00000  Uiso   1.00
H719   H     0.63261   0.37515   0.91566   0.00000  Uiso   1.00
H720   H     0.66633   0.30771   0.90113   0.00000  Uiso   1.00
H721   H     0.73435   0.29072   0.93018   0.00000  Uiso   1.00
H722   H     0.77311   0.34341   0.96759   0.00000  Uiso   1.00
H723   H     0.66463   0.06979   0.04201   0.00000  Uiso   1.00
H724   H     0.62522   0.11947   0.08259   0.00000  Uiso   1.00
H725   H     0.65933   0.18407   0.10566   0.00000  Uiso   1.00
H726   H     0.72982   0.20167   0.08325   0.00000  Uiso   1.00
H727   H     0.62166   0.49384   0.36436   0.00000  Uiso   1.00
H728   H     0.76759   0.15487   0.03842   0.00000  Uiso   1.00
H729   H     0.56979   0.16463   0.95799   0.00000  Uiso   1.00
H730   H     0.61948   0.12522   0.91741   0.00000  Uiso   1.00
H731   H     0.68407   0.15933   0.89434   0.00000  Uiso   1.00
H732   H     0.70168   0.22981   0.91676   0.00000  Uiso   1.00
H733   H     0.65487   0.26758   0.96158   0.00000  Uiso   1.00
H734   H     0.92818   0.17026   0.04634   0.00000  Uiso   1.00
H735   H     0.87516   0.13261   0.08434   0.00000  Uiso   1.00
H736   H     0.80771   0.16633   0.09887   0.00000  Uiso   1.00
H737   H     0.79072   0.23434   0.06981   0.00000  Uiso   1.00
H738   H     0.65286   0.46105   0.41775   0.00000  Uiso   1.00
H739   H     0.84341   0.27311   0.03241   0.00000  Uiso   1.00
H740   H     0.82976   0.07181   0.95367   0.00000  Uiso   1.00
H741   H     0.86741   0.12481   0.91567   0.00000  Uiso   1.00
H742   H     0.83370   0.19225   0.90111   0.00000  Uiso   1.00
H743   H     0.76568   0.20925   0.93015   0.00000  Uiso   1.00
H744   H     0.72691   0.15659   0.96757   0.00000  Uiso   1.00
H745   H     0.83538   0.43019   0.04200   0.00000  Uiso   1.00
H746   H     0.87479   0.38050   0.08259   0.00000  Uiso   1.00
H747   H     0.84066   0.31592   0.10567   0.00000  Uiso   1.00
H748   H     0.77017   0.29833   0.08328   0.00000  Uiso   1.00
H749   H     0.68693   0.44457   0.38151   0.00000  Uiso   1.00
H750   H     0.73241   0.34513   0.03844   0.00000  Uiso   1.00
H751   H     0.93020   0.33538   0.95800   0.00000  Uiso   1.00
H752   H     0.88051   0.37479   0.91742   0.00000  Uiso   1.00
H753   H     0.81593   0.34067   0.89432   0.00000  Uiso   1.00
H754   H     0.79834   0.27017   0.91672   0.00000  Uiso   1.00
H755   H     0.84514   0.23241   0.96156   0.00000  Uiso   1.00
H756   H     0.57181   0.32976   0.04630   0.00000  Uiso   1.00
H757   H     0.62482   0.36742   0.08431   0.00000  Uiso   1.00
H758   H     0.69225   0.33371   0.09889   0.00000  Uiso   1.00
H759   H     0.70924   0.26568   0.06987   0.00000  Uiso   1.00
H760   H     0.83890   0.03484   0.62494   0.00000  Uiso   1.00
H761   H     0.65658   0.22691   0.03244   0.00000  Uiso   1.00
H762   H     0.83304   0.49622   0.66232   0.00000  Uiso   1.00
H763   H     0.87886   0.49645   0.63273   0.00000  Uiso   1.00
H764   H     0.84693   0.45986   0.58270   0.00000  Uiso   1.00
H765   H     0.99622   0.33304   0.33768   0.00000  Uiso   1.00
H766   H     0.81290   0.44415   0.61922   0.00000  Uiso   1.00
H767   H     0.96516   0.16110   0.37506   0.00000  Uiso   1.00
H768   H     0.50379   0.16696   0.33768   0.00000  Uiso   1.00
H769   H     0.50354   0.12114   0.36727   0.00000  Uiso   1.00
H770   H     0.54014   0.15307   0.41729   0.00000  Uiso   1.00
H771   H     0.55585   0.18710   0.38078   0.00000  Uiso   1.00
H772   H     0.96511   0.34223   0.62402   0.00000  Uiso   1.00
H773   H     0.50181   0.33079   0.66204   0.00000  Uiso   1.00
H774   H     0.50615   0.37834   0.63563   0.00000  Uiso   1.00
H775   H     0.53895   0.34714   0.58225   0.00000  Uiso   1.00
H776   H     0.99645   0.37886   0.36726   0.00000  Uiso   1.00
H777   H     0.55543   0.31307   0.61849   0.00000  Uiso   1.00
H778   H     0.84223   0.46511   0.37598   0.00000  Uiso   1.00
H779   H     0.83079   0.00181   0.33796   0.00000  Uiso   1.00
H780   H     0.87834   0.00615   0.36436   0.00000  Uiso   1.00
H781   H     0.84714   0.03895   0.41775   0.00000  Uiso   1.00
H782   H     0.81308   0.05543   0.38151   0.00000  Uiso   1.00
H783   H     0.66111   0.46516   0.62494   0.00000  Uiso   1.00
H784   H     0.66695   0.00379   0.66232   0.00000  Uiso   1.00
H785   H     0.62114   0.00354   0.63273   0.00000  Uiso   1.00
H786   H     0.65307   0.04014   0.58270   0.00000  Uiso   1.00
H787   H     0.95986   0.34693   0.41729   0.00000  Uiso   1.00
H788   H     0.68710   0.05585   0.61922   0.00000  Uiso   1.00
H789   H     0.78483   0.08891   0.87507   0.00000  Uiso   1.00
H790   H     0.74622   0.08303   0.83768   0.00000  Uiso   1.00
H791   H     0.74644   0.12886   0.86726   0.00000  Uiso   1.00
H792   H     0.70986   0.09692   0.91730   0.00000  Uiso   1.00
H793   H     0.69415   0.06289   0.88078   0.00000  Uiso   1.00
H794   H     0.78489   0.40777   0.12402   0.00000  Uiso   1.00
H795   H     0.74819   0.41921   0.16204   0.00000  Uiso   1.00
H796   H     0.74384   0.37166   0.13564   0.00000  Uiso   1.00
H797   H     0.71104   0.40287   0.08225   0.00000  Uiso   1.00
H798   H     0.94415   0.31290   0.38078   0.00000  Uiso   1.00
H799   H     0.69457   0.43693   0.11849   0.00000  Uiso   1.00
H800   H     0.90777   0.28488   0.87598   0.00000  Uiso   1.00
H801   H     0.91922   0.24819   0.83796   0.00000  Uiso   1.00
H802   H     0.87166   0.24384   0.86436   0.00000  Uiso   1.00
H803   H     0.90287   0.21104   0.91775   0.00000  Uiso   1.00
H804   H     0.93693   0.19457   0.88151   0.00000  Uiso   1.00
H805   H     0.58894   0.28483   0.12491   0.00000  Uiso   1.00
H806   H     0.58301   0.24625   0.16231   0.00000  Uiso   1.00
H807   H     0.62886   0.24641   0.13276   0.00000  Uiso   1.00
H808   H     0.59692   0.20986   0.08270   0.00000  Uiso   1.00
H809   H     0.53489   0.15777   0.62402   0.00000  Uiso   1.00
H810   H     0.56289   0.19415   0.11922   0.00000  Uiso   1.00
H811   H     0.71516   0.41109   0.87507   0.00000  Uiso   1.00
H812   H     0.75378   0.41696   0.83768   0.00000  Uiso   1.00
H813   H     0.75355   0.37113   0.86726   0.00000  Uiso   1.00
H814   H     0.79014   0.40307   0.91729   0.00000  Uiso   1.00
H815   H     0.80585   0.43710   0.88078   0.00000  Uiso   1.00
H816   H     0.71511   0.09222   0.12402   0.00000  Uiso   1.00
H817   H     0.75181   0.08079   0.16204   0.00000  Uiso   1.00
H818   H     0.75615   0.12834   0.13563   0.00000  Uiso   1.00
H819   H     0.78895   0.09714   0.08225   0.00000  Uiso   1.00
H820   H     0.99819   0.16921   0.66204   0.00000  Uiso   1.00
H821   H     0.80543   0.06308   0.11849   0.00000  Uiso   1.00
H822   H     0.59222   0.21511   0.87598   0.00000  Uiso   1.00
H823   H     0.58079   0.25180   0.83796   0.00000  Uiso   1.00
H824   H     0.62835   0.25614   0.86437   0.00000  Uiso   1.00
H825   H     0.59714   0.28895   0.91775   0.00000  Uiso   1.00
H826   H     0.56308   0.30543   0.88151   0.00000  Uiso   1.00
H827   H     0.91111   0.21516   0.12494   0.00000  Uiso   1.00
H828   H     0.91695   0.25378   0.16232   0.00000  Uiso   1.00
H829   H     0.87113   0.25354   0.13273   0.00000  Uiso   1.00
H830   H     0.90307   0.29014   0.08271   0.00000  Uiso   1.00
H831   H     0.99384   0.12166   0.63564   0.00000  Uiso   1.00
H832   H     0.93710   0.30585   0.11922   0.00000  Uiso   1.00
H833   H     0.92026   0.17818   0.45366   0.00000  Uiso   1.00
H834   H     0.88261   0.12516   0.41566   0.00000  Uiso   1.00
H835   H     0.91633   0.05772   0.40113   0.00000  Uiso   1.00
H836   H     0.98434   0.04073   0.43018   0.00000  Uiso   1.00
H837   H     0.52311   0.09341   0.46759   0.00000  Uiso   1.00
H838   H     0.91462   0.31979   0.54200   0.00000  Uiso   1.00
H839   H     0.87521   0.36948   0.58258   0.00000  Uiso   1.00
H840   H     0.90933   0.43407   0.60567   0.00000  Uiso   1.00
H841   H     0.97982   0.45167   0.58327   0.00000  Uiso   1.00
H842   H     0.96105   0.15286   0.58225   0.00000  Uiso   1.00
H843   H     0.51759   0.40487   0.53843   0.00000  Uiso   1.00
H844   H     0.81979   0.41462   0.45800   0.00000  Uiso   1.00
H845   H     0.86948   0.37521   0.41742   0.00000  Uiso   1.00
H846   H     0.93407   0.40933   0.39433   0.00000  Uiso   1.00
H847   H     0.95167   0.47982   0.41673   0.00000  Uiso   1.00
H848   H     0.90487   0.01759   0.46157   0.00000  Uiso   1.00
H849   H     0.67818   0.42026   0.54635   0.00000  Uiso   1.00
H850   H     0.62516   0.38262   0.58435   0.00000  Uiso   1.00
H851   H     0.55772   0.41633   0.59887   0.00000  Uiso   1.00
H852   H     0.54072   0.48434   0.56982   0.00000  Uiso   1.00
O853   O     0.75000   0.00000   0.25000   0.00000  Uiso   1.00
O854   O     0.75000   0.46538   0.66251   0.00000  Uiso   1.00
O855   O     0.96539   0.25000   0.33749   0.00000  Uiso   1.00
O856   O     0.53462   0.25000   0.66251   0.00000  Uiso   1.00
O857   O     0.50000   0.21538   0.83749   0.00000  Uiso   1.00
O858   O     0.50000   0.28461   0.16251   0.00000  Uiso   1.00
O859   O     0.78462  -0.00000   0.83749   0.00000  Uiso   1.00
O860   O     0.71539  -0.00000   0.16251   0.00000  Uiso   1.00
O861   O     0.50000   0.28461   0.83749   0.00000  Uiso   1.00
O862   O     0.50000   0.21538   0.16251   0.00000  Uiso   1.00
O863   O     0.71539  -0.00000   0.83749   0.00000  Uiso   1.00
O864   O     0.75000   0.00000   0.75000   0.00000  Uiso   1.00
O865   O     0.78462  -0.00000   0.16251   0.00000  Uiso   1.00
O866   O     0.70127   0.08332   0.27298   0.00000  Uiso   1.00
O867   O     0.79874   0.41668   0.72702   0.00000  Uiso   1.00
O868   O     0.91668   0.20126   0.27298   0.00000  Uiso   1.00
O869   O     0.58332   0.29873   0.72702   0.00000  Uiso   1.00
O870   O     0.79874   0.41668   0.27298   0.00000  Uiso   1.00
O871   O     0.70127   0.08332   0.72702   0.00000  Uiso   1.00
O872   O     0.58332   0.29873   0.27298   0.00000  Uiso   1.00
O873   O     0.91668   0.20126   0.72702   0.00000  Uiso   1.00
O874   O     0.70127   0.41668   0.72702   0.00000  Uiso   1.00
O875   O     0.50000   0.25000   0.25000   0.00000  Uiso   1.00
O876   O     0.79874   0.08332   0.27298   0.00000  Uiso   1.00
O877   O     0.91668   0.29873   0.72702   0.00000  Uiso   1.00
O878   O     0.58332   0.20126   0.27298   0.00000  Uiso   1.00
O879   O     0.79874   0.08332   0.72702   0.00000  Uiso   1.00
O880   O     0.70127   0.41668   0.27298   0.00000  Uiso   1.00
O881   O     0.58332   0.20126   0.72702   0.00000  Uiso   1.00
O882   O     0.91668   0.29873   0.27298   0.00000  Uiso   1.00
O883   O     0.95127   0.33332   0.77298   0.00000  Uiso   1.00
O884   O     0.54874   0.16668   0.22702   0.00000  Uiso   1.00
O885   O     0.66668   0.45126   0.77298   0.00000  Uiso   1.00
O886   O     0.50000   0.25000   0.75000   0.00000  Uiso   1.00
O887   O     0.83332   0.04873   0.22702   0.00000  Uiso   1.00
O888   O     0.54874   0.16668   0.77298   0.00000  Uiso   1.00
O889   O     0.95127   0.33332   0.22702   0.00000  Uiso   1.00
O890   O     0.83332   0.04873   0.77298   0.00000  Uiso   1.00
O891   O     0.66668   0.45126   0.22702   0.00000  Uiso   1.00
O892   O     0.95127   0.16668   0.22702   0.00000  Uiso   1.00
O893   O     0.54874   0.33332   0.77298   0.00000  Uiso   1.00
O894   O     0.66668   0.04873   0.22702   0.00000  Uiso   1.00
O895   O     0.83332   0.45126   0.77298   0.00000  Uiso   1.00
O896   O     0.54874   0.33332   0.22702   0.00000  Uiso   1.00
O897   O     0.75000   0.46538   0.33749   0.00000  Uiso   1.00
O898   O     0.95127   0.16668   0.77298   0.00000  Uiso   1.00
O899   O     0.83332   0.45126   0.22702   0.00000  Uiso   1.00
O900   O     0.66668   0.04873   0.77298   0.00000  Uiso   1.00
O901   O     0.75000   0.03462   0.66251   0.00000  Uiso   1.00
O902   O     0.53462   0.25000   0.33749   0.00000  Uiso   1.00
O903   O     0.96539   0.25000   0.66251   0.00000  Uiso   1.00
O904   O     0.75000   0.03462   0.33749   0.00000  Uiso   1.00
Zn905  Zn    0.70053   0.00000   0.21730   0.00000  Uiso   1.00
Zn906  Zn    0.54948   0.25000   0.28270   0.00000  Uiso   1.00
Zn907  Zn    0.75000   0.45052   0.71730   0.00000  Uiso   1.00
Zn908  Zn    0.75000   0.04947   0.28270   0.00000  Uiso   1.00
Zn909  Zn    0.54948   0.25000   0.71730   0.00000  Uiso   1.00
Zn910  Zn    0.95053   0.25000   0.28270   0.00000  Uiso   1.00
Zn911  Zn    0.75000   0.04947   0.71730   0.00000  Uiso   1.00
Zn912  Zn    0.75000   0.45052   0.28270   0.00000  Uiso   1.00
Zn913  Zn    0.79948   0.00000   0.78270   0.00000  Uiso   1.00
Zn914  Zn    0.50000   0.20052   0.21730   0.00000  Uiso   1.00
Zn915  Zn    0.50000   0.29947   0.78270   0.00000  Uiso   1.00
Zn916  Zn    0.79948   0.00000   0.21730   0.00000  Uiso   1.00
Zn917  Zn    0.70053   0.00000   0.78270   0.00000  Uiso   1.00
Zn918  Zn    0.50000   0.29947   0.21730   0.00000  Uiso   1.00
Zn919  Zn    0.50000   0.20052   0.78270   0.00000  Uiso   1.00
Zn920  Zn    0.95053   0.25000   0.71730   0.00000  Uiso   1.00
C921   C     0.25000   0.50000   0.35565   0.00000  Uiso   1.00
C922   C     0.33003   0.91997   0.75000   0.00000  Uiso   1.00
C923   C     0.42432   0.74923   0.02002   0.00000  Uiso   1.00
C924   C     0.25078   0.57567   0.97998   0.00000  Uiso   1.00
C925   C     0.25476   0.92454   0.02039   0.00000  Uiso   1.00
C926   C     0.42454   0.75476   0.97961   0.00000  Uiso   1.00
C927   C     0.07568   0.75078   0.02002   0.00000  Uiso   1.00
C928   C     0.47223   0.82378   0.39658   0.00000  Uiso   1.00
C929   C     0.00184   0.84480   0.36760   0.00000  Uiso   1.00
C930   C     0.47298   0.67602   0.60319   0.00000  Uiso   1.00
C931   C     0.00188   0.65504   0.63280   0.00000  Uiso   1.00
C932   C     0.17602   0.97298   0.39681   0.00000  Uiso   1.00
C933   C     0.41996   0.66996   0.25000   0.00000  Uiso   1.00
C934   C     0.15504   0.50188   0.36720   0.00000  Uiso   1.00
C935   C     0.32378   0.97223   0.60342   0.00000  Uiso   1.00
C936   C     0.34480   0.50184   0.63239   0.00000  Uiso   1.00
C937   C     0.02777   0.67622   0.39658   0.00000  Uiso   1.00
C938   C     0.49816   0.65520   0.36760   0.00000  Uiso   1.00
C939   C     0.02702   0.82398   0.60319   0.00000  Uiso   1.00
C940   C     0.49812   0.84496   0.63280   0.00000  Uiso   1.00
C941   C     0.32398   0.52702   0.39681   0.00000  Uiso   1.00
C942   C     0.34496   0.99812   0.36720   0.00000  Uiso   1.00
C943   C     0.17622   0.52777   0.60342   0.00000  Uiso   1.00
C944   C     0.08004   0.83004   0.75000   0.00000  Uiso   1.00
C945   C     0.15520   0.99816   0.63239   0.00000  Uiso   1.00
C946   C     0.22223   0.57378   0.89658   0.00000  Uiso   1.00
C947   C     0.25184   0.59480   0.86760   0.00000  Uiso   1.00
C948   C     0.22298   0.92602   0.10319   0.00000  Uiso   1.00
C949   C     0.25188   0.90504   0.13280   0.00000  Uiso   1.00
C950   C     0.42602   0.72298   0.89681   0.00000  Uiso   1.00
C951   C     0.40504   0.75188   0.86720   0.00000  Uiso   1.00
C952   C     0.07378   0.72223   0.10342   0.00000  Uiso   1.00
C953   C     0.09480   0.75184   0.13239   0.00000  Uiso   1.00
C954   C     0.27777   0.92622   0.89658   0.00000  Uiso   1.00
C955   C     0.33003   0.91997   0.25000   0.00000  Uiso   1.00
C956   C     0.24816   0.90519   0.86760   0.00000  Uiso   1.00
C957   C     0.27702   0.57398   0.10319   0.00000  Uiso   1.00
C958   C     0.24812   0.59496   0.13280   0.00000  Uiso   1.00
C959   C     0.07399   0.77702   0.89681   0.00000  Uiso   1.00
C960   C     0.09496   0.74811   0.86720   0.00000  Uiso   1.00
C961   C     0.42622   0.77776   0.10342   0.00000  Uiso   1.00
C962   C     0.40520   0.74815   0.13239   0.00000  Uiso   1.00
C963   C     0.47497   0.63992   0.46257   0.00000  Uiso   1.00
C964   C     0.43450   0.64807   0.44892   0.00000  Uiso   1.00
C965   C     0.41314   0.61828   0.42724   0.00000  Uiso   1.00
C966   C     0.16997   0.58003   0.75000   0.00000  Uiso   1.00
C967   C     0.43194   0.58018   0.41930   0.00000  Uiso   1.00
C968   C     0.47075   0.57078   0.43522   0.00000  Uiso   1.00
C969   C     0.49232   0.60047   0.45684   0.00000  Uiso   1.00
C970   C     0.46954   0.85855   0.53824   0.00000  Uiso   1.00
C971   C     0.42856   0.84931   0.54968   0.00000  Uiso   1.00
C972   C     0.40629   0.87716   0.57292   0.00000  Uiso   1.00
C973   C     0.42518   0.91378   0.58553   0.00000  Uiso   1.00
C974   C     0.46504   0.92392   0.57267   0.00000  Uiso   1.00
C975   C     0.48660   0.89710   0.54793   0.00000  Uiso   1.00
C976   C     0.35855   0.96954   0.46176   0.00000  Uiso   1.00
C977   C     0.08004   0.83004   0.25000   0.00000  Uiso   1.00
C978   C     0.34932   0.92856   0.45032   0.00000  Uiso   1.00
C979   C     0.37716   0.90629   0.42708   0.00000  Uiso   1.00
C980   C     0.41378   0.92518   0.41447   0.00000  Uiso   1.00
C981   C     0.42392   0.96504   0.42733   0.00000  Uiso   1.00
C982   C     0.39711   0.98660   0.45207   0.00000  Uiso   1.00
C983   C     0.13992   0.97497   0.53743   0.00000  Uiso   1.00
C984   C     0.14807   0.93450   0.55108   0.00000  Uiso   1.00
C985   C     0.11828   0.91314   0.57277   0.00000  Uiso   1.00
C986   C     0.08018   0.93194   0.58070   0.00000  Uiso   1.00
C987   C     0.07078   0.97075   0.56478   0.00000  Uiso   1.00
C988   C     0.41996   0.66996   0.75000   0.00000  Uiso   1.00
C989   C     0.10047   0.99232   0.54316   0.00000  Uiso   1.00
C990   C     0.02504   0.86008   0.46257   0.00000  Uiso   1.00
C991   C     0.06551   0.85192   0.44892   0.00000  Uiso   1.00
C992   C     0.08687   0.88172   0.42723   0.00000  Uiso   1.00
C993   C     0.06806   0.91981   0.41929   0.00000  Uiso   1.00
C994   C     0.02926   0.92922   0.43521   0.00000  Uiso   1.00
C995   C     0.00768   0.89953   0.45684   0.00000  Uiso   1.00
C996   C     0.03046   0.64145   0.53824   0.00000  Uiso   1.00
C997   C     0.07144   0.65068   0.54969   0.00000  Uiso   1.00
C998   C     0.09371   0.62284   0.57292   0.00000  Uiso   1.00
C999   C     0.16996   0.91996   0.75000   0.00000  Uiso   1.00
C1000  C     0.07482   0.58622   0.58554   0.00000  Uiso   1.00
C1001  C     0.03496   0.57608   0.57268   0.00000  Uiso   1.00
C1002  C     0.01340   0.60289   0.54794   0.00000  Uiso   1.00
C1003  C     0.14145   0.53046   0.46176   0.00000  Uiso   1.00
C1004  C     0.15068   0.57144   0.45031   0.00000  Uiso   1.00
C1005  C     0.12284   0.59371   0.42708   0.00000  Uiso   1.00
C1006  C     0.08622   0.57481   0.41446   0.00000  Uiso   1.00
C1007  C     0.07608   0.53496   0.42732   0.00000  Uiso   1.00
C1008  C     0.10290   0.51339   0.45206   0.00000  Uiso   1.00
C1009  C     0.36008   0.52504   0.53743   0.00000  Uiso   1.00
C1010  C     0.33004   0.58004   0.25000   0.00000  Uiso   1.00
C1011  C     0.35192   0.56551   0.55108   0.00000  Uiso   1.00
C1012  C     0.38172   0.58686   0.57276   0.00000  Uiso   1.00
C1013  C     0.41981   0.56806   0.58071   0.00000  Uiso   1.00
C1014  C     0.42922   0.52926   0.56479   0.00000  Uiso   1.00
C1015  C     0.39953   0.50768   0.54316   0.00000  Uiso   1.00
C1016  C     0.22497   0.88992   0.96257   0.00000  Uiso   1.00
C1017  C     0.18450   0.89807   0.94892   0.00000  Uiso   1.00
C1018  C     0.16314   0.86827   0.92724   0.00000  Uiso   1.00
C1019  C     0.18194   0.83017   0.91930   0.00000  Uiso   1.00
C1020  C     0.22075   0.82077   0.93522   0.00000  Uiso   1.00
C1021  C     0.41997   0.83003   0.75000   0.00000  Uiso   1.00
C1022  C     0.24233   0.85046   0.95684   0.00000  Uiso   1.00
C1023  C     0.21954   0.60854   0.03824   0.00000  Uiso   1.00
C1024  C     0.17857   0.59931   0.04968   0.00000  Uiso   1.00
C1025  C     0.15630   0.62715   0.07292   0.00000  Uiso   1.00
C1026  C     0.17519   0.66378   0.08553   0.00000  Uiso   1.00
C1027  C     0.21503   0.67392   0.07266   0.00000  Uiso   1.00
C1028  C     0.23661   0.64711   0.04792   0.00000  Uiso   1.00
C1029  C     0.10855   0.71954   0.96176   0.00000  Uiso   1.00
C1030  C     0.09931   0.67857   0.95031   0.00000  Uiso   1.00
C1031  C     0.12716   0.65629   0.92708   0.00000  Uiso   1.00
C1032  C     0.25000   0.50000   0.64431   0.00000  Uiso   1.00
C1033  C     0.08003   0.66997   0.25000   0.00000  Uiso   1.00
C1034  C     0.16378   0.67518   0.91447   0.00000  Uiso   1.00
C1035  C     0.17393   0.71503   0.92735   0.00000  Uiso   1.00
C1036  C     0.14711   0.73660   0.95208   0.00000  Uiso   1.00
C1037  C     0.38992   0.72497   0.03743   0.00000  Uiso   1.00
C1038  C     0.39807   0.68450   0.05108   0.00000  Uiso   1.00
C1039  C     0.36827   0.66314   0.07276   0.00000  Uiso   1.00
C1040  C     0.33018   0.68194   0.08070   0.00000  Uiso   1.00
C1041  C     0.32078   0.72075   0.06478   0.00000  Uiso   1.00
C1042  C     0.35047   0.74232   0.04315   0.00000  Uiso   1.00
C1043  C     0.27505   0.61007   0.96257   0.00000  Uiso   1.00
C1044  C     0.33004   0.58004   0.75000   0.00000  Uiso   1.00
C1045  C     0.31552   0.60191   0.94893   0.00000  Uiso   1.00
C1046  C     0.33688   0.63170   0.92724   0.00000  Uiso   1.00
C1047  C     0.31808   0.66980   0.91929   0.00000  Uiso   1.00
C1048  C     0.27927   0.67920   0.93520   0.00000  Uiso   1.00
C1049  C     0.25770   0.64952   0.95683   0.00000  Uiso   1.00
C1050  C     0.28046   0.89145   0.03825   0.00000  Uiso   1.00
C1051  C     0.32144   0.90067   0.04969   0.00000  Uiso   1.00
C1052  C     0.34371   0.87283   0.07292   0.00000  Uiso   1.00
C1053  C     0.32481   0.83621   0.08554   0.00000  Uiso   1.00
C1054  C     0.28495   0.82607   0.07268   0.00000  Uiso   1.00
C1055  C     0.16996   0.91996   0.25000   0.00000  Uiso   1.00
C1056  C     0.26339   0.85289   0.04794   0.00000  Uiso   1.00
C1057  C     0.39145   0.78046   0.96175   0.00000  Uiso   1.00
C1058  C     0.40068   0.82144   0.95031   0.00000  Uiso   1.00
C1059  C     0.37284   0.84371   0.92708   0.00000  Uiso   1.00
C1060  C     0.33622   0.82481   0.91446   0.00000  Uiso   1.00
C1061  C     0.32608   0.78496   0.92732   0.00000  Uiso   1.00
C1062  C     0.35289   0.76339   0.95206   0.00000  Uiso   1.00
C1063  C     0.11007   0.77505   0.03743   0.00000  Uiso   1.00
C1064  C     0.10191   0.81553   0.05106   0.00000  Uiso   1.00
C1065  C     0.13170   0.83689   0.07275   0.00000  Uiso   1.00
C1066  C     0.08003   0.66997   0.75000   0.00000  Uiso   1.00
C1067  C     0.16979   0.81809   0.08071   0.00000  Uiso   1.00
C1068  C     0.17920   0.77927   0.06481   0.00000  Uiso   1.00
C1069  C     0.14952   0.75769   0.04318   0.00000  Uiso   1.00
C1070  C     0.41997   0.83003   0.25000   0.00000  Uiso   1.00
C1071  C     0.13829   0.88829   0.25000   0.00000  Uiso   1.00
C1072  C     0.36171   0.61171   0.75000   0.00000  Uiso   1.00
C1073  C     0.11171   0.63829   0.25000   0.00000  Uiso   1.00
C1074  C     0.38829   0.86171   0.75000   0.00000  Uiso   1.00
C1075  C     0.36171   0.61171   0.25000   0.00000  Uiso   1.00
C1076  C     0.00000   0.75000   0.35568   0.00000  Uiso   1.00
C1077  C     0.13829   0.88829   0.75000   0.00000  Uiso   1.00
C1078  C     0.38829   0.86171   0.25000   0.00000  Uiso   1.00
C1079  C     0.11171   0.63829   0.75000   0.00000  Uiso   1.00
C1080  C     0.13829   0.61171   0.75000   0.00000  Uiso   1.00
C1081  C     0.36171   0.88829   0.25000   0.00000  Uiso   1.00
C1082  C     0.11171   0.86171   0.75000   0.00000  Uiso   1.00
C1083  C     0.38829   0.63829   0.25000   0.00000  Uiso   1.00
C1084  C     0.36171   0.88829   0.75000   0.00000  Uiso   1.00
C1085  C     0.13829   0.61171   0.25000   0.00000  Uiso   1.00
C1086  C     0.38829   0.63829   0.75000   0.00000  Uiso   1.00
C1087  C     0.00000   0.75000   0.64435   0.00000  Uiso   1.00
C1088  C     0.11171   0.86171   0.25000   0.00000  Uiso   1.00
C1089  C     0.49182   0.78717   0.41816   0.00000  Uiso   1.00
C1090  C     0.49294   0.71264   0.58198   0.00000  Uiso   1.00
C1091  C     0.21264   0.99294   0.41802   0.00000  Uiso   1.00
C1092  C     0.28718   0.99182   0.58184   0.00000  Uiso   1.00
C1093  C     0.00818   0.71282   0.41816   0.00000  Uiso   1.00
C1094  C     0.00706   0.78736   0.58198   0.00000  Uiso   1.00
C1095  C     0.28736   0.50706   0.41802   0.00000  Uiso   1.00
C1096  C     0.21282   0.50818   0.58184   0.00000  Uiso   1.00
C1097  C     0.24182   0.53717   0.91816   0.00000  Uiso   1.00
C1098  C     0.00000   0.75000   0.85565   0.00000  Uiso   1.00
C1099  C     0.24294   0.96264   0.08198   0.00000  Uiso   1.00
C1100  C     0.46264   0.74294   0.91802   0.00000  Uiso   1.00
C1101  C     0.03717   0.74182   0.08184   0.00000  Uiso   1.00
C1102  C     0.25818   0.96282   0.91816   0.00000  Uiso   1.00
C1103  C     0.25706   0.53736   0.08198   0.00000  Uiso   1.00
C1104  C     0.03736   0.75706   0.91802   0.00000  Uiso   1.00
C1105  C     0.46282   0.75818   0.08184   0.00000  Uiso   1.00
C1106  C     0.00000   0.75000   0.39802   0.00000  Uiso   1.00
C1107  C     0.00000   0.75000   0.60210   0.00000  Uiso   1.00
C1108  C     0.25000   0.50000   0.39790   0.00000  Uiso   1.00
C1109  C    -0.00000   0.75000   0.14431   0.00000  Uiso   1.00
C1110  C     0.25000   0.50000   0.60198   0.00000  Uiso   1.00
C1111  C     0.25000   0.50000   0.89802   0.00000  Uiso   1.00
C1112  C     0.25000   0.50000   0.10210   0.00000  Uiso   1.00
C1113  C     0.00000   0.75000   0.89790   0.00000  Uiso   1.00
C1114  C    -0.00000   0.75000   0.10198   0.00000  Uiso   1.00
C1115  C     0.00231   0.71202   0.45907   0.00000  Uiso   1.00
C1116  C     0.00053   0.78799   0.54117   0.00000  Uiso   1.00
C1117  C     0.28799   0.50053   0.45883   0.00000  Uiso   1.00
C1118  C     0.21202   0.50231   0.54093   0.00000  Uiso   1.00
C1119  C     0.49769   0.78798   0.45907   0.00000  Uiso   1.00
C1120  C     0.25000   0.50000   0.85568   0.00000  Uiso   1.00
C1121  C     0.49947   0.71201   0.54117   0.00000  Uiso   1.00
C1122  C     0.21201   0.99947   0.45883   0.00000  Uiso   1.00
C1123  C     0.28798   0.99769   0.54093   0.00000  Uiso   1.00
C1124  C     0.25231   0.96202   0.95907   0.00000  Uiso   1.00
C1125  C     0.25054   0.53799   0.04117   0.00000  Uiso   1.00
C1126  C     0.03799   0.75053   0.95883   0.00000  Uiso   1.00
C1127  C     0.46202   0.75231   0.04093   0.00000  Uiso   1.00
C1128  C     0.24770   0.53797   0.95907   0.00000  Uiso   1.00
C1129  C     0.24947   0.96201   0.04117   0.00000  Uiso   1.00
C1130  C     0.46201   0.74947   0.95883   0.00000  Uiso   1.00
C1131  C     0.25000   0.50000   0.14435   0.00000  Uiso   1.00
C1132  C     0.03797   0.74770   0.04093   0.00000  Uiso   1.00
C1133  C     0.00000   0.75000   0.47957   0.00000  Uiso   1.00
C1134  C     0.00000   0.75000   0.52063   0.00000  Uiso   1.00
C1135  C     0.25000   0.50000   0.47937   0.00000  Uiso   1.00
C1136  C     0.25000   0.50000   0.52043   0.00000  Uiso   1.00
C1137  C     0.25000   0.50000   0.97957   0.00000  Uiso   1.00
C1138  C     0.25000   0.50000   0.02063   0.00000  Uiso   1.00
C1139  C    -0.00000   0.75000   0.97937   0.00000  Uiso   1.00
C1140  C    -0.00000   0.75000   0.02043   0.00000  Uiso   1.00
C1141  C     0.49923   0.67432   0.47998   0.00000  Uiso   1.00
C1142  C     0.16997   0.58003   0.25000   0.00000  Uiso   1.00
C1143  C     0.49524   0.82546   0.52039   0.00000  Uiso   1.00
C1144  C     0.32546   0.99524   0.47961   0.00000  Uiso   1.00
C1145  C     0.17432   0.99923   0.52002   0.00000  Uiso   1.00
C1146  C     0.00077   0.82568   0.47998   0.00000  Uiso   1.00
C1147  C     0.00476   0.67454   0.52039   0.00000  Uiso   1.00
C1148  C     0.17454   0.50476   0.47961   0.00000  Uiso   1.00
C1149  C     0.32568   0.50077   0.52002   0.00000  Uiso   1.00
C1150  C     0.24923   0.92432   0.97998   0.00000  Uiso   1.00
C1151  C     0.24525   0.57546   0.02039   0.00000  Uiso   1.00
C1152  C     0.07546   0.74524   0.97961   0.00000  Uiso   1.00
H1153  H     0.03484   0.83890   0.37506   0.00000  Uiso   1.00
H1154  H     0.44457   0.68693   0.61849   0.00000  Uiso   1.00
H1155  H     0.09341   0.52310   0.53241   0.00000  Uiso   1.00
H1156  H     0.07975   0.82182   0.45366   0.00000  Uiso   1.00
H1157  H     0.11739   0.87483   0.41566   0.00000  Uiso   1.00
H1158  H     0.08368   0.94227   0.40112   0.00000  Uiso   1.00
H1159  H     0.01567   0.95927   0.43017   0.00000  Uiso   1.00
H1160  H     0.47690   0.90659   0.46758   0.00000  Uiso   1.00
H1161  H     0.08538   0.68020   0.54200   0.00000  Uiso   1.00
H1162  H     0.12479   0.63052   0.58259   0.00000  Uiso   1.00
H1163  H     0.09067   0.56593   0.60567   0.00000  Uiso   1.00
H1164  H     0.02018   0.54834   0.58328   0.00000  Uiso   1.00
H1165  H     0.15777   0.53489   0.37598   0.00000  Uiso   1.00
H1166  H     0.48241   0.59513   0.53844   0.00000  Uiso   1.00
H1167  H     0.18020   0.58538   0.45800   0.00000  Uiso   1.00
H1168  H     0.13052   0.62479   0.41741   0.00000  Uiso   1.00
H1169  H     0.06593   0.59067   0.39433   0.00000  Uiso   1.00
H1170  H     0.04834   0.52018   0.41672   0.00000  Uiso   1.00
H1171  H     0.09514   0.98241   0.46156   0.00000  Uiso   1.00
H1172  H     0.32182   0.57975   0.54634   0.00000  Uiso   1.00
H1173  H     0.37483   0.61739   0.58434   0.00000  Uiso   1.00
H1174  H     0.44227   0.58368   0.59888   0.00000  Uiso   1.00
H1175  H     0.45927   0.51567   0.56983   0.00000  Uiso   1.00
H1176  H     0.16922   0.99819   0.33796   0.00000  Uiso   1.00
H1177  H     0.40659   0.97690   0.53242   0.00000  Uiso   1.00
H1178  H     0.17026   0.92817   0.95366   0.00000  Uiso   1.00
H1179  H     0.13261   0.87515   0.91566   0.00000  Uiso   1.00
H1180  H     0.16633   0.80771   0.90113   0.00000  Uiso   1.00
H1181  H     0.23435   0.79072   0.93018   0.00000  Uiso   1.00
H1182  H     0.27311   0.84341   0.96759   0.00000  Uiso   1.00
H1183  H     0.16463   0.56979   0.04201   0.00000  Uiso   1.00
H1184  H     0.12522   0.61947   0.08259   0.00000  Uiso   1.00
H1185  H     0.15933   0.68407   0.10566   0.00000  Uiso   1.00
H1186  H     0.22982   0.70167   0.08325   0.00000  Uiso   1.00
H1187  H     0.12166   0.99384   0.36436   0.00000  Uiso   1.00
H1188  H     0.26759   0.65487   0.03842   0.00000  Uiso   1.00
H1189  H     0.06979   0.66463   0.95799   0.00000  Uiso   1.00
H1190  H     0.11948   0.62522   0.91741   0.00000  Uiso   1.00
H1191  H     0.18407   0.65933   0.89434   0.00000  Uiso   1.00
H1192  H     0.20168   0.72981   0.91676   0.00000  Uiso   1.00
H1193  H     0.15487   0.76758   0.96158   0.00000  Uiso   1.00
H1194  H     0.42818   0.67026   0.04634   0.00000  Uiso   1.00
H1195  H     0.37516   0.63261   0.08434   0.00000  Uiso   1.00
H1196  H     0.30771   0.66633   0.09887   0.00000  Uiso   1.00
H1197  H     0.29072   0.73434   0.06981   0.00000  Uiso   1.00
H1198  H     0.15286   0.96105   0.41775   0.00000  Uiso   1.00
H1199  H     0.34341   0.77311   0.03241   0.00000  Uiso   1.00
H1200  H     0.32976   0.57181   0.95367   0.00000  Uiso   1.00
H1201  H     0.36741   0.62481   0.91567   0.00000  Uiso   1.00
H1202  H     0.33370   0.69225   0.90111   0.00000  Uiso   1.00
H1203  H     0.26568   0.70925   0.93015   0.00000  Uiso   1.00
H1204  H     0.22691   0.65659   0.96757   0.00000  Uiso   1.00
H1205  H     0.33538   0.93019   0.04200   0.00000  Uiso   1.00
H1206  H     0.37479   0.88050   0.08259   0.00000  Uiso   1.00
H1207  H     0.34066   0.81592   0.10567   0.00000  Uiso   1.00
H1208  H     0.27017   0.79833   0.08328   0.00000  Uiso   1.00
H1209  H     0.18693   0.94457   0.38151   0.00000  Uiso   1.00
H1210  H     0.23241   0.84513   0.03844   0.00000  Uiso   1.00
H1211  H     0.43020   0.83538   0.95800   0.00000  Uiso   1.00
H1212  H     0.38051   0.87479   0.91742   0.00000  Uiso   1.00
H1213  H     0.31593   0.84067   0.89432   0.00000  Uiso   1.00
H1214  H     0.29834   0.77017   0.91672   0.00000  Uiso   1.00
H1215  H     0.34514   0.73241   0.96156   0.00000  Uiso   1.00
H1216  H     0.07181   0.82976   0.04630   0.00000  Uiso   1.00
H1217  H     0.12482   0.86742   0.08431   0.00000  Uiso   1.00
H1218  H     0.19225   0.83371   0.09889   0.00000  Uiso   1.00
H1219  H     0.20924   0.76568   0.06987   0.00000  Uiso   1.00
H1220  H     0.33890   0.53484   0.62494   0.00000  Uiso   1.00
H1221  H     0.15658   0.72691   0.03244   0.00000  Uiso   1.00
H1222  H     0.33304   0.99622   0.66232   0.00000  Uiso   1.00
H1223  H     0.37886   0.99645   0.63273   0.00000  Uiso   1.00
H1224  H     0.34693   0.95986   0.58270   0.00000  Uiso   1.00
H1225  H     0.49622   0.83304   0.33768   0.00000  Uiso   1.00
H1226  H     0.31290   0.94415   0.61922   0.00000  Uiso   1.00
H1227  H     0.46516   0.66110   0.37506   0.00000  Uiso   1.00
H1228  H     0.00379   0.66696   0.33768   0.00000  Uiso   1.00
H1229  H     0.00354   0.62114   0.36727   0.00000  Uiso   1.00
H1230  H     0.04014   0.65307   0.41729   0.00000  Uiso   1.00
H1231  H     0.05585   0.68710   0.38078   0.00000  Uiso   1.00
H1232  H     0.46511   0.84223   0.62402   0.00000  Uiso   1.00
H1233  H     0.00181   0.83079   0.66204   0.00000  Uiso   1.00
H1234  H     0.00615   0.87834   0.63563   0.00000  Uiso   1.00
H1235  H     0.03895   0.84714   0.58225   0.00000  Uiso   1.00
H1236  H     0.49645   0.87886   0.36726   0.00000  Uiso   1.00
H1237  H     0.05543   0.81307   0.61849   0.00000  Uiso   1.00
H1238  H     0.34223   0.96511   0.37598   0.00000  Uiso   1.00
H1239  H     0.33079   0.50181   0.33796   0.00000  Uiso   1.00
H1240  H     0.37834   0.50615   0.36436   0.00000  Uiso   1.00
H1241  H     0.34714   0.53895   0.41775   0.00000  Uiso   1.00
H1242  H     0.31308   0.55543   0.38151   0.00000  Uiso   1.00
H1243  H     0.16111   0.96516   0.62494   0.00000  Uiso   1.00
H1244  H     0.16695   0.50379   0.66232   0.00000  Uiso   1.00
H1245  H     0.12114   0.50354   0.63273   0.00000  Uiso   1.00
H1246  H     0.15307   0.54014   0.58270   0.00000  Uiso   1.00
H1247  H     0.45986   0.84693   0.41729   0.00000  Uiso   1.00
H1248  H     0.18710   0.55585   0.61922   0.00000  Uiso   1.00
H1249  H     0.28483   0.58891   0.87507   0.00000  Uiso   1.00
H1250  H     0.24622   0.58303   0.83768   0.00000  Uiso   1.00
H1251  H     0.24644   0.62886   0.86726   0.00000  Uiso   1.00
H1252  H     0.20986   0.59692   0.91730   0.00000  Uiso   1.00
H1253  H     0.19415   0.56289   0.88078   0.00000  Uiso   1.00
H1254  H     0.28489   0.90777   0.12402   0.00000  Uiso   1.00
H1255  H     0.24819   0.91921   0.16204   0.00000  Uiso   1.00
H1256  H     0.24384   0.87166   0.13564   0.00000  Uiso   1.00
H1257  H     0.21104   0.90287   0.08225   0.00000  Uiso   1.00
H1258  H     0.44415   0.81290   0.38078   0.00000  Uiso   1.00
H1259  H     0.19457   0.93693   0.11849   0.00000  Uiso   1.00
H1260  H     0.40777   0.78488   0.87598   0.00000  Uiso   1.00
H1261  H     0.41922   0.74819   0.83796   0.00000  Uiso   1.00
H1262  H     0.37166   0.74384   0.86436   0.00000  Uiso   1.00
H1263  H     0.40287   0.71104   0.91775   0.00000  Uiso   1.00
H1264  H     0.43693   0.69457   0.88151   0.00000  Uiso   1.00
H1265  H     0.08894   0.78483   0.12491   0.00000  Uiso   1.00
H1266  H     0.08301   0.74625   0.16231   0.00000  Uiso   1.00
H1267  H     0.12886   0.74641   0.13276   0.00000  Uiso   1.00
H1268  H     0.09692   0.70986   0.08270   0.00000  Uiso   1.00
H1269  H     0.03489   0.65777   0.62402   0.00000  Uiso   1.00
H1270  H     0.06289   0.69415   0.11922   0.00000  Uiso   1.00
H1271  H     0.21516   0.91109   0.87507   0.00000  Uiso   1.00
H1272  H     0.25378   0.91696   0.83768   0.00000  Uiso   1.00
H1273  H     0.25355   0.87113   0.86726   0.00000  Uiso   1.00
H1274  H     0.29014   0.90307   0.91729   0.00000  Uiso   1.00
H1275  H     0.30585   0.93710   0.88078   0.00000  Uiso   1.00
H1276  H     0.21511   0.59222   0.12402   0.00000  Uiso   1.00
H1277  H     0.25181   0.58079   0.16204   0.00000  Uiso   1.00
H1278  H     0.25615   0.62834   0.13563   0.00000  Uiso   1.00
H1279  H     0.28895   0.59714   0.08225   0.00000  Uiso   1.00
H1280  H     0.49819   0.66921   0.66204   0.00000  Uiso   1.00
H1281  H     0.30543   0.56308   0.11849   0.00000  Uiso   1.00
H1282  H     0.09222   0.71511   0.87598   0.00000  Uiso   1.00
H1283  H     0.08079   0.75180   0.83796   0.00000  Uiso   1.00
H1284  H     0.12835   0.75614   0.86437   0.00000  Uiso   1.00
H1285  H     0.09714   0.78895   0.91775   0.00000  Uiso   1.00
H1286  H     0.06308   0.80543   0.88151   0.00000  Uiso   1.00
H1287  H     0.41111   0.71516   0.12494   0.00000  Uiso   1.00
H1288  H     0.41695   0.75378   0.16232   0.00000  Uiso   1.00
H1289  H     0.37113   0.75354   0.13273   0.00000  Uiso   1.00
H1290  H     0.40307   0.79014   0.08271   0.00000  Uiso   1.00
H1291  H     0.49384   0.62166   0.63564   0.00000  Uiso   1.00
H1292  H     0.43710   0.80585   0.11922   0.00000  Uiso   1.00
H1293  H     0.42026   0.67818   0.45366   0.00000  Uiso   1.00
H1294  H     0.38261   0.62516   0.41566   0.00000  Uiso   1.00
H1295  H     0.41633   0.55772   0.40113   0.00000  Uiso   1.00
H1296  H     0.48434   0.54073   0.43018   0.00000  Uiso   1.00
H1297  H     0.02311   0.59341   0.46759   0.00000  Uiso   1.00
H1298  H     0.41462   0.81979   0.54200   0.00000  Uiso   1.00
H1299  H     0.37521   0.86948   0.58258   0.00000  Uiso   1.00
H1300  H     0.40933   0.93407   0.60567   0.00000  Uiso   1.00
H1301  H     0.47982   0.95167   0.58327   0.00000  Uiso   1.00
H1302  H     0.46105   0.65286   0.58225   0.00000  Uiso   1.00
H1303  H     0.01759   0.90487   0.53843   0.00000  Uiso   1.00
H1304  H     0.31979   0.91462   0.45800   0.00000  Uiso   1.00
H1305  H     0.36948   0.87521   0.41742   0.00000  Uiso   1.00
H1306  H     0.43407   0.90933   0.39433   0.00000  Uiso   1.00
H1307  H     0.45167   0.97982   0.41673   0.00000  Uiso   1.00
H1308  H     0.40487   0.51759   0.46157   0.00000  Uiso   1.00
H1309  H     0.17818   0.92026   0.54635   0.00000  Uiso   1.00
H1310  H     0.12516   0.88262   0.58435   0.00000  Uiso   1.00
H1311  H     0.05772   0.91633   0.59887   0.00000  Uiso   1.00
H1312  H     0.04072   0.98434   0.56982   0.00000  Uiso   1.00
O1313  O     0.25000   0.50000   0.25000   0.00000  Uiso   1.00
O1314  O     0.25000   0.96538   0.66251   0.00000  Uiso   1.00
O1315  O     0.46539   0.75000   0.33749   0.00000  Uiso   1.00
O1316  O     0.03462   0.75000   0.66251   0.00000  Uiso   1.00
O1317  O     0.00000   0.71538   0.83749   0.00000  Uiso   1.00
O1318  O     0.00000   0.78461   0.16251   0.00000  Uiso   1.00
O1319  O     0.28462   0.50000   0.83749   0.00000  Uiso   1.00
O1320  O     0.21539   0.50000   0.16251   0.00000  Uiso   1.00
O1321  O     0.00000   0.78461   0.83749   0.00000  Uiso   1.00
O1322  O     0.00000   0.71538   0.16251   0.00000  Uiso   1.00
O1323  O     0.21539   0.50000   0.83749   0.00000  Uiso   1.00
O1324  O     0.25000   0.50000   0.75000   0.00000  Uiso   1.00
O1325  O     0.28462   0.50000   0.16251   0.00000  Uiso   1.00
O1326  O     0.20127   0.58332   0.27298   0.00000  Uiso   1.00
O1327  O     0.29874   0.91668   0.72702   0.00000  Uiso   1.00
O1328  O     0.41668   0.70126   0.27298   0.00000  Uiso   1.00
O1329  O     0.08332   0.79873   0.72702   0.00000  Uiso   1.00
O1330  O     0.29874   0.91668   0.27298   0.00000  Uiso   1.00
O1331  O     0.20127   0.58332   0.72702   0.00000  Uiso   1.00
O1332  O     0.08332   0.79873   0.27298   0.00000  Uiso   1.00
O1333  O     0.41668   0.70126   0.72702   0.00000  Uiso   1.00
O1334  O     0.20127   0.91668   0.72702   0.00000  Uiso   1.00
O1335  O     0.00000   0.75000   0.25000   0.00000  Uiso   1.00
O1336  O     0.29874   0.58332   0.27298   0.00000  Uiso   1.00
O1337  O     0.41668   0.79873   0.72702   0.00000  Uiso   1.00
O1338  O     0.08332   0.70126   0.27298   0.00000  Uiso   1.00
O1339  O     0.29874   0.58332   0.72702   0.00000  Uiso   1.00
O1340  O     0.20127   0.91668   0.27298   0.00000  Uiso   1.00
O1341  O     0.08332   0.70126   0.72702   0.00000  Uiso   1.00
O1342  O     0.41668   0.79873   0.27298   0.00000  Uiso   1.00
O1343  O     0.45127   0.83332   0.77298   0.00000  Uiso   1.00
O1344  O     0.04874   0.66668   0.22702   0.00000  Uiso   1.00
O1345  O     0.16668   0.95126   0.77298   0.00000  Uiso   1.00
O1346  O     0.00000   0.75000   0.75000   0.00000  Uiso   1.00
O1347  O     0.33332   0.54873   0.22702   0.00000  Uiso   1.00
O1348  O     0.04874   0.66668   0.77298   0.00000  Uiso   1.00
O1349  O     0.45127   0.83332   0.22702   0.00000  Uiso   1.00
O1350  O     0.33332   0.54873   0.77298   0.00000  Uiso   1.00
O1351  O     0.16668   0.95126   0.22702   0.00000  Uiso   1.00
O1352  O     0.45127   0.66668   0.22702   0.00000  Uiso   1.00
O1353  O     0.04874   0.83332   0.77298   0.00000  Uiso   1.00
O1354  O     0.16668   0.54873   0.22702   0.00000  Uiso   1.00
O1355  O     0.33332   0.95126   0.77298   0.00000  Uiso   1.00
O1356  O     0.04874   0.83332   0.22702   0.00000  Uiso   1.00
O1357  O     0.25000   0.96538   0.33749   0.00000  Uiso   1.00
O1358  O     0.45127   0.66668   0.77298   0.00000  Uiso   1.00
O1359  O     0.33332   0.95126   0.22702   0.00000  Uiso   1.00
O1360  O     0.16668   0.54873   0.77298   0.00000  Uiso   1.00
O1361  O     0.25000   0.53462   0.66251   0.00000  Uiso   1.00
O1362  O     0.03462   0.75000   0.33749   0.00000  Uiso   1.00
O1363  O     0.46539   0.75000   0.66251   0.00000  Uiso   1.00
O1364  O     0.25000   0.53462   0.33749   0.00000  Uiso   1.00
Zn1365 Zn    0.20053   0.50000   0.21730   0.00000  Uiso   1.00
Zn1366 Zn    0.04948   0.75000   0.28270   0.00000  Uiso   1.00
Zn1367 Zn    0.25000   0.95052   0.71730   0.00000  Uiso   1.00
Zn1368 Zn    0.25000   0.54947   0.28270   0.00000  Uiso   1.00
Zn1369 Zn    0.04948   0.75000   0.71730   0.00000  Uiso   1.00
Zn1370 Zn    0.45053   0.75000   0.28270   0.00000  Uiso   1.00
Zn1371 Zn    0.25000   0.54947   0.71730   0.00000  Uiso   1.00
Zn1372 Zn    0.25000   0.95052   0.28270   0.00000  Uiso   1.00
Zn1373 Zn    0.29948   0.50000   0.78270   0.00000  Uiso   1.00
Zn1374 Zn    0.00000   0.70052   0.21730   0.00000  Uiso   1.00
Zn1375 Zn    0.00000   0.79947   0.78270   0.00000  Uiso   1.00
Zn1376 Zn    0.29948   0.50000   0.21730   0.00000  Uiso   1.00
Zn1377 Zn    0.20053   0.50000   0.78270   0.00000  Uiso   1.00
Zn1378 Zn    0.00000   0.79947   0.21730   0.00000  Uiso   1.00
Zn1379 Zn    0.00000   0.70052   0.78270   0.00000  Uiso   1.00
Zn1380 Zn    0.45053   0.75000   0.71730   0.00000  Uiso   1.00
C1381  C     0.75000   0.50000   0.35565   0.00000  Uiso   1.00
C1382  C     0.83003   0.91997   0.75000   0.00000  Uiso   1.00
C1383  C     0.92432   0.74923   0.02002   0.00000  Uiso   1.00
C1384  C     0.75078   0.57567   0.97998   0.00000  Uiso   1.00
C1385  C     0.75476   0.92454   0.02039   0.00000  Uiso   1.00
C1386  C     0.92454   0.75476   0.97961   0.00000  Uiso   1.00
C1387  C     0.57568   0.75078   0.02002   0.00000  Uiso   1.00
C1388  C     0.97223   0.82378   0.39658   0.00000  Uiso   1.00
C1389  C     0.50184   0.84480   0.36760   0.00000  Uiso   1.00
C1390  C     0.97298   0.67602   0.60319   0.00000  Uiso   1.00
C1391  C     0.50188   0.65504   0.63280   0.00000  Uiso   1.00
C1392  C     0.67602   0.97298   0.39681   0.00000  Uiso   1.00
C1393  C     0.91996   0.66996   0.25000   0.00000  Uiso   1.00
C1394  C     0.65504   0.50188   0.36720   0.00000  Uiso   1.00
C1395  C     0.82378   0.97223   0.60342   0.00000  Uiso   1.00
C1396  C     0.84480   0.50184   0.63239   0.00000  Uiso   1.00
C1397  C     0.52777   0.67622   0.39658   0.00000  Uiso   1.00
C1398  C     0.99816   0.65520   0.36760   0.00000  Uiso   1.00
C1399  C     0.52702   0.82398   0.60319   0.00000  Uiso   1.00
C1400  C     0.99812   0.84496   0.63280   0.00000  Uiso   1.00
C1401  C     0.82398   0.52702   0.39681   0.00000  Uiso   1.00
C1402  C     0.84496   0.99812   0.36720   0.00000  Uiso   1.00
C1403  C     0.67622   0.52777   0.60342   0.00000  Uiso   1.00
C1404  C     0.58004   0.83004   0.75000   0.00000  Uiso   1.00
C1405  C     0.65520   0.99816   0.63239   0.00000  Uiso   1.00
C1406  C     0.72223   0.57378   0.89658   0.00000  Uiso   1.00
C1407  C     0.75184   0.59480   0.86760   0.00000  Uiso   1.00
C1408  C     0.72298   0.92602   0.10319   0.00000  Uiso   1.00
C1409  C     0.75188   0.90504   0.13280   0.00000  Uiso   1.00
C1410  C     0.92602   0.72298   0.89681   0.00000  Uiso   1.00
C1411  C     0.90504   0.75188   0.86720   0.00000  Uiso   1.00
C1412  C     0.57378   0.72223   0.10342   0.00000  Uiso   1.00
C1413  C     0.59480   0.75184   0.13239   0.00000  Uiso   1.00
C1414  C     0.77777   0.92622   0.89658   0.00000  Uiso   1.00
C1415  C     0.83003   0.91997   0.25000   0.00000  Uiso   1.00
C1416  C     0.74816   0.90519   0.86760   0.00000  Uiso   1.00
C1417  C     0.77702   0.57398   0.10319   0.00000  Uiso   1.00
C1418  C     0.74812   0.59496   0.13280   0.00000  Uiso   1.00
C1419  C     0.57399   0.77702   0.89681   0.00000  Uiso   1.00
C1420  C     0.59496   0.74811   0.86720   0.00000  Uiso   1.00
C1421  C     0.92622   0.77776   0.10342   0.00000  Uiso   1.00
C1422  C     0.90520   0.74815   0.13239   0.00000  Uiso   1.00
C1423  C     0.97497   0.63992   0.46257   0.00000  Uiso   1.00
C1424  C     0.93450   0.64807   0.44892   0.00000  Uiso   1.00
C1425  C     0.91314   0.61828   0.42724   0.00000  Uiso   1.00
C1426  C     0.66997   0.58003   0.75000   0.00000  Uiso   1.00
C1427  C     0.93194   0.58018   0.41930   0.00000  Uiso   1.00
C1428  C     0.97075   0.57078   0.43522   0.00000  Uiso   1.00
C1429  C     0.99232   0.60047   0.45684   0.00000  Uiso   1.00
C1430  C     0.96954   0.85855   0.53824   0.00000  Uiso   1.00
C1431  C     0.92856   0.84931   0.54968   0.00000  Uiso   1.00
C1432  C     0.90629   0.87716   0.57292   0.00000  Uiso   1.00
C1433  C     0.92518   0.91378   0.58553   0.00000  Uiso   1.00
C1434  C     0.96504   0.92392   0.57267   0.00000  Uiso   1.00
C1435  C     0.98660   0.89710   0.54793   0.00000  Uiso   1.00
C1436  C     0.85855   0.96954   0.46176   0.00000  Uiso   1.00
C1437  C     0.58004   0.83004   0.25000   0.00000  Uiso   1.00
C1438  C     0.84932   0.92856   0.45032   0.00000  Uiso   1.00
C1439  C     0.87716   0.90629   0.42708   0.00000  Uiso   1.00
C1440  C     0.91378   0.92518   0.41447   0.00000  Uiso   1.00
C1441  C     0.92392   0.96504   0.42733   0.00000  Uiso   1.00
C1442  C     0.89711   0.98660   0.45207   0.00000  Uiso   1.00
C1443  C     0.63992   0.97497   0.53743   0.00000  Uiso   1.00
C1444  C     0.64807   0.93450   0.55108   0.00000  Uiso   1.00
C1445  C     0.61828   0.91314   0.57277   0.00000  Uiso   1.00
C1446  C     0.58018   0.93194   0.58070   0.00000  Uiso   1.00
C1447  C     0.57078   0.97075   0.56478   0.00000  Uiso   1.00
C1448  C     0.91996   0.66996   0.75000   0.00000  Uiso   1.00
C1449  C     0.60047   0.99232   0.54316   0.00000  Uiso   1.00
C1450  C     0.52504   0.86008   0.46257   0.00000  Uiso   1.00
C1451  C     0.56551   0.85192   0.44892   0.00000  Uiso   1.00
C1452  C     0.58687   0.88172   0.42723   0.00000  Uiso   1.00
C1453  C     0.56806   0.91981   0.41929   0.00000  Uiso   1.00
C1454  C     0.52926   0.92922   0.43521   0.00000  Uiso   1.00
C1455  C     0.50768   0.89953   0.45684   0.00000  Uiso   1.00
C1456  C     0.53046   0.64145   0.53824   0.00000  Uiso   1.00
C1457  C     0.57144   0.65068   0.54969   0.00000  Uiso   1.00
C1458  C     0.59371   0.62284   0.57292   0.00000  Uiso   1.00
C1459  C     0.66996   0.91996   0.75000   0.00000  Uiso   1.00
C1460  C     0.57482   0.58622   0.58554   0.00000  Uiso   1.00
C1461  C     0.53496   0.57608   0.57268   0.00000  Uiso   1.00
C1462  C     0.51340   0.60289   0.54794   0.00000  Uiso   1.00
C1463  C     0.64145   0.53046   0.46176   0.00000  Uiso   1.00
C1464  C     0.65068   0.57144   0.45031   0.00000  Uiso   1.00
C1465  C     0.62284   0.59371   0.42708   0.00000  Uiso   1.00
C1466  C     0.58622   0.57481   0.41446   0.00000  Uiso   1.00
C1467  C     0.57608   0.53496   0.42732   0.00000  Uiso   1.00
C1468  C     0.60290   0.51339   0.45206   0.00000  Uiso   1.00
C1469  C     0.86008   0.52504   0.53743   0.00000  Uiso   1.00
C1470  C     0.83004   0.58004   0.25000   0.00000  Uiso   1.00
C1471  C     0.85192   0.56551   0.55108   0.00000  Uiso   1.00
C1472  C     0.88172   0.58686   0.57276   0.00000  Uiso   1.00
C1473  C     0.91981   0.56806   0.58071   0.00000  Uiso   1.00
C1474  C     0.92922   0.52926   0.56479   0.00000  Uiso   1.00
C1475  C     0.89953   0.50768   0.54316   0.00000  Uiso   1.00
C1476  C     0.72497   0.88992   0.96257   0.00000  Uiso   1.00
C1477  C     0.68450   0.89807   0.94892   0.00000  Uiso   1.00
C1478  C     0.66314   0.86827   0.92724   0.00000  Uiso   1.00
C1479  C     0.68194   0.83017   0.91930   0.00000  Uiso   1.00
C1480  C     0.72075   0.82077   0.93522   0.00000  Uiso   1.00
C1481  C     0.91997   0.83003   0.75000   0.00000  Uiso   1.00
C1482  C     0.74233   0.85046   0.95684   0.00000  Uiso   1.00
C1483  C     0.71954   0.60854   0.03824   0.00000  Uiso   1.00
C1484  C     0.67857   0.59931   0.04968   0.00000  Uiso   1.00
C1485  C     0.65630   0.62715   0.07292   0.00000  Uiso   1.00
C1486  C     0.67519   0.66378   0.08553   0.00000  Uiso   1.00
C1487  C     0.71503   0.67392   0.07266   0.00000  Uiso   1.00
C1488  C     0.73661   0.64711   0.04792   0.00000  Uiso   1.00
C1489  C     0.60855   0.71954   0.96176   0.00000  Uiso   1.00
C1490  C     0.59931   0.67857   0.95031   0.00000  Uiso   1.00
C1491  C     0.62716   0.65629   0.92708   0.00000  Uiso   1.00
C1492  C     0.75000   0.50000   0.64431   0.00000  Uiso   1.00
C1493  C     0.58003   0.66997   0.25000   0.00000  Uiso   1.00
C1494  C     0.66378   0.67518   0.91447   0.00000  Uiso   1.00
C1495  C     0.67393   0.71503   0.92735   0.00000  Uiso   1.00
C1496  C     0.64711   0.73660   0.95208   0.00000  Uiso   1.00
C1497  C     0.88992   0.72497   0.03743   0.00000  Uiso   1.00
C1498  C     0.89807   0.68450   0.05108   0.00000  Uiso   1.00
C1499  C     0.86827   0.66314   0.07276   0.00000  Uiso   1.00
C1500  C     0.83018   0.68194   0.08070   0.00000  Uiso   1.00
C1501  C     0.82078   0.72075   0.06478   0.00000  Uiso   1.00
C1502  C     0.85047   0.74232   0.04315   0.00000  Uiso   1.00
C1503  C     0.77505   0.61007   0.96257   0.00000  Uiso   1.00
C1504  C     0.83004   0.58004   0.75000   0.00000  Uiso   1.00
C1505  C     0.81552   0.60191   0.94893   0.00000  Uiso   1.00
C1506  C     0.83688   0.63170   0.92724   0.00000  Uiso   1.00
C1507  C     0.81808   0.66980   0.91929   0.00000  Uiso   1.00
C1508  C     0.77927   0.67920   0.93520   0.00000  Uiso   1.00
C1509  C     0.75770   0.64952   0.95683   0.00000  Uiso   1.00
C1510  C     0.78046   0.89145   0.03825   0.00000  Uiso   1.00
C1511  C     0.82144   0.90067   0.04969   0.00000  Uiso   1.00
C1512  C     0.84371   0.87283   0.07292   0.00000  Uiso   1.00
C1513  C     0.82481   0.83621   0.08554   0.00000  Uiso   1.00
C1514  C     0.78495   0.82607   0.07268   0.00000  Uiso   1.00
C1515  C     0.66996   0.91996   0.25000   0.00000  Uiso   1.00
C1516  C     0.76339   0.85289   0.04794   0.00000  Uiso   1.00
C1517  C     0.89145   0.78046   0.96175   0.00000  Uiso   1.00
C1518  C     0.90068   0.82144   0.95031   0.00000  Uiso   1.00
C1519  C     0.87284   0.84371   0.92708   0.00000  Uiso   1.00
C1520  C     0.83622   0.82481   0.91446   0.00000  Uiso   1.00
C1521  C     0.82608   0.78496   0.92732   0.00000  Uiso   1.00
C1522  C     0.85289   0.76339   0.95206   0.00000  Uiso   1.00
C1523  C     0.61007   0.77505   0.03743   0.00000  Uiso   1.00
C1524  C     0.60191   0.81553   0.05106   0.00000  Uiso   1.00
C1525  C     0.63170   0.83689   0.07275   0.00000  Uiso   1.00
C1526  C     0.58003   0.66997   0.75000   0.00000  Uiso   1.00
C1527  C     0.66979   0.81809   0.08071   0.00000  Uiso   1.00
C1528  C     0.67920   0.77927   0.06481   0.00000  Uiso   1.00
C1529  C     0.64952   0.75769   0.04318   0.00000  Uiso   1.00
C1530  C     0.91997   0.83003   0.25000   0.00000  Uiso   1.00
C1531  C     0.63829   0.88829   0.25000   0.00000  Uiso   1.00
C1532  C     0.86171   0.61171   0.75000   0.00000  Uiso   1.00
C1533  C     0.61171   0.63829   0.25000   0.00000  Uiso   1.00
C1534  C     0.88829   0.86171   0.75000   0.00000  Uiso   1.00
C1535  C     0.86171   0.61171   0.25000   0.00000  Uiso   1.00
C1536  C     0.50000   0.75000   0.35568   0.00000  Uiso   1.00
C1537  C     0.63829   0.88829   0.75000   0.00000  Uiso   1.00
C1538  C     0.88829   0.86171   0.25000   0.00000  Uiso   1.00
C1539  C     0.61171   0.63829   0.75000   0.00000  Uiso   1.00
C1540  C     0.63829   0.61171   0.75000   0.00000  Uiso   1.00
C1541  C     0.86171   0.88829   0.25000   0.00000  Uiso   1.00
C1542  C     0.61171   0.86171   0.75000   0.00000  Uiso   1.00
C1543  C     0.88829   0.63829   0.25000   0.00000  Uiso   1.00
C1544  C     0.86171   0.88829   0.75000   0.00000  Uiso   1.00
C1545  C     0.63829   0.61171   0.25000   0.00000  Uiso   1.00
C1546  C     0.88829   0.63829   0.75000   0.00000  Uiso   1.00
C1547  C     0.50000   0.75000   0.64435   0.00000  Uiso   1.00
C1548  C     0.61171   0.86171   0.25000   0.00000  Uiso   1.00
C1549  C     0.99182   0.78717   0.41816   0.00000  Uiso   1.00
C1550  C     0.99294   0.71264   0.58198   0.00000  Uiso   1.00
C1551  C     0.71264   0.99294   0.41802   0.00000  Uiso   1.00
C1552  C     0.78718   0.99182   0.58184   0.00000  Uiso   1.00
C1553  C     0.50818   0.71282   0.41816   0.00000  Uiso   1.00
C1554  C     0.50706   0.78736   0.58198   0.00000  Uiso   1.00
C1555  C     0.78736   0.50706   0.41802   0.00000  Uiso   1.00
C1556  C     0.71282   0.50818   0.58184   0.00000  Uiso   1.00
C1557  C     0.74182   0.53717   0.91816   0.00000  Uiso   1.00
C1558  C     0.50000   0.75000   0.85565   0.00000  Uiso   1.00
C1559  C     0.74294   0.96264   0.08198   0.00000  Uiso   1.00
C1560  C     0.96264   0.74294   0.91802   0.00000  Uiso   1.00
C1561  C     0.53717   0.74182   0.08184   0.00000  Uiso   1.00
C1562  C     0.75818   0.96282   0.91816   0.00000  Uiso   1.00
C1563  C     0.75706   0.53736   0.08198   0.00000  Uiso   1.00
C1564  C     0.53736   0.75706   0.91802   0.00000  Uiso   1.00
C1565  C     0.96282   0.75818   0.08184   0.00000  Uiso   1.00
C1566  C     0.50000   0.75000   0.39802   0.00000  Uiso   1.00
C1567  C     0.50000   0.75000   0.60210   0.00000  Uiso   1.00
C1568  C     0.75000   0.50000   0.39790   0.00000  Uiso   1.00
C1569  C     0.50000   0.75000   0.14431   0.00000  Uiso   1.00
C1570  C     0.75000   0.50000   0.60198   0.00000  Uiso   1.00
C1571  C     0.75000   0.50000   0.89802   0.00000  Uiso   1.00
C1572  C     0.75000   0.50000   0.10210   0.00000  Uiso   1.00
C1573  C     0.50000   0.75000   0.89790   0.00000  Uiso   1.00
C1574  C     0.50000   0.75000   0.10198   0.00000  Uiso   1.00
C1575  C     0.50231   0.71202   0.45907   0.00000  Uiso   1.00
C1576  C     0.50053   0.78799   0.54117   0.00000  Uiso   1.00
C1577  C     0.78799   0.50053   0.45883   0.00000  Uiso   1.00
C1578  C     0.71202   0.50231   0.54093   0.00000  Uiso   1.00
C1579  C     0.99769   0.78798   0.45907   0.00000  Uiso   1.00
C1580  C     0.75000   0.50000   0.85568   0.00000  Uiso   1.00
C1581  C     0.99947   0.71201   0.54117   0.00000  Uiso   1.00
C1582  C     0.71201   0.99947   0.45883   0.00000  Uiso   1.00
C1583  C     0.78798   0.99769   0.54093   0.00000  Uiso   1.00
C1584  C     0.75231   0.96202   0.95907   0.00000  Uiso   1.00
C1585  C     0.75054   0.53799   0.04117   0.00000  Uiso   1.00
C1586  C     0.53799   0.75053   0.95883   0.00000  Uiso   1.00
C1587  C     0.96202   0.75231   0.04093   0.00000  Uiso   1.00
C1588  C     0.74770   0.53797   0.95907   0.00000  Uiso   1.00
C1589  C     0.74947   0.96201   0.04117   0.00000  Uiso   1.00
C1590  C     0.96201   0.74947   0.95883   0.00000  Uiso   1.00
C1591  C     0.75000   0.50000   0.14435   0.00000  Uiso   1.00
C1592  C     0.53797   0.74770   0.04093   0.00000  Uiso   1.00
C1593  C     0.50000   0.75000   0.47957   0.00000  Uiso   1.00
C1594  C     0.50000   0.75000   0.52063   0.00000  Uiso   1.00
C1595  C     0.75000   0.50000   0.47937   0.00000  Uiso   1.00
C1596  C     0.75000   0.50000   0.52043   0.00000  Uiso   1.00
C1597  C     0.75000   0.50000   0.97957   0.00000  Uiso   1.00
C1598  C     0.75000   0.50000   0.02063   0.00000  Uiso   1.00
C1599  C     0.50000   0.75000   0.97937   0.00000  Uiso   1.00
C1600  C     0.50000   0.75000   0.02043   0.00000  Uiso   1.00
C1601  C     0.99923   0.67432   0.47998   0.00000  Uiso   1.00
C1602  C     0.66997   0.58003   0.25000   0.00000  Uiso   1.00
C1603  C     0.99524   0.82546   0.52039   0.00000  Uiso   1.00
C1604  C     0.82546   0.99524   0.47961   0.00000  Uiso   1.00
C1605  C     0.67432   0.99923   0.52002   0.00000  Uiso   1.00
C1606  C     0.50077   0.82568   0.47998   0.00000  Uiso   1.00
C1607  C     0.50476   0.67454   0.52039   0.00000  Uiso   1.00
C1608  C     0.67454   0.50476   0.47961   0.00000  Uiso   1.00
C1609  C     0.82568   0.50077   0.52002   0.00000  Uiso   1.00
C1610  C     0.74923   0.92432   0.97998   0.00000  Uiso   1.00
C1611  C     0.74525   0.57546   0.02039   0.00000  Uiso   1.00
C1612  C     0.57546   0.74524   0.97961   0.00000  Uiso   1.00
H1613  H     0.53484   0.83890   0.37506   0.00000  Uiso   1.00
H1614  H     0.94457   0.68693   0.61849   0.00000  Uiso   1.00
H1615  H     0.59341   0.52310   0.53241   0.00000  Uiso   1.00
H1616  H     0.57975   0.82182   0.45366   0.00000  Uiso   1.00
H1617  H     0.61739   0.87483   0.41566   0.00000  Uiso   1.00
H1618  H     0.58368   0.94227   0.40112   0.00000  Uiso   1.00
H1619  H     0.51567   0.95927   0.43017   0.00000  Uiso   1.00
H1620  H     0.97690   0.90659   0.46758   0.00000  Uiso   1.00
H1621  H     0.58538   0.68020   0.54200   0.00000  Uiso   1.00
H1622  H     0.62479   0.63052   0.58259   0.00000  Uiso   1.00
H1623  H     0.59067   0.56593   0.60567   0.00000  Uiso   1.00
H1624  H     0.52018   0.54834   0.58328   0.00000  Uiso   1.00
H1625  H     0.65777   0.53489   0.37598   0.00000  Uiso   1.00
H1626  H     0.98241   0.59513   0.53844   0.00000  Uiso   1.00
H1627  H     0.68020   0.58538   0.45800   0.00000  Uiso   1.00
H1628  H     0.63052   0.62479   0.41741   0.00000  Uiso   1.00
H1629  H     0.56593   0.59067   0.39433   0.00000  Uiso   1.00
H1630  H     0.54834   0.52018   0.41672   0.00000  Uiso   1.00
H1631  H     0.59514   0.98241   0.46156   0.00000  Uiso   1.00
H1632  H     0.82182   0.57975   0.54634   0.00000  Uiso   1.00
H1633  H     0.87483   0.61739   0.58434   0.00000  Uiso   1.00
H1634  H     0.94227   0.58368   0.59888   0.00000  Uiso   1.00
H1635  H     0.95927   0.51567   0.56983   0.00000  Uiso   1.00
H1636  H     0.66922   0.99819   0.33796   0.00000  Uiso   1.00
H1637  H     0.90659   0.97690   0.53242   0.00000  Uiso   1.00
H1638  H     0.67026   0.92817   0.95366   0.00000  Uiso   1.00
H1639  H     0.63261   0.87515   0.91566   0.00000  Uiso   1.00
H1640  H     0.66633   0.80771   0.90113   0.00000  Uiso   1.00
H1641  H     0.73435   0.79072   0.93018   0.00000  Uiso   1.00
H1642  H     0.77311   0.84341   0.96759   0.00000  Uiso   1.00
H1643  H     0.66463   0.56979   0.04201   0.00000  Uiso   1.00
H1644  H     0.62522   0.61947   0.08259   0.00000  Uiso   1.00
H1645  H     0.65933   0.68407   0.10566   0.00000  Uiso   1.00
H1646  H     0.72982   0.70167   0.08325   0.00000  Uiso   1.00
H1647  H     0.62166   0.99384   0.36436   0.00000  Uiso   1.00
H1648  H     0.76759   0.65487   0.03842   0.00000  Uiso   1.00
H1649  H     0.56979   0.66463   0.95799   0.00000  Uiso   1.00
H1650  H     0.61948   0.62522   0.91741   0.00000  Uiso   1.00
H1651  H     0.68407   0.65933   0.89434   0.00000  Uiso   1.00
H1652  H     0.70168   0.72981   0.91676   0.00000  Uiso   1.00
H1653  H     0.65487   0.76758   0.96158   0.00000  Uiso   1.00
H1654  H     0.92818   0.67026   0.04634   0.00000  Uiso   1.00
H1655  H     0.87516   0.63261   0.08434   0.00000  Uiso   1.00
H1656  H     0.80771   0.66633   0.09887   0.00000  Uiso   1.00
H1657  H     0.79072   0.73434   0.06981   0.00000  Uiso   1.00
H1658  H     0.65286   0.96105   0.41775   0.00000  Uiso   1.00
H1659  H     0.84341   0.77311   0.03241   0.00000  Uiso   1.00
H1660  H     0.82976   0.57181   0.95367   0.00000  Uiso   1.00
H1661  H     0.86741   0.62481   0.91567   0.00000  Uiso   1.00
H1662  H     0.83370   0.69225   0.90111   0.00000  Uiso   1.00
H1663  H     0.76568   0.70925   0.93015   0.00000  Uiso   1.00
H1664  H     0.72691   0.65659   0.96757   0.00000  Uiso   1.00
H1665  H     0.83538   0.93019   0.04200   0.00000  Uiso   1.00
H1666  H     0.87479   0.88050   0.08259   0.00000  Uiso   1.00
H1667  H     0.84066   0.81592   0.10567   0.00000  Uiso   1.00
H1668  H     0.77017   0.79833   0.08328   0.00000  Uiso   1.00
H1669  H     0.68693   0.94457   0.38151   0.00000  Uiso   1.00
H1670  H     0.73241   0.84513   0.03844   0.00000  Uiso   1.00
H1671  H     0.93020   0.83538   0.95800   0.00000  Uiso   1.00
H1672  H     0.88051   0.87479   0.91742   0.00000  Uiso   1.00
H1673  H     0.81593   0.84067   0.89432   0.00000  Uiso   1.00
H1674  H     0.79834   0.77017   0.91672   0.00000  Uiso   1.00
H1675  H     0.84514   0.73241   0.96156   0.00000  Uiso   1.00
H1676  H     0.57181   0.82976   0.04630   0.00000  Uiso   1.00
H1677  H     0.62482   0.86742   0.08431   0.00000  Uiso   1.00
H1678  H     0.69225   0.83371   0.09889   0.00000  Uiso   1.00
H1679  H     0.70924   0.76568   0.06987   0.00000  Uiso   1.00
H1680  H     0.83890   0.53484   0.62494   0.00000  Uiso   1.00
H1681  H     0.65658   0.72691   0.03244   0.00000  Uiso   1.00
H1682  H     0.83304   0.99622   0.66232   0.00000  Uiso   1.00
H1683  H     0.87886   0.99645   0.63273   0.00000  Uiso   1.00
H1684  H     0.84693   0.95986   0.58270   0.00000  Uiso   1.00
H1685  H     0.99622   0.83304   0.33768   0.00000  Uiso   1.00
H1686  H     0.81290   0.94415   0.61922   0.00000  Uiso   1.00
H1687  H     0.96516   0.66110   0.37506   0.00000  Uiso   1.00
H1688  H     0.50379   0.66696   0.33768   0.00000  Uiso   1.00
H1689  H     0.50354   0.62114   0.36727   0.00000  Uiso   1.00
H1690  H     0.54014   0.65307   0.41729   0.00000  Uiso   1.00
H1691  H     0.55585   0.68710   0.38078   0.00000  Uiso   1.00
H1692  H     0.96511   0.84223   0.62402   0.00000  Uiso   1.00
H1693  H     0.50181   0.83079   0.66204   0.00000  Uiso   1.00
H1694  H     0.50615   0.87834   0.63563   0.00000  Uiso   1.00
H1695  H     0.53895   0.84714   0.58225   0.00000  Uiso   1.00
H1696  H     0.99645   0.87886   0.36726   0.00000  Uiso   1.00
H1697  H     0.55543   0.81307   0.61849   0.00000  Uiso   1.00
H1698  H     0.84223   0.96511   0.37598   0.00000  Uiso   1.00
H1699  H     0.83079   0.50181   0.33796   0.00000  Uiso   1.00
H1700  H     0.87834   0.50615   0.36436   0.00000  Uiso   1.00
H1701  H     0.84714   0.53895   0.41775   0.00000  Uiso   1.00
H1702  H     0.81308   0.55543   0.38151   0.00000  Uiso   1.00
H1703  H     0.66111   0.96516   0.62494   0.00000  Uiso   1.00
H1704  H     0.66695   0.50379   0.66232   0.00000  Uiso   1.00
H1705  H     0.62114   0.50354   0.63273   0.00000  Uiso   1.00
H1706  H     0.65307   0.54014   0.58270   0.00000  Uiso   1.00
H1707  H     0.95986   0.84693   0.41729   0.00000  Uiso   1.00
H1708  H     0.68710   0.55585   0.61922   0.00000  Uiso   1.00
H1709  H     0.78483   0.58891   0.87507   0.00000  Uiso   1.00
H1710  H     0.74622   0.58303   0.83768   0.00000  Uiso   1.00
H1711  H     0.74644   0.62886   0.86726   0.00000  Uiso   1.00
H1712  H     0.70986   0.59692   0.91730   0.00000  Uiso   1.00
H1713  H     0.69415   0.56289   0.88078   0.00000  Uiso   1.00
H1714  H     0.78489   0.90777   0.12402   0.00000  Uiso   1.00
H1715  H     0.74819   0.91921   0.16204   0.00000  Uiso   1.00
H1716  H     0.74384   0.87166   0.13564   0.00000  Uiso   1.00
H1717  H     0.71104   0.90287   0.08225   0.00000  Uiso   1.00
H1718  H     0.94415   0.81290   0.38078   0.00000  Uiso   1.00
H1719  H     0.69457   0.93693   0.11849   0.00000  Uiso   1.00
H1720  H     0.90777   0.78488   0.87598   0.00000  Uiso   1.00
H1721  H     0.91922   0.74819   0.83796   0.00000  Uiso   1.00
H1722  H     0.87166   0.74384   0.86436   0.00000  Uiso   1.00
H1723  H     0.90287   0.71104   0.91775   0.00000  Uiso   1.00
H1724  H     0.93693   0.69457   0.88151   0.00000  Uiso   1.00
H1725  H     0.58894   0.78483   0.12491   0.00000  Uiso   1.00
H1726  H     0.58301   0.74625   0.16231   0.00000  Uiso   1.00
H1727  H     0.62886   0.74641   0.13276   0.00000  Uiso   1.00
H1728  H     0.59692   0.70986   0.08270   0.00000  Uiso   1.00
H1729  H     0.53489   0.65777   0.62402   0.00000  Uiso   1.00
H1730  H     0.56289   0.69415   0.11922   0.00000  Uiso   1.00
H1731  H     0.71516   0.91109   0.87507   0.00000  Uiso   1.00
H1732  H     0.75378   0.91696   0.83768   0.00000  Uiso   1.00
H1733  H     0.75355   0.87113   0.86726   0.00000  Uiso   1.00
H1734  H     0.79014   0.90307   0.91729   0.00000  Uiso   1.00
H1735  H     0.80585   0.93710   0.88078   0.00000  Uiso   1.00
H1736  H     0.71511   0.59222   0.12402   0.00000  Uiso   1.00
H1737  H     0.75181   0.58079   0.16204   0.00000  Uiso   1.00
H1738  H     0.75615   0.62834   0.13563   0.00000  Uiso   1.00
H1739  H     0.78895   0.59714   0.08225   0.00000  Uiso   1.00
H1740  H     0.99819   0.66921   0.66204   0.00000  Uiso   1.00
H1741  H     0.80543   0.56308   0.11849   0.00000  Uiso   1.00
H1742  H     0.59222   0.71511   0.87598   0.00000  Uiso   1.00
H1743  H     0.58079   0.75180   0.83796   0.00000  Uiso   1.00
H1744  H     0.62835   0.75614   0.86437   0.00000  Uiso   1.00
H1745  H     0.59714   0.78895   0.91775   0.00000  Uiso   1.00
H1746  H     0.56308   0.80543   0.88151   0.00000  Uiso   1.00
H1747  H     0.91111   0.71516   0.12494   0.00000  Uiso   1.00
H1748  H     0.91695   0.75378   0.16232   0.00000  Uiso   1.00
H1749  H     0.87113   0.75354   0.13273   0.00000  Uiso   1.00
H1750  H     0.90307   0.79014   0.08271   0.00000  Uiso   1.00
H1751  H     0.99384   0.62166   0.63564   0.00000  Uiso   1.00
H1752  H     0.93710   0.80585   0.11922   0.00000  Uiso   1.00
H1753  H     0.92026   0.67818   0.45366   0.00000  Uiso   1.00
H1754  H     0.88261   0.62516   0.41566   0.00000  Uiso   1.00
H1755  H     0.91633   0.55772   0.40113   0.00000  Uiso   1.00
H1756  H     0.98434   0.54073   0.43018   0.00000  Uiso   1.00
H1757  H     0.52311   0.59341   0.46759   0.00000  Uiso   1.00
H1758  H     0.91462   0.81979   0.54200   0.00000  Uiso   1.00
H1759  H     0.87521   0.86948   0.58258   0.00000  Uiso   1.00
H1760  H     0.90933   0.93407   0.60567   0.00000  Uiso   1.00
H1761  H     0.97982   0.95167   0.58327   0.00000  Uiso   1.00
H1762  H     0.96105   0.65286   0.58225   0.00000  Uiso   1.00
H1763  H     0.51759   0.90487   0.53843   0.00000  Uiso   1.00
H1764  H     0.81979   0.91462   0.45800   0.00000  Uiso   1.00
H1765  H     0.86948   0.87521   0.41742   0.00000  Uiso   1.00
H1766  H     0.93407   0.90933   0.39433   0.00000  Uiso   1.00
H1767  H     0.95167   0.97982   0.41673   0.00000  Uiso   1.00
H1768  H     0.90487   0.51759   0.46157   0.00000  Uiso   1.00
H1769  H     0.67818   0.92026   0.54635   0.00000  Uiso   1.00
H1770  H     0.62516   0.88262   0.58435   0.00000  Uiso   1.00
H1771  H     0.55772   0.91633   0.59887   0.00000  Uiso   1.00
H1772  H     0.54072   0.98434   0.56982   0.00000  Uiso   1.00
O1773  O     0.75000   0.50000   0.25000   0.00000  Uiso   1.00
O1774  O     0.75000   0.96538   0.66251   0.00000  Uiso   1.00
O1775  O     0.96539   0.75000   0.33749   0.00000  Uiso   1.00
O1776  O     0.53462   0.75000   0.66251   0.00000  Uiso   1.00
O1777  O     0.50000   0.71538   0.83749   0.00000  Uiso   1.00
O1778  O     0.50000   0.78461   0.16251   0.00000  Uiso   1.00
O1779  O     0.78462   0.50000   0.83749   0.00000  Uiso   1.00
O1780  O     0.71539   0.50000   0.16251   0.00000  Uiso   1.00
O1781  O     0.50000   0.78461   0.83749   0.00000  Uiso   1.00
O1782  O     0.50000   0.71538   0.16251   0.00000  Uiso   1.00
O1783  O     0.71539   0.50000   0.83749   0.00000  Uiso   1.00
O1784  O     0.75000   0.50000   0.75000   0.00000  Uiso   1.00
O1785  O     0.78462   0.50000   0.16251   0.00000  Uiso   1.00
O1786  O     0.70127   0.58332   0.27298   0.00000  Uiso   1.00
O1787  O     0.79874   0.91668   0.72702   0.00000  Uiso   1.00
O1788  O     0.91668   0.70126   0.27298   0.00000  Uiso   1.00
O1789  O     0.58332   0.79873   0.72702   0.00000  Uiso   1.00
O1790  O     0.79874   0.91668   0.27298   0.00000  Uiso   1.00
O1791  O     0.70127   0.58332   0.72702   0.00000  Uiso   1.00
O1792  O     0.58332   0.79873   0.27298   0.00000  Uiso   1.00
O1793  O     0.91668   0.70126   0.72702   0.00000  Uiso   1.00
O1794  O     0.70127   0.91668   0.72702   0.00000  Uiso   1.00
O1795  O     0.50000   0.75000   0.25000   0.00000  Uiso   1.00
O1796  O     0.79874   0.58332   0.27298   0.00000  Uiso   1.00
O1797  O     0.91668   0.79873   0.72702   0.00000  Uiso   1.00
O1798  O     0.58332   0.70126   0.27298   0.00000  Uiso   1.00
O1799  O     0.79874   0.58332   0.72702   0.00000  Uiso   1.00
O1800  O     0.70127   0.91668   0.27298   0.00000  Uiso   1.00
O1801  O     0.58332   0.70126   0.72702   0.00000  Uiso   1.00
O1802  O     0.91668   0.79873   0.27298   0.00000  Uiso   1.00
O1803  O     0.95127   0.83332   0.77298   0.00000  Uiso   1.00
O1804  O     0.54874   0.66668   0.22702   0.00000  Uiso   1.00
O1805  O     0.66668   0.95126   0.77298   0.00000  Uiso   1.00
O1806  O     0.50000   0.75000   0.75000   0.00000  Uiso   1.00
O1807  O     0.83332   0.54873   0.22702   0.00000  Uiso   1.00
O1808  O     0.54874   0.66668   0.77298   0.00000  Uiso   1.00
O1809  O     0.95127   0.83332   0.22702   0.00000  Uiso   1.00
O1810  O     0.83332   0.54873   0.77298   0.00000  Uiso   1.00
O1811  O     0.66668   0.95126   0.22702   0.00000  Uiso   1.00
O1812  O     0.95127   0.66668   0.22702   0.00000  Uiso   1.00
O1813  O     0.54874   0.83332   0.77298   0.00000  Uiso   1.00
O1814  O     0.66668   0.54873   0.22702   0.00000  Uiso   1.00
O1815  O     0.83332   0.95126   0.77298   0.00000  Uiso   1.00
O1816  O     0.54874   0.83332   0.22702   0.00000  Uiso   1.00
O1817  O     0.75000   0.96538   0.33749   0.00000  Uiso   1.00
O1818  O     0.95127   0.66668   0.77298   0.00000  Uiso   1.00
O1819  O     0.83332   0.95126   0.22702   0.00000  Uiso   1.00
O1820  O     0.66668   0.54873   0.77298   0.00000  Uiso   1.00
O1821  O     0.75000   0.53462   0.66251   0.00000  Uiso   1.00
O1822  O     0.53462   0.75000   0.33749   0.00000  Uiso   1.00
O1823  O     0.96539   0.75000   0.66251   0.00000  Uiso   1.00
O1824  O     0.75000   0.53462   0.33749   0.00000  Uiso   1.00
Zn1825 Zn    0.70053   0.50000   0.21730   0.00000  Uiso   1.00
Zn1826 Zn    0.54948   0.75000   0.28270   0.00000  Uiso   1.00
Zn1827 Zn    0.75000   0.95052   0.71730   0.00000  Uiso   1.00
Zn1828 Zn    0.75000   0.54947   0.28270   0.00000  Uiso   1.00
Zn1829 Zn    0.54948   0.75000   0.71730   0.00000  Uiso   1.00
Zn1830 Zn    0.95053   0.75000   0.28270   0.00000  Uiso   1.00
Zn1831 Zn    0.75000   0.54947   0.71730   0.00000  Uiso   1.00
Zn1832 Zn    0.75000   0.95052   0.28270   0.00000  Uiso   1.00
Zn1833 Zn    0.79948   0.50000   0.78270   0.00000  Uiso   1.00
Zn1834 Zn    0.50000   0.70052   0.21730   0.00000  Uiso   1.00
Zn1835 Zn    0.50000   0.79947   0.78270   0.00000  Uiso   1.00
Zn1836 Zn    0.79948   0.50000   0.21730   0.00000  Uiso   1.00
Zn1837 Zn    0.70053   0.50000   0.78270   0.00000  Uiso   1.00
Zn1838 Zn    0.50000   0.79947   0.21730   0.00000  Uiso   1.00
Zn1839 Zn    0.50000   0.70052   0.78270   0.00000  Uiso   1.00
Zn1840 Zn    0.95053   0.75000   0.71730   0.00000  Uiso   1.00
loop_
_geom_bond_atom_site_label_1
_geom_bond_atom_site_label_2
_geom_bond_distance
_geom_bond_site_symmetry_2
_ccdc_geom_bond_type
C1     O1357   1.276   1_545 A
C1     C188    1.451   .     S
C1     O444    1.276   .     S
C2     O407    1.284   .     A
C2     C164    1.440   .     S
C2     O435    1.284   .     A
C3     C207    1.413   .     A
C3     C117    1.481   .     S
C3     C6      1.400   1_554 S
C4     C208    1.413   .     A
C4     C123    1.481   .     S
C4     C231    1.400   1_556 S
C5     C130    1.480   .     S
C5     C209    1.411   .     A
C5     C230    1.400   1_554 S
C6     C137    1.480   .     S
C6     C210    1.411   .     A
C6     C3      1.400   1_556 S
C7     C212    1.413   .     A
C7     C143    1.481   .     S
C7     C232    1.400   1_554 S
C8     C169    1.527   .     S
C8     H327    1.104   .     S
C8     H338    1.111   .     S
C8     C469    1.535   .     S
C9     H233    1.108   .     S
C9     C468    1.535   1_455 S
C9     H765    1.110   1_455 S
C9     H776    1.109   1_455 S
C10    H234    1.111   .     S
C10    C170    1.527   .     S
C10    H382    1.105   .     S
C10    C471    1.534   .     S
C11    H349    1.107   .     S
C11    C470    1.534   1_455 S
C11    H820    1.109   1_455 S
C11    H831    1.109   1_455 S
C12    C171    1.527   .     S
C12    H289    1.111   .     S
C12    H278    1.105   .     S
C12    C934    1.534   .     S
C13    O408    1.284   .     A
C13    O432    1.284   .     A
C13    C163    1.442   .     S
C14    H245    1.107   .     S
C14    C932    1.534   1_545 S
C14    H1176   1.109   1_545 S
C14    H1187   1.109   1_545 S
C15    C172    1.527   .     S
C15    H306    1.111   .     S
C15    H304    1.104   .     S
C15    C936    1.535   .     S
C16    H300    1.108   .     S
C16    C935    1.535   1_545 S
C16    H1222   1.110   1_545 S
C16    H1223   1.109   1_545 S
C17    C173    1.527   .     S
C17    H311    1.111   .     S
C17    H310    1.104   .     S
C17    C478    1.535   1_455 S
C18    H307    1.108   .     S
C18    C477    1.535   .     S
C18    H768    1.110   .     S
C18    H769    1.109   .     S
C19    C174    1.527   .     S
C19    H317    1.111   .     S
C19    H315    1.105   .     S
C19    C480    1.534   1_455 S
C20    H312    1.107   .     S
C20    C479    1.534   .     S
C20    H773    1.109   .     S
C20    H774    1.109   .     S
C21    H321    1.104   .     S
C21    C175    1.527   .     S
C21    H322    1.111   .     S
C21    C942    1.534   1_545 S
C22    H318    1.107   .     S
C22    C941    1.534   .     S
C22    H1239   1.109   .     S
C22    H1240   1.109   .     S
C23    C176    1.527   .     S
C23    H328    1.111   .     S
C23    H326    1.104   .     S
C23    C945    1.535   1_545 S
C24    O409    1.284   .     A
C24    O433    1.284   .     A
C24    C162    1.442   .     S
C25    H323    1.108   .     S
C25    C943    1.535   .     S
C25    H1244   1.110   .     S
C25    H1245   1.109   .     S
C26    C27     1.535   .     S
C26    H332    1.104   .     S
C26    H333    1.111   .     S
C26    C177    1.527   .     S
C27    H330    1.110   .     S
C27    H331    1.109   .     S
C27    H329    1.108   .     S
C28    H337    1.104   .     S
C28    H339    1.111   .     S
C28    C29     1.534   .     S
C28    C179    1.527   .     S
C29    H335    1.109   .     S
C29    H334    1.107   .     S
C29    H336    1.109   .     S
C30    H343    1.105   .     S
C30    C180    1.527   .     S
C30    H344    1.111   .     S
C30    C31     1.534   .     S
C31    H342    1.109   .     S
C31    H341    1.109   .     S
C31    H340    1.107   .     S
C32    H348    1.104   .     S
C32    C33     1.535   .     S
C32    C181    1.527   .     S
C32    H350    1.111   .     S
C33    H346    1.110   .     S
C33    H345    1.108   .     S
C33    H347    1.109   .     S
C34    H354    1.104   .     S
C34    C36     1.535   .     S
C34    H355    1.111   .     S
C34    C182    1.527   .     S
C35    C161    1.440   .     S
C35    O410    1.284   .     A
C35    O439    1.284   .     A
C36    H352    1.110   .     S
C36    H353    1.109   .     S
C36    H351    1.108   .     S
C37    H361    1.111   .     S
C37    C38     1.534   .     S
C37    H359    1.105   .     S
C37    C183    1.527   .     S
C38    H357    1.109   .     S
C38    H358    1.109   .     S
C38    H356    1.107   .     S
C39    C184    1.527   .     S
C39    H366    1.111   .     S
C39    C40     1.534   .     S
C39    H365    1.105   .     S
C40    H362    1.107   .     S
C40    H364    1.109   .     S
C40    H363    1.109   .     S
C41    H370    1.104   .     S
C41    C42     1.535   .     S
C41    H372    1.111   .     S
C41    C185    1.527   .     S
C42    H369    1.109   .     S
C42    H367    1.108   .     S
C42    H368    1.110   .     S
C43    C49     1.400   .     A
C43    C221    1.481   .     S
C43    C44     1.408   .     A
C44    H373    1.083   .     S
C44    C45     1.395   .     A
C45    C47     1.393   .     A
C45    H374    1.082   .     S
C46    C160    1.440   .     S
C46    O411    1.284   .     A
C46    O440    1.284   .     A
C47    H375    1.079   .     S
C47    C48     1.396   .     A
C48    H376    1.075   .     S
C48    C49     1.395   .     A
C49    H837    1.081   .     S
C50    C223    1.480   .     S
C50    C51     1.407   .     A
C50    C55     1.397   .     A
C51    C52     1.397   .     A
C51    H378    1.083   .     S
C52    H379    1.082   .     S
C52    C53     1.395   .     A
C53    C54     1.395   .     A
C53    H380    1.079   .     S
C54    H381    1.075   .     S
C54    C55     1.395   .     A
C55    H843    1.078   .     S
C56    C62     1.397   .     A
C56    C58     1.407   .     A
C56    C224    1.480   .     S
C57    C168    1.442   .     S
C57    O436    1.284   .     A
C57    O412    1.284   .     A
C58    H384    1.083   .     S
C58    C59     1.397   .     A
C59    C60     1.395   .     A
C59    H385    1.082   .     S
C60    H386    1.079   .     S
C60    C61     1.395   .     A
C61    C62     1.395   .     A
C61    H387    1.075   .     S
C62    H1308   1.078   .     S
C63    C225    1.481   .     S
C63    C69     1.400   .     A
C63    C64     1.408   .     A
C64    H389    1.083   .     S
C64    C65     1.395   .     A
C65    H390    1.082   .     S
C65    C66     1.393   .     A
C66    C67     1.396   .     A
C66    H391    1.079   .     S
C67    H392    1.075   .     S
C67    C69     1.395   .     A
C68    O413    1.284   .     A
C68    O438    1.284   .     A
C68    C166    1.442   .     S
C69    H1155   1.081   .     S
C70    C226    1.481   .     S
C70    C75     1.400   .     A
C70    C71     1.408   .     A
C71    C72     1.395   .     A
C71    H236    1.083   .     S
C72    C73     1.393   .     A
C72    H237    1.082   .     S
C73    C74     1.396   .     A
C73    H238    1.079   .     S
C74    H239    1.075   .     S
C74    C75     1.395   .     A
C75    H700    1.081   1_455 S
C76    C82     1.397   .     A
C76    C227    1.480   .     S
C76    C77     1.407   .     A
C77    H241    1.083   .     S
C77    C78     1.397   .     A
C78    C80     1.395   .     A
C78    H242    1.082   .     S
C79    O425    1.284   .     A
C79    C157    1.442   .     S
C79    O414    1.284   .     A
C80    H243    1.079   .     S
C80    C81     1.395   .     A
C81    H244    1.075   .     S
C81    C82     1.395   .     A
C82    H706    1.078   1_455 S
C83    C88     1.397   .     A
C83    C228    1.480   .     S
C83    C84     1.407   .     A
C84    H247    1.083   .     S
C84    C85     1.397   .     A
C85    H248    1.082   .     S
C85    C86     1.395   .     A
C86    H249    1.079   .     S
C86    C87     1.395   .     A
C87    H250    1.075   .     S
C87    C88     1.395   .     A
C88    H1171   1.078   1_545 S
C89    C91     1.408   .     A
C89    C95     1.400   .     A
C89    C229    1.481   .     S
C90    O416    1.284   .     A
C90    O427    1.284   .     A
C90    C155    1.442   .     S
C91    H252    1.083   .     S
C91    C92     1.395   .     A
C92    H253    1.082   .     S
C92    C93     1.393   .     A
C93    H254    1.079   .     S
C93    C94     1.396   .     A
C94    C95     1.395   .     A
C94    H255    1.075   .     S
C95    H1177   1.081   1_545 S
C96    C102    1.400   .     A
C96    C230    1.481   .     S
C96    C97     1.408   .     A
C97    C98     1.395   .     A
C97    H258    1.083   .     S
C98    C99     1.393   .     A
C98    H259    1.082   .     S
C99    C100    1.396   .     A
C99    H260    1.079   .     S
C100   H261    1.075   .     S
C100   C102    1.395   .     A
C101   O417    1.284   .     A
C101   C154    1.440   .     S
C101   O423    1.284   .     A
C102   H262    1.081   .     S
C103   C231    1.480   .     S
C103   C104    1.407   .     A
C103   C108    1.397   .     A
C104   C105    1.397   .     A
C104   H263    1.083   .     S
C105   C106    1.395   .     A
C105   H264    1.082   .     S
C106   C107    1.395   .     A
C106   H265    1.079   .     S
C107   C108    1.395   .     A
C107   H266    1.075   .     S
C108   H268    1.078   .     S
C109   C232    1.480   .     S
C109   C116    1.397   .     A
C109   C110    1.407   .     A
C110   C111    1.397   .     A
C110   H269    1.083   .     S
C111   H270    1.082   .     S
C111   C114    1.395   .     A
C112   C190    1.454   .     S
C112   O441    1.277   .     A
C112   O1314   1.277   1_545 S
C113   O418    1.284   .     A
C113   O424    1.284   .     A
C113   C153    1.440   .     S
C114   H271    1.079   .     S
C114   C115    1.395   .     A
C115   H272    1.075   .     S
C115   C116    1.395   .     A
C116   H273    1.078   .     S
C117   C122    1.400   .     A
C117   C118    1.408   .     A
C118   H274    1.083   .     S
C118   C119    1.395   .     A
C119   C120    1.393   .     A
C119   H275    1.082   .     S
C120   H276    1.079   .     S
C120   C121    1.396   .     A
C121   H277    1.075   .     S
C121   C122    1.395   .     A
C122   H279    1.081   .     S
C123   C125    1.408   .     A
C123   C129    1.400   .     A
C124   C152    1.442   .     S
C124   O430    1.284   .     A
C124   O419    1.284   .     A
C125   H280    1.083   .     S
C125   C126    1.395   .     A
C126   C127    1.393   .     A
C126   H281    1.082   .     S
C127   H282    1.079   .     S
C127   C128    1.396   .     A
C128   C129    1.395   .     A
C128   H283    1.075   .     S
C129   H284    1.081   .     S
C130   C131    1.407   .     A
C130   C136    1.397   .     A
C131   H285    1.083   .     S
C131   C132    1.397   .     A
C132   H286    1.082   .     S
C132   C133    1.395   .     A
C133   H287    1.079   .     S
C133   C134    1.395   .     A
C134   H288    1.075   .     S
C134   C136    1.395   .     A
C135   O420    1.284   .     A
C135   O431    1.284   .     A
C135   C151    1.442   .     S
C136   H290    1.078   .     S
C137   C142    1.397   .     A
C137   C138    1.407   .     A
C138   H291    1.083   .     S
C138   C139    1.397   .     A
C139   C140    1.395   .     A
C139   H292    1.082   .     S
C140   C141    1.395   .     A
C140   H293    1.079   .     S
C141   H294    1.075   .     S
C141   C142    1.395   .     A
C142   H295    1.078   .     S
C143   C149    1.400   .     A
C143   C144    1.408   .     A
C144   C145    1.395   .     A
C144   H296    1.083   .     S
C145   H297    1.082   .     S
C145   C147    1.393   .     A
C146   O421    1.284   .     A
C146   O428    1.284   .     A
C146   C159    1.440   .     S
C147   H298    1.079   .     S
C147   C148    1.396   .     A
C148   C149    1.395   .     A
C148   H299    1.075   .     S
C149   H301    1.081   .     S
C150   O429    1.284   .     A
C150   C158    1.440   .     S
C150   O422    1.284   .     A
C151   C168    1.210   .     T
C152   C166    1.210   .     T
C153   C165    1.209   .     T
C154   C164    1.209   .     T
C155   C163    1.210   .     T
C156   C186    1.454   .     S
C156   O442    1.277   .     A
C156   O855    1.277   1_455 S
C157   C162    1.210   .     T
C158   C161    1.209   .     T
C159   C160    1.209   .     T
C165   C222    1.440   .     S
C167   O903    1.276   1_455 A
C167   C187    1.451   .     S
C167   O396    1.276   .     S
C169   C199    1.418   .     A
C169   C646    1.406   .     S
C170   C647    1.405   .     A
C170   C201    1.418   .     A
C171   C1108   1.405   .     A
C171   C202    1.418   .     A
C172   C203    1.418   .     A
C172   C1110   1.406   .     S
C173   C195    1.418   .     A
C173   C186    1.406   .     A
C174   C196    1.418   .     A
C174   C187    1.405   .     S
C175   C197    1.418   .     A
C175   C188    1.405   .     S
C176   C198    1.418   .     A
C176   C190    1.406   .     A
C177   C208    1.418   .     A
C177   C191    1.406   .     S
C178   C193    1.451   .     S
C178   O397    1.276   .     A
C178   O401    1.276   .     A
C179   C209    1.418   .     A
C179   C1112   1.405   .     S
C180   C210    1.418   .     A
C180   C653    1.405   .     S
C181   C212    1.418   .     A
C181   C194    1.406   .     S
C182   C204    1.418   .     A
C182   C1111   1.406   .     A
C183   C205    1.418   .     A
C183   C192    1.405   .     A
C184   C193    1.405   .     A
C184   C206    1.418   .     A
C185   C207    1.418   .     A
C185   C654    1.406   .     A
C186   C629    1.406   1_455 S
C187   C630    1.405   1_455 A
C188   C1091   1.405   1_545 A
C189   C194    1.454   .     S
C189   O398    1.277   .     A
C189   O402    1.277   .     S
C190   C1092   1.406   1_545 S
C191   C200    1.454   .     S
C191   C1102   1.406   1_545 A
C192   C211    1.451   .     S
C192   C1099   1.405   1_545 S
C193   C640    1.405   1_455 S
C194   C645    1.406   1_455 A
C195   C213    1.412   .     A
C195   C681    1.413   1_455 S
C196   C214    1.411   .     A
C196   C683    1.411   1_455 S
C197   C215    1.411   .     A
C197   C1144   1.411   1_545 S
C198   C216    1.412   .     A
C198   C1145   1.413   1_545 S
C199   C673    1.412   .     S
C199   C686    1.413   .     S
C200   O403    1.277   .     A
C200   O399    1.277   .     A
C201   C674    1.411   .     S
C201   C687    1.411   .     S
C202   C1135   1.411   .     S
C202   C1148   1.411   .     S
C203   C1136   1.412   .     S
C203   C1149   1.413   .     S
C204   C1137   1.412   .     A
C204   C230    1.413   .     A
C205   C231    1.411   .     A
C205   C218    1.411   .     S
C206   C232    1.411   .     A
C206   C219    1.411   .     S
C207   C680    1.412   .     A
C208   C217    1.412   .     S
C209   C1138   1.411   .     A
C210   C679    1.411   .     A
C211   O400    1.276   .     S
C211   O405    1.276   .     S
C212   C220    1.412   .     S
C213   C214    1.410   .     A
C213   C659    1.412   1_455 S
C214   C661    1.411   1_455 S
C215   C216    1.410   .     A
C215   C1122   1.411   1_545 S
C216   C1123   1.412   1_545 S
C217   C1124   1.412   1_545 A
C217   C218    1.410   1_556 S
C218   C1129   1.411   1_545 A
C218   C217    1.410   1_554 S
C219   C670    1.411   1_455 A
C219   C220    1.410   1_556 S
C220   C667    1.412   1_455 A
C220   C219    1.410   1_554 S
C221   C655    1.413   .     S
C221   C687    1.400   .     S
C222   O434    1.284   .     A
C222   O406    1.284   .     A
C223   C656    1.411   .     S
C223   C686    1.400   .     S
C224   C1117   1.411   .     S
C224   C1149   1.400   .     S
C225   C1118   1.413   .     S
C225   C1148   1.400   .     S
C226   C659    1.413   1_455 S
C226   C683    1.400   1_455 S
C227   C661    1.411   1_455 S
C227   C681    1.400   1_455 S
C228   C1122   1.411   1_545 S
C228   C1145   1.400   1_545 S
C229   C1123   1.413   1_545 S
C229   C1144   1.400   1_545 S
C230   C5      1.400   1_556 S
C231   C4      1.400   1_554 S
C232   C7      1.400   1_556 S
H235   C989    1.081   1_545 S
H240   C535    1.081   .     S
H246   C542    1.078   .     S
H251   C1008   1.078   .     S
H256   C934    1.109   .     S
H257   C1015   1.081   .     S
H267   C934    1.109   .     S
H302   C936    1.110   .     S
H303   C936    1.109   .     S
H305   C469    1.110   .     S
H308   C478    1.110   1_455 S
H309   C478    1.109   1_455 S
H313   C480    1.109   1_455 S
H314   C480    1.109   1_455 S
H316   C469    1.109   .     S
H319   C942    1.109   1_545 S
H320   C942    1.109   1_545 S
H324   C945    1.110   1_545 S
H325   C945    1.109   1_545 S
H360   C471    1.109   .     S
H371   C471    1.109   .     S
H377   C509    1.081   1_455 S
H383   C515    1.078   1_455 S
H388   C982    1.078   1_545 S
O393   Zn445   1.948   .     S
O393   Zn456   1.948   .     S
O393   Zn448   1.948   .     S
O393   Zn1372  1.948   1_545 S
O394   Zn447   1.942   .     S
O394   C1032   1.277   .     S
O395   Zn450   1.942   .     S
O395   C616    1.277   .     S
O396   Zn449   1.942   .     S
O397   Zn459   1.942   .     S
O398   Zn458   1.942   .     S
O399   Zn453   1.942   .     S
O400   Zn445   1.942   .     S
O401   Zn455   1.942   .     S
O402   Zn454   1.942   .     S
O403   Zn457   1.942   .     S
O404   Zn453   1.948   .     S
O404   Zn457   1.948   .     S
O404   Zn451   1.948   .     S
O404   Zn1367  1.948   1_545 S
O405   Zn456   1.942   .     S
O406   Zn448   1.937   .     S
O407   Zn447   1.937   .     S
O408   Zn450   1.939   .     S
O409   Zn449   1.939   .     S
O410   Zn452   1.937   .     S
O411   Zn451   1.937   .     S
O412   Zn446   1.939   .     S
O413   Zn460   1.939   .     S
O414   Zn447   1.939   .     S
O415   Zn910   1.948   1_455 S
O415   Zn458   1.948   .     S
O415   Zn446   1.948   .     S
O415   Zn454   1.948   .     S
O416   Zn448   1.939   .     S
O417   Zn460   1.937   .     S
O418   Zn446   1.937   .     S
O419   Zn451   1.939   .     S
O420   Zn452   1.939   .     S
O421   Zn449   1.937   .     S
O422   Zn450   1.937   .     S
O423   Zn915   1.937   .     S
O424   Zn454   1.937   .     S
O425   Zn1377  1.939   .     S
O426   Zn449   1.948   .     S
O426   Zn455   1.948   .     S
O426   Zn459   1.948   .     S
O426   Zn920   1.948   1_455 S
O427   Zn456   1.939   .     S
O428   Zn459   1.937   .     S
O429   Zn918   1.937   .     S
O430   Zn453   1.939   .     S
O431   Zn1365  1.939   .     S
O432   Zn914   1.939   .     S
O433   Zn455   1.939   .     S
O434   Zn445   1.937   .     S
O435   Zn1373  1.937   .     S
O436   Zn458   1.939   .     S
O437   C921    1.276   .     A
O437   Zn452   1.942   .     S
O438   Zn919   1.939   .     S
O439   Zn1376  1.937   .     S
O440   Zn457   1.937   .     S
O441   Zn451   1.942   .     S
O442   Zn446   1.942   .     S
O443   Zn460   1.942   .     S
O443   C627    1.276   .     A
O444   Zn448   1.942   .     S
Zn445  O1351   1.939   1_545 S
Zn447  O1324   1.948   .     S
Zn450  O875    1.948   .     S
Zn452  O1313   1.948   .     S
Zn453  O1355   1.937   1_545 S
Zn454  O892    1.939   1_455 S
Zn455  O883    1.937   1_455 S
Zn456  O1359   1.937   1_545 S
Zn457  O1345   1.939   1_545 S
Zn458  O889    1.937   1_455 S
Zn459  O898    1.939   1_455 S
Zn460  O886    1.948   .     S
C461   O1817   1.276   1_545 A
C461   C648    1.451   .     S
C461   O904    1.276   .     S
C462   O867    1.284   .     A
C462   C624    1.440   .     S
C462   O895    1.284   .     A
C463   C667    1.413   .     A
C463   C577    1.481   .     S
C463   C466    1.400   1_554 S
C464   C668    1.413   .     A
C464   C583    1.481   .     S
C464   C691    1.400   1_556 S
C465   C590    1.480   .     S
C465   C669    1.411   .     A
C465   C690    1.400   1_554 S
C466   C597    1.480   .     S
C466   C670    1.411   .     A
C466   C463    1.400   1_556 S
C467   C672    1.413   .     A
C467   C603    1.481   .     S
C467   C692    1.400   1_554 S
C468   C629    1.527   .     S
C468   H787    1.104   .     S
C468   H798    1.111   .     S
C468   C9      1.535   1_655 S
C469   H693    1.108   .     S
C470   H694    1.111   .     S
C470   C630    1.527   .     S
C470   H842    1.105   .     S
C470   C11     1.534   1_655 S
C471   H809    1.107   .     S
C472   C631    1.527   .     S
C472   H749    1.111   .     S
C472   H738    1.105   .     S
C472   C1394   1.534   .     S
C473   O868    1.284   .     A
C473   O892    1.284   .     A
C473   C623    1.442   .     S
C474   H705    1.107   .     S
C474   C1392   1.534   1_545 S
C474   H1636   1.109   1_545 S
C474   H1647   1.109   1_545 S
C475   C632    1.527   .     S
C475   H766    1.111   .     S
C475   H764    1.104   .     S
C475   C1396   1.535   .     S
C476   H760    1.108   .     S
C476   C1395   1.535   1_545 S
C476   H1682   1.110   1_545 S
C476   H1683   1.109   1_545 S
C477   C633    1.527   .     S
C477   H771    1.111   .     S
C477   H770    1.104   .     S
C478   H767    1.108   .     S
C478   C17     1.535   1_655 S
C478   H308    1.110   1_655 S
C478   H309    1.109   1_655 S
C479   C634    1.527   .     S
C479   H777    1.111   .     S
C479   H775    1.105   .     S
C480   H772    1.107   .     S
C480   C19     1.534   1_655 S
C480   H313    1.109   1_655 S
C480   H314    1.109   1_655 S
C481   H781    1.104   .     S
C481   C635    1.527   .     S
C481   H782    1.111   .     S
C481   C1402   1.534   1_545 S
C482   H778    1.107   .     S
C482   C1401   1.534   .     S
C482   H1699   1.109   .     S
C482   H1700   1.109   .     S
C483   C636    1.527   .     S
C483   H788    1.111   .     S
C483   H786    1.104   .     S
C483   C1405   1.535   1_545 S
C484   O869    1.284   .     A
C484   O893    1.284   .     A
C484   C622    1.442   .     S
C485   H783    1.108   .     S
C485   C1403   1.535   .     S
C485   H1704   1.110   .     S
C485   H1705   1.109   .     S
C486   C487    1.535   .     S
C486   H792    1.104   .     S
C486   H793    1.111   .     S
C486   C637    1.527   .     S
C487   H790    1.110   .     S
C487   H791    1.109   .     S
C487   H789    1.108   .     S
C488   H797    1.104   .     S
C488   H799    1.111   .     S
C488   C489    1.534   .     S
C488   C639    1.527   .     S
C489   H795    1.109   .     S
C489   H794    1.107   .     S
C489   H796    1.109   .     S
C490   H803    1.105   .     S
C490   C640    1.527   .     S
C490   H804    1.111   .     S
C490   C491    1.534   .     S
C491   H802    1.109   .     S
C491   H801    1.109   .     S
C491   H800    1.107   .     S
C492   H808    1.104   .     S
C492   C493    1.535   .     S
C492   C641    1.527   .     S
C492   H810    1.111   .     S
C493   H806    1.110   .     S
C493   H805    1.108   .     S
C493   H807    1.109   .     S
C494   H814    1.104   .     S
C494   C496    1.535   .     S
C494   H815    1.111   .     S
C494   C642    1.527   .     S
C495   C621    1.440   .     S
C495   O870    1.284   .     A
C495   O899    1.284   .     A
C496   H812    1.110   .     S
C496   H813    1.109   .     S
C496   H811    1.108   .     S
C497   H821    1.111   .     S
C497   C498    1.534   .     S
C497   H819    1.105   .     S
C497   C643    1.527   .     S
C498   H817    1.109   .     S
C498   H818    1.109   .     S
C498   H816    1.107   .     S
C499   C644    1.527   .     S
C499   H826    1.111   .     S
C499   C500    1.534   .     S
C499   H825    1.105   .     S
C500   H822    1.107   .     S
C500   H824    1.109   .     S
C500   H823    1.109   .     S
C501   H830    1.104   .     S
C501   C502    1.535   .     S
C501   H832    1.111   .     S
C501   C645    1.527   .     S
C502   H829    1.109   .     S
C502   H827    1.108   .     S
C502   H828    1.110   .     S
C503   C509    1.400   .     A
C503   C681    1.481   .     S
C503   C504    1.408   .     A
C504   H833    1.083   .     S
C504   C505    1.395   .     A
C505   C507    1.393   .     A
C505   H834    1.082   .     S
C506   C620    1.440   .     S
C506   O871    1.284   .     A
C506   O900    1.284   .     A
C507   H835    1.079   .     S
C507   C508    1.396   .     A
C508   H836    1.075   .     S
C508   C509    1.395   .     A
C509   H377    1.081   1_655 S
C510   C683    1.480   .     S
C510   C511    1.407   .     A
C510   C515    1.397   .     A
C511   C512    1.397   .     A
C511   H838    1.083   .     S
C512   H839    1.082   .     S
C512   C513    1.395   .     A
C513   C514    1.395   .     A
C513   H840    1.079   .     S
C514   H841    1.075   .     S
C514   C515    1.395   .     A
C515   H383    1.078   1_655 S
C516   C522    1.397   .     A
C516   C518    1.407   .     A
C516   C684    1.480   .     S
C517   C628    1.442   .     S
C517   O896    1.284   .     A
C517   O872    1.284   .     A
C518   H844    1.083   .     S
C518   C519    1.397   .     A
C519   C520    1.395   .     A
C519   H845    1.082   .     S
C520   H846    1.079   .     S
C520   C521    1.395   .     A
C521   C522    1.395   .     A
C521   H847    1.075   .     S
C522   H1768   1.078   .     S
C523   C685    1.481   .     S
C523   C529    1.400   .     A
C523   C524    1.408   .     A
C524   H849    1.083   .     S
C524   C525    1.395   .     A
C525   H850    1.082   .     S
C525   C526    1.393   .     A
C526   C527    1.396   .     A
C526   H851    1.079   .     S
C527   H852    1.075   .     S
C527   C529    1.395   .     A
C528   O873    1.284   .     A
C528   O898    1.284   .     A
C528   C626    1.442   .     S
C529   H1615   1.081   .     S
C530   C686    1.481   .     S
C530   C535    1.400   .     A
C530   C531    1.408   .     A
C531   C532    1.395   .     A
C531   H696    1.083   .     S
C532   C533    1.393   .     A
C532   H697    1.082   .     S
C533   C534    1.396   .     A
C533   H698    1.079   .     S
C534   H699    1.075   .     S
C534   C535    1.395   .     A
C536   C542    1.397   .     A
C536   C687    1.480   .     S
C536   C537    1.407   .     A
C537   H701    1.083   .     S
C537   C538    1.397   .     A
C538   C540    1.395   .     A
C538   H702    1.082   .     S
C539   O885    1.284   .     A
C539   C617    1.442   .     S
C539   O874    1.284   .     A
C540   H703    1.079   .     S
C540   C541    1.395   .     A
C541   H704    1.075   .     S
C541   C542    1.395   .     A
C543   C548    1.397   .     A
C543   C688    1.480   .     S
C543   C544    1.407   .     A
C544   H707    1.083   .     S
C544   C545    1.397   .     A
C545   H708    1.082   .     S
C545   C546    1.395   .     A
C546   H709    1.079   .     S
C546   C547    1.395   .     A
C547   H710    1.075   .     S
C547   C548    1.395   .     A
C548   H1631   1.078   1_545 S
C549   C551    1.408   .     A
C549   C555    1.400   .     A
C549   C689    1.481   .     S
C550   O876    1.284   .     A
C550   O887    1.284   .     A
C550   C615    1.442   .     S
C551   H712    1.083   .     S
C551   C552    1.395   .     A
C552   H713    1.082   .     S
C552   C553    1.393   .     A
C553   H714    1.079   .     S
C553   C554    1.396   .     A
C554   C555    1.395   .     A
C554   H715    1.075   .     S
C555   H1637   1.081   1_545 S
C556   C562    1.400   .     A
C556   C690    1.481   .     S
C556   C557    1.408   .     A
C557   C558    1.395   .     A
C557   H718    1.083   .     S
C558   C559    1.393   .     A
C558   H719    1.082   .     S
C559   C560    1.396   .     A
C559   H720    1.079   .     S
C560   H721    1.075   .     S
C560   C562    1.395   .     A
C561   O877    1.284   .     A
C561   C614    1.440   .     S
C561   O883    1.284   .     A
C562   H722    1.081   .     S
C563   C691    1.480   .     S
C563   C564    1.407   .     A
C563   C568    1.397   .     A
C564   C565    1.397   .     A
C564   H723    1.083   .     S
C565   C566    1.395   .     A
C565   H724    1.082   .     S
C566   C567    1.395   .     A
C566   H725    1.079   .     S
C567   C568    1.395   .     A
C567   H726    1.075   .     S
C568   H728    1.078   .     S
C569   C692    1.480   .     S
C569   C576    1.397   .     A
C569   C570    1.407   .     A
C570   C571    1.397   .     A
C570   H729    1.083   .     S
C571   H730    1.082   .     S
C571   C574    1.395   .     A
C572   C650    1.454   .     S
C572   O901    1.277   .     A
C572   O1774   1.277   1_545 S
C573   O878    1.284   .     A
C573   O884    1.284   .     A
C573   C613    1.440   .     S
C574   H731    1.079   .     S
C574   C575    1.395   .     A
C575   H732    1.075   .     S
C575   C576    1.395   .     A
C576   H733    1.078   .     S
C577   C582    1.400   .     A
C577   C578    1.408   .     A
C578   H734    1.083   .     S
C578   C579    1.395   .     A
C579   C580    1.393   .     A
C579   H735    1.082   .     S
C580   H736    1.079   .     S
C580   C581    1.396   .     A
C581   H737    1.075   .     S
C581   C582    1.395   .     A
C582   H739    1.081   .     S
C583   C585    1.408   .     A
C583   C589    1.400   .     A
C584   C612    1.442   .     S
C584   O890    1.284   .     A
C584   O879    1.284   .     A
C585   H740    1.083   .     S
C585   C586    1.395   .     A
C586   C587    1.393   .     A
C586   H741    1.082   .     S
C587   H742    1.079   .     S
C587   C588    1.396   .     A
C588   C589    1.395   .     A
C588   H743    1.075   .     S
C589   H744    1.081   .     S
C590   C591    1.407   .     A
C590   C596    1.397   .     A
C591   H745    1.083   .     S
C591   C592    1.397   .     A
C592   H746    1.082   .     S
C592   C593    1.395   .     A
C593   H747    1.079   .     S
C593   C594    1.395   .     A
C594   H748    1.075   .     S
C594   C596    1.395   .     A
C595   O880    1.284   .     A
C595   O891    1.284   .     A
C595   C611    1.442   .     S
C596   H750    1.078   .     S
C597   C602    1.397   .     A
C597   C598    1.407   .     A
C598   H751    1.083   .     S
C598   C599    1.397   .     A
C599   C600    1.395   .     A
C599   H752    1.082   .     S
C600   C601    1.395   .     A
C600   H753    1.079   .     S
C601   H754    1.075   .     S
C601   C602    1.395   .     A
C602   H755    1.078   .     S
C603   C609    1.400   .     A
C603   C604    1.408   .     A
C604   C605    1.395   .     A
C604   H756    1.083   .     S
C605   H757    1.082   .     S
C605   C607    1.393   .     A
C606   O881    1.284   .     A
C606   O888    1.284   .     A
C606   C619    1.440   .     S
C607   H758    1.079   .     S
C607   C608    1.396   .     A
C608   C609    1.395   .     A
C608   H759    1.075   .     S
C609   H761    1.081   .     S
C610   O889    1.284   .     A
C610   C618    1.440   .     S
C610   O882    1.284   .     A
C611   C628    1.210   .     T
C612   C626    1.210   .     T
C613   C625    1.209   .     T
C614   C624    1.209   .     T
C615   C623    1.210   .     T
C616   C646    1.454   .     S
C616   O902    1.277   .     A
C617   C622    1.210   .     T
C618   C621    1.209   .     T
C619   C620    1.209   .     T
C625   C682    1.440   .     S
C627   C647    1.451   .     S
C627   O856    1.276   .     S
C629   C659    1.418   .     A
C629   C186    1.406   1_655 S
C630   C187    1.405   1_655 A
C630   C661    1.418   .     A
C631   C1568   1.405   .     A
C631   C662    1.418   .     A
C632   C663    1.418   .     A
C632   C1570   1.406   .     S
C633   C655    1.418   .     A
C633   C646    1.406   .     A
C634   C656    1.418   .     A
C634   C647    1.405   .     S
C635   C657    1.418   .     A
C635   C648    1.405   .     S
C636   C658    1.418   .     A
C636   C650    1.406   .     A
C637   C668    1.418   .     A
C637   C651    1.406   .     S
C638   C653    1.451   .     S
C638   O857    1.276   .     A
C638   O861    1.276   .     A
C639   C669    1.418   .     A
C639   C1572   1.405   .     S
C640   C670    1.418   .     A
C640   C193    1.405   1_655 S
C641   C672    1.418   .     A
C641   C654    1.406   .     S
C642   C664    1.418   .     A
C642   C1571   1.406   .     A
C643   C665    1.418   .     A
C643   C652    1.405   .     A
C644   C653    1.405   .     A
C644   C666    1.418   .     A
C645   C667    1.418   .     A
C645   C194    1.406   1_655 A
C648   C1551   1.405   1_545 A
C649   C654    1.454   .     S
C649   O858    1.277   .     A
C649   O862    1.277   .     S
C650   C1552   1.406   1_545 S
C651   C660    1.454   .     S
C651   C1562   1.406   1_545 A
C652   C671    1.451   .     S
C652   C1559   1.405   1_545 S
C655   C673    1.412   .     A
C656   C674    1.411   .     A
C657   C675    1.411   .     A
C657   C1604   1.411   1_545 S
C658   C676    1.412   .     A
C658   C1605   1.413   1_545 S
C659   C213    1.412   1_655 S
C659   C226    1.413   1_655 S
C660   O863    1.277   .     A
C660   O859    1.277   .     A
C661   C214    1.411   1_655 S
C661   C227    1.411   1_655 S
C662   C1595   1.411   .     S
C662   C1608   1.411   .     S
C663   C1596   1.412   .     S
C663   C1609   1.413   .     S
C664   C1597   1.412   .     A
C664   C690    1.413   .     A
C665   C691    1.411   .     A
C665   C678    1.411   .     S
C666   C692    1.411   .     A
C666   C679    1.411   .     S
C667   C220    1.412   1_655 A
C668   C677    1.412   .     S
C669   C1598   1.411   .     A
C670   C219    1.411   1_655 A
C671   O860    1.276   .     S
C671   O865    1.276   .     S
C672   C680    1.412   .     S
C673   C674    1.410   .     A
C675   C676    1.410   .     A
C675   C1582   1.411   1_545 S
C676   C1583   1.412   1_545 S
C677   C1584   1.412   1_545 A
C677   C678    1.410   1_556 S
C678   C1589   1.411   1_545 A
C678   C677    1.410   1_554 S
C679   C680    1.410   1_556 S
C680   C679    1.410   1_554 S
C681   C195    1.413   1_655 S
C681   C227    1.400   1_655 S
C682   O894    1.284   .     A
C682   O866    1.284   .     A
C683   C196    1.411   1_655 S
C683   C226    1.400   1_655 S
C684   C1577   1.411   .     S
C684   C1609   1.400   .     S
C685   C1578   1.413   .     S
C685   C1608   1.400   .     S
C688   C1582   1.411   1_545 S
C688   C1605   1.400   1_545 S
C689   C1583   1.413   1_545 S
C689   C1604   1.400   1_545 S
C690   C465    1.400   1_556 S
C691   C464    1.400   1_554 S
C692   C467    1.400   1_556 S
H695   C1449   1.081   1_545 S
H700   C75     1.081   1_655 S
H706   C82     1.078   1_655 S
H711   C1468   1.078   .     S
H716   C1394   1.109   .     S
H717   C1475   1.081   .     S
H727   C1394   1.109   .     S
H762   C1396   1.110   .     S
H763   C1396   1.109   .     S
H765   C9      1.110   1_655 S
H776   C9      1.109   1_655 S
H779   C1402   1.109   1_545 S
H780   C1402   1.109   1_545 S
H784   C1405   1.110   1_545 S
H785   C1405   1.109   1_545 S
H820   C11     1.109   1_655 S
H831   C11     1.109   1_655 S
H848   C1442   1.078   1_545 S
O853   Zn905   1.948   .     S
O853   Zn916   1.948   .     S
O853   Zn908   1.948   .     S
O853   Zn1832  1.948   1_545 S
O854   Zn907   1.942   .     S
O854   C1492   1.277   .     S
O855   Zn910   1.942   .     S
O855   C156    1.277   1_655 S
O856   Zn909   1.942   .     S
O857   Zn919   1.942   .     S
O858   Zn918   1.942   .     S
O859   Zn913   1.942   .     S
O860   Zn905   1.942   .     S
O861   Zn915   1.942   .     S
O862   Zn914   1.942   .     S
O863   Zn917   1.942   .     S
O864   Zn913   1.948   .     S
O864   Zn917   1.948   .     S
O864   Zn911   1.948   .     S
O864   Zn1827  1.948   1_545 S
O865   Zn916   1.942   .     S
O866   Zn908   1.937   .     S
O867   Zn907   1.937   .     S
O868   Zn910   1.939   .     S
O869   Zn909   1.939   .     S
O870   Zn912   1.937   .     S
O871   Zn911   1.937   .     S
O872   Zn906   1.939   .     S
O873   Zn920   1.939   .     S
O874   Zn907   1.939   .     S
O875   Zn918   1.948   .     S
O875   Zn906   1.948   .     S
O875   Zn914   1.948   .     S
O876   Zn908   1.939   .     S
O877   Zn920   1.937   .     S
O878   Zn906   1.937   .     S
O879   Zn911   1.939   .     S
O880   Zn912   1.939   .     S
O881   Zn909   1.937   .     S
O882   Zn910   1.937   .     S
O883   Zn455   1.937   1_655 S
O884   Zn914   1.937   .     S
O885   Zn1837  1.939   .     S
O886   Zn909   1.948   .     S
O886   Zn915   1.948   .     S
O886   Zn919   1.948   .     S
O887   Zn916   1.939   .     S
O888   Zn919   1.937   .     S
O889   Zn458   1.937   1_655 S
O890   Zn913   1.939   .     S
O891   Zn1825  1.939   .     S
O892   Zn454   1.939   1_655 S
O893   Zn915   1.939   .     S
O894   Zn905   1.937   .     S
O895   Zn1833  1.937   .     S
O896   Zn918   1.939   .     S
O897   C1381   1.276   .     A
O897   Zn912   1.942   .     S
O898   Zn459   1.939   1_655 S
O899   Zn1836  1.937   .     S
O900   Zn917   1.937   .     S
O901   Zn911   1.942   .     S
O902   Zn906   1.942   .     S
O903   Zn920   1.942   .     S
O903   C167    1.276   1_655 A
O904   Zn908   1.942   .     S
Zn905  O1811   1.939   1_545 S
Zn907  O1784   1.948   .     S
Zn910  O415    1.948   1_655 S
Zn912  O1773   1.948   .     S
Zn913  O1815   1.937   1_545 S
Zn916  O1819   1.937   1_545 S
Zn917  O1805   1.939   1_545 S
Zn920  O426    1.948   1_655 S
C921   C1108   1.451   .     S
C921   O1364   1.276   .     S
C922   O1327   1.284   .     A
C922   C1084   1.440   .     S
C922   O1355   1.284   .     A
C923   C1127   1.413   .     A
C923   C1037   1.481   .     S
C923   C926    1.400   1_554 S
C924   C1128   1.413   .     A
C924   C1043   1.481   .     S
C924   C1151   1.400   1_556 S
C925   C1050   1.480   .     S
C925   C1129   1.411   .     A
C925   C1150   1.400   1_554 S
C926   C1057   1.480   .     S
C926   C1130   1.411   .     A
C926   C923    1.400   1_556 S
C927   C1132   1.413   .     A
C927   C1063   1.481   .     S
C927   C1152   1.400   1_554 S
C928   C1089   1.527   .     S
C928   H1247   1.104   .     S
C928   H1258   1.111   .     S
C928   C1389   1.535   .     S
C929   H1153   1.108   .     S
C929   C1388   1.535   1_455 S
C929   H1685   1.110   1_455 S
C929   H1696   1.109   1_455 S
C930   H1154   1.111   .     S
C930   C1090   1.527   .     S
C930   H1302   1.105   .     S
C930   C1391   1.534   .     S
C931   H1269   1.107   .     S
C931   C1390   1.534   1_455 S
C931   H1740   1.109   1_455 S
C931   H1751   1.109   1_455 S
C932   C1091   1.527   .     S
C932   H1209   1.111   .     S
C932   H1198   1.105   .     S
C932   C14     1.534   1_565 S
C933   O1328   1.284   .     A
C933   O1352   1.284   .     A
C933   C1083   1.442   .     S
C934   H1165   1.107   .     S
C935   C1092   1.527   .     S
C935   H1226   1.111   .     S
C935   H1224   1.104   .     S
C935   C16     1.535   1_565 S
C936   H1220   1.108   .     S
C937   C1093   1.527   .     S
C937   H1231   1.111   .     S
C937   H1230   1.104   .     S
C937   C1398   1.535   1_455 S
C938   H1227   1.108   .     S
C938   C1397   1.535   .     S
C938   H1688   1.110   .     S
C938   H1689   1.109   .     S
C939   C1094   1.527   .     S
C939   H1237   1.111   .     S
C939   H1235   1.105   .     S
C939   C1400   1.534   1_455 S
C940   H1232   1.107   .     S
C940   C1399   1.534   .     S
C940   H1693   1.109   .     S
C940   H1694   1.109   .     S
C941   H1241   1.104   .     S
C941   C1095   1.527   .     S
C941   H1242   1.111   .     S
C942   H1238   1.107   .     S
C942   C21     1.534   1_565 S
C942   H319    1.109   1_565 S
C942   H320    1.109   1_565 S
C943   C1096   1.527   .     S
C943   H1248   1.111   .     S
C943   H1246   1.104   .     S
C944   O1329   1.284   .     A
C944   O1353   1.284   .     A
C944   C1082   1.442   .     S
C945   H1243   1.108   .     S
C945   C23     1.535   1_565 S
C945   H324    1.110   1_565 S
C945   H325    1.109   1_565 S
C946   C947    1.535   .     S
C946   H1252   1.104   .     S
C946   H1253   1.111   .     S
C946   C1097   1.527   .     S
C947   H1250   1.110   .     S
C947   H1251   1.109   .     S
C947   H1249   1.108   .     S
C948   H1257   1.104   .     S
C948   H1259   1.111   .     S
C948   C949    1.534   .     S
C948   C1099   1.527   .     S
C949   H1255   1.109   .     S
C949   H1254   1.107   .     S
C949   H1256   1.109   .     S
C950   H1263   1.105   .     S
C950   C1100   1.527   .     S
C950   H1264   1.111   .     S
C950   C951    1.534   .     S
C951   H1262   1.109   .     S
C951   H1261   1.109   .     S
C951   H1260   1.107   .     S
C952   H1268   1.104   .     S
C952   C953    1.535   .     S
C952   C1101   1.527   .     S
C952   H1270   1.111   .     S
C953   H1266   1.110   .     S
C953   H1265   1.108   .     S
C953   H1267   1.109   .     S
C954   H1274   1.104   .     S
C954   C956    1.535   .     S
C954   H1275   1.111   .     S
C954   C1102   1.527   .     S
C955   C1081   1.440   .     S
C955   O1330   1.284   .     A
C955   O1359   1.284   .     A
C956   H1272   1.110   .     S
C956   H1273   1.109   .     S
C956   H1271   1.108   .     S
C957   H1281   1.111   .     S
C957   C958    1.534   .     S
C957   H1279   1.105   .     S
C957   C1103   1.527   .     S
C958   H1277   1.109   .     S
C958   H1278   1.109   .     S
C958   H1276   1.107   .     S
C959   C1104   1.527   .     S
C959   H1286   1.111   .     S
C959   C960    1.534   .     S
C959   H1285   1.105   .     S
C960   H1282   1.107   .     S
C960   H1284   1.109   .     S
C960   H1283   1.109   .     S
C961   H1290   1.104   .     S
C961   C962    1.535   .     S
C961   H1292   1.111   .     S
C961   C1105   1.527   .     S
C962   H1289   1.109   .     S
C962   H1287   1.108   .     S
C962   H1288   1.110   .     S
C963   C969    1.400   .     A
C963   C1141   1.481   .     S
C963   C964    1.408   .     A
C964   H1293   1.083   .     S
C964   C965    1.395   .     A
C965   C967    1.393   .     A
C965   H1294   1.082   .     S
C966   C1080   1.440   .     S
C966   O1331   1.284   .     A
C966   O1360   1.284   .     A
C967   H1295   1.079   .     S
C967   C968    1.396   .     A
C968   H1296   1.075   .     S
C968   C969    1.395   .     A
C969   H1757   1.081   .     S
C970   C1143   1.480   .     S
C970   C971    1.407   .     A
C970   C975    1.397   .     A
C971   C972    1.397   .     A
C971   H1298   1.083   .     S
C972   H1299   1.082   .     S
C972   C973    1.395   .     A
C973   C974    1.395   .     A
C973   H1300   1.079   .     S
C974   H1301   1.075   .     S
C974   C975    1.395   .     A
C975   H1763   1.078   .     S
C976   C982    1.397   .     A
C976   C978    1.407   .     A
C976   C1144   1.480   .     S
C977   C1088   1.442   .     S
C977   O1356   1.284   .     A
C977   O1332   1.284   .     A
C978   H1304   1.083   .     S
C978   C979    1.397   .     A
C979   C980    1.395   .     A
C979   H1305   1.082   .     S
C980   H1306   1.079   .     S
C980   C981    1.395   .     A
C981   C982    1.395   .     A
C981   H1307   1.075   .     S
C982   H388    1.078   1_565 S
C983   C1145   1.481   .     S
C983   C989    1.400   .     A
C983   C984    1.408   .     A
C984   H1309   1.083   .     S
C984   C985    1.395   .     A
C985   H1310   1.082   .     S
C985   C986    1.393   .     A
C986   C987    1.396   .     A
C986   H1311   1.079   .     S
C987   H1312   1.075   .     S
C987   C989    1.395   .     A
C988   O1333   1.284   .     A
C988   O1358   1.284   .     A
C988   C1086   1.442   .     S
C989   H235    1.081   1_565 S
C990   C1146   1.481   .     S
C990   C995    1.400   .     A
C990   C991    1.408   .     A
C991   C992    1.395   .     A
C991   H1156   1.083   .     S
C992   C993    1.393   .     A
C992   H1157   1.082   .     S
C993   C994    1.396   .     A
C993   H1158   1.079   .     S
C994   H1159   1.075   .     S
C994   C995    1.395   .     A
C995   H1620   1.081   1_455 S
C996   C1002   1.397   .     A
C996   C1147   1.480   .     S
C996   C997    1.407   .     A
C997   H1161   1.083   .     S
C997   C998    1.397   .     A
C998   C1000   1.395   .     A
C998   H1162   1.082   .     S
C999   O1345   1.284   .     A
C999   C1077   1.442   .     S
C999   O1334   1.284   .     A
C1000  H1163   1.079   .     S
C1000  C1001   1.395   .     A
C1001  H1164   1.075   .     S
C1001  C1002   1.395   .     A
C1002  H1626   1.078   1_455 S
C1003  C1008   1.397   .     A
C1003  C1148   1.480   .     S
C1003  C1004   1.407   .     A
C1004  H1167   1.083   .     S
C1004  C1005   1.397   .     A
C1005  H1168   1.082   .     S
C1005  C1006   1.395   .     A
C1006  H1169   1.079   .     S
C1006  C1007   1.395   .     A
C1007  H1170   1.075   .     S
C1007  C1008   1.395   .     A
C1009  C1011   1.408   .     A
C1009  C1015   1.400   .     A
C1009  C1149   1.481   .     S
C1010  O1336   1.284   .     A
C1010  O1347   1.284   .     A
C1010  C1075   1.442   .     S
C1011  H1172   1.083   .     S
C1011  C1012   1.395   .     A
C1012  H1173   1.082   .     S
C1012  C1013   1.393   .     A
C1013  H1174   1.079   .     S
C1013  C1014   1.396   .     A
C1014  C1015   1.395   .     A
C1014  H1175   1.075   .     S
C1016  C1022   1.400   .     A
C1016  C1150   1.481   .     S
C1016  C1017   1.408   .     A
C1017  C1018   1.395   .     A
C1017  H1178   1.083   .     S
C1018  C1019   1.393   .     A
C1018  H1179   1.082   .     S
C1019  C1020   1.396   .     A
C1019  H1180   1.079   .     S
C1020  H1181   1.075   .     S
C1020  C1022   1.395   .     A
C1021  O1337   1.284   .     A
C1021  C1074   1.440   .     S
C1021  O1343   1.284   .     A
C1022  H1182   1.081   .     S
C1023  C1151   1.480   .     S
C1023  C1024   1.407   .     A
C1023  C1028   1.397   .     A
C1024  C1025   1.397   .     A
C1024  H1183   1.083   .     S
C1025  C1026   1.395   .     A
C1025  H1184   1.082   .     S
C1026  C1027   1.395   .     A
C1026  H1185   1.079   .     S
C1027  C1028   1.395   .     A
C1027  H1186   1.075   .     S
C1028  H1188   1.078   .     S
C1029  C1152   1.480   .     S
C1029  C1036   1.397   .     A
C1029  C1030   1.407   .     A
C1030  C1031   1.397   .     A
C1030  H1189   1.083   .     S
C1031  H1190   1.082   .     S
C1031  C1034   1.395   .     A
C1032  C1110   1.454   .     S
C1032  O1361   1.277   .     A
C1033  O1338   1.284   .     A
C1033  O1344   1.284   .     A
C1033  C1073   1.440   .     S
C1034  H1191   1.079   .     S
C1034  C1035   1.395   .     A
C1035  H1192   1.075   .     S
C1035  C1036   1.395   .     A
C1036  H1193   1.078   .     S
C1037  C1042   1.400   .     A
C1037  C1038   1.408   .     A
C1038  H1194   1.083   .     S
C1038  C1039   1.395   .     A
C1039  C1040   1.393   .     A
C1039  H1195   1.082   .     S
C1040  H1196   1.079   .     S
C1040  C1041   1.396   .     A
C1041  H1197   1.075   .     S
C1041  C1042   1.395   .     A
C1042  H1199   1.081   .     S
C1043  C1045   1.408   .     A
C1043  C1049   1.400   .     A
C1044  C1072   1.442   .     S
C1044  O1350   1.284   .     A
C1044  O1339   1.284   .     A
C1045  H1200   1.083   .     S
C1045  C1046   1.395   .     A
C1046  C1047   1.393   .     A
C1046  H1201   1.082   .     S
C1047  H1202   1.079   .     S
C1047  C1048   1.396   .     A
C1048  C1049   1.395   .     A
C1048  H1203   1.075   .     S
C1049  H1204   1.081   .     S
C1050  C1051   1.407   .     A
C1050  C1056   1.397   .     A
C1051  H1205   1.083   .     S
C1051  C1052   1.397   .     A
C1052  H1206   1.082   .     S
C1052  C1053   1.395   .     A
C1053  H1207   1.079   .     S
C1053  C1054   1.395   .     A
C1054  H1208   1.075   .     S
C1054  C1056   1.395   .     A
C1055  O1340   1.284   .     A
C1055  O1351   1.284   .     A
C1055  C1071   1.442   .     S
C1056  H1210   1.078   .     S
C1057  C1062   1.397   .     A
C1057  C1058   1.407   .     A
C1058  H1211   1.083   .     S
C1058  C1059   1.397   .     A
C1059  C1060   1.395   .     A
C1059  H1212   1.082   .     S
C1060  C1061   1.395   .     A
C1060  H1213   1.079   .     S
C1061  H1214   1.075   .     S
C1061  C1062   1.395   .     A
C1062  H1215   1.078   .     S
C1063  C1069   1.400   .     A
C1063  C1064   1.408   .     A
C1064  C1065   1.395   .     A
C1064  H1216   1.083   .     S
C1065  H1217   1.082   .     S
C1065  C1067   1.393   .     A
C1066  O1341   1.284   .     A
C1066  O1348   1.284   .     A
C1066  C1079   1.440   .     S
C1067  H1218   1.079   .     S
C1067  C1068   1.396   .     A
C1068  C1069   1.395   .     A
C1068  H1219   1.075   .     S
C1069  H1221   1.081   .     S
C1070  O1349   1.284   .     A
C1070  C1078   1.440   .     S
C1070  O1342   1.284   .     A
C1071  C1088   1.210   .     T
C1072  C1086   1.210   .     T
C1073  C1085   1.209   .     T
C1074  C1084   1.209   .     T
C1075  C1083   1.210   .     T
C1076  C1106   1.454   .     S
C1076  O1362   1.277   .     A
C1076  O1775   1.277   1_455 S
C1077  C1082   1.210   .     T
C1078  C1081   1.209   .     T
C1079  C1080   1.209   .     T
C1085  C1142   1.440   .     S
C1087  O1823   1.276   1_455 A
C1087  C1107   1.451   .     S
C1087  O1316   1.276   .     S
C1089  C1119   1.418   .     A
C1089  C1566   1.406   .     S
C1090  C1567   1.405   .     A
C1090  C1121   1.418   .     A
C1091  C188    1.405   1_565 A
C1091  C1122   1.418   .     A
C1092  C1123   1.418   .     A
C1092  C190    1.406   1_565 S
C1093  C1115   1.418   .     A
C1093  C1106   1.406   .     A
C1094  C1116   1.418   .     A
C1094  C1107   1.405   .     S
C1095  C1117   1.418   .     A
C1095  C1108   1.405   .     S
C1096  C1118   1.418   .     A
C1096  C1110   1.406   .     A
C1097  C1128   1.418   .     A
C1097  C1111   1.406   .     S
C1098  C1113   1.451   .     S
C1098  O1317   1.276   .     A
C1098  O1321   1.276   .     A
C1099  C1129   1.418   .     A
C1099  C192    1.405   1_565 S
C1100  C1130   1.418   .     A
C1100  C1573   1.405   .     S
C1101  C1132   1.418   .     A
C1101  C1114   1.406   .     S
C1102  C1124   1.418   .     A
C1102  C191    1.406   1_565 A
C1103  C1125   1.418   .     A
C1103  C1112   1.405   .     A
C1104  C1113   1.405   .     A
C1104  C1126   1.418   .     A
C1105  C1127   1.418   .     A
C1105  C1574   1.406   .     A
C1106  C1549   1.406   1_455 S
C1107  C1550   1.405   1_455 A
C1109  C1114   1.454   .     S
C1109  O1318   1.277   .     A
C1109  O1322   1.277   .     S
C1111  C1120   1.454   .     S
C1112  C1131   1.451   .     S
C1113  C1560   1.405   1_455 S
C1114  C1565   1.406   1_455 A
C1115  C1133   1.412   .     A
C1115  C1601   1.413   1_455 S
C1116  C1134   1.411   .     A
C1116  C1603   1.411   1_455 S
C1117  C1135   1.411   .     A
C1118  C1136   1.412   .     A
C1119  C1593   1.412   .     S
C1119  C1606   1.413   .     S
C1120  O1323   1.277   .     A
C1120  O1319   1.277   .     A
C1121  C1594   1.411   .     S
C1121  C1607   1.411   .     S
C1122  C215    1.411   1_565 S
C1122  C228    1.411   1_565 S
C1123  C216    1.412   1_565 S
C1123  C229    1.413   1_565 S
C1124  C217    1.412   1_565 A
C1124  C1150   1.413   .     A
C1125  C1151   1.411   .     A
C1125  C1138   1.411   .     S
C1126  C1152   1.411   .     A
C1126  C1139   1.411   .     S
C1127  C1600   1.412   .     A
C1128  C1137   1.412   .     S
C1129  C218    1.411   1_565 A
C1130  C1599   1.411   .     A
C1131  O1320   1.276   .     S
C1131  O1325   1.276   .     S
C1132  C1140   1.412   .     S
C1133  C1134   1.410   .     A
C1133  C1579   1.412   1_455 S
C1134  C1581   1.411   1_455 S
C1135  C1136   1.410   .     A
C1137  C1138   1.410   1_556 S
C1138  C1137   1.410   1_554 S
C1139  C1590   1.411   1_455 A
C1139  C1140   1.410   1_556 S
C1140  C1587   1.412   1_455 A
C1140  C1139   1.410   1_554 S
C1141  C1575   1.413   .     S
C1141  C1607   1.400   .     S
C1142  O1354   1.284   .     A
C1142  O1326   1.284   .     A
C1143  C1576   1.411   .     S
C1143  C1606   1.400   .     S
C1144  C197    1.411   1_565 S
C1144  C229    1.400   1_565 S
C1145  C198    1.413   1_565 S
C1145  C228    1.400   1_565 S
C1146  C1579   1.413   1_455 S
C1146  C1603   1.400   1_455 S
C1147  C1581   1.411   1_455 S
C1147  C1601   1.400   1_455 S
C1150  C925    1.400   1_556 S
C1151  C924    1.400   1_554 S
C1152  C927    1.400   1_556 S
H1160  C1455   1.081   .     S
H1166  C1462   1.078   .     S
H1171  C88     1.078   1_565 S
H1176  C14     1.109   1_565 S
H1177  C95     1.081   1_565 S
H1187  C14     1.109   1_565 S
H1222  C16     1.110   1_565 S
H1223  C16     1.109   1_565 S
H1225  C1389   1.110   .     S
H1228  C1398   1.110   1_455 S
H1229  C1398   1.109   1_455 S
H1233  C1400   1.109   1_455 S
H1234  C1400   1.109   1_455 S
H1236  C1389   1.109   .     S
H1280  C1391   1.109   .     S
H1291  C1391   1.109   .     S
H1297  C1429   1.081   1_455 S
H1303  C1435   1.078   1_455 S
O1313  Zn1365  1.948   .     S
O1313  Zn1376  1.948   .     S
O1313  Zn1368  1.948   .     S
O1314  Zn1367  1.942   .     S
O1314  C112    1.277   1_565 S
O1315  Zn1370  1.942   .     S
O1315  C1536   1.277   .     S
O1316  Zn1369  1.942   .     S
O1317  Zn1379  1.942   .     S
O1318  Zn1378  1.942   .     S
O1319  Zn1373  1.942   .     S
O1320  Zn1365  1.942   .     S
O1321  Zn1375  1.942   .     S
O1322  Zn1374  1.942   .     S
O1323  Zn1377  1.942   .     S
O1324  Zn1373  1.948   .     S
O1324  Zn1377  1.948   .     S
O1324  Zn1371  1.948   .     S
O1325  Zn1376  1.942   .     S
O1326  Zn1368  1.937   .     S
O1327  Zn1367  1.937   .     S
O1328  Zn1370  1.939   .     S
O1329  Zn1369  1.939   .     S
O1330  Zn1372  1.937   .     S
O1331  Zn1371  1.937   .     S
O1332  Zn1366  1.939   .     S
O1333  Zn1380  1.939   .     S
O1334  Zn1367  1.939   .     S
O1335  Zn1830  1.948   1_455 S
O1335  Zn1378  1.948   .     S
O1335  Zn1366  1.948   .     S
O1335  Zn1374  1.948   .     S
O1336  Zn1368  1.939   .     S
O1337  Zn1380  1.937   .     S
O1338  Zn1366  1.937   .     S
O1339  Zn1371  1.939   .     S
O1340  Zn1372  1.939   .     S
O1341  Zn1369  1.937   .     S
O1342  Zn1370  1.937   .     S
O1343  Zn1835  1.937   .     S
O1344  Zn1374  1.937   .     S
O1345  Zn457   1.939   1_565 S
O1346  Zn1369  1.948   .     S
O1346  Zn1375  1.948   .     S
O1346  Zn1379  1.948   .     S
O1346  Zn1840  1.948   1_455 S
O1347  Zn1376  1.939   .     S
O1348  Zn1379  1.937   .     S
O1349  Zn1838  1.937   .     S
O1350  Zn1373  1.939   .     S
O1351  Zn445   1.939   1_565 S
O1352  Zn1834  1.939   .     S
O1353  Zn1375  1.939   .     S
O1354  Zn1365  1.937   .     S
O1355  Zn453   1.937   1_565 S
O1356  Zn1378  1.939   .     S
O1357  C1      1.276   1_565 A
O1357  Zn1372  1.942   .     S
O1358  Zn1839  1.939   .     S
O1359  Zn456   1.937   1_565 S
O1360  Zn1377  1.937   .     S
O1361  Zn1371  1.942   .     S
O1362  Zn1366  1.942   .     S
O1363  Zn1380  1.942   .     S
O1363  C1547   1.276   .     A
O1364  Zn1368  1.942   .     S
Zn1367 O404    1.948   1_565 S
Zn1370 O1795   1.948   .     S
Zn1372 O393    1.948   1_565 S
Zn1374 O1812   1.939   1_455 S
Zn1375 O1803   1.937   1_455 S
Zn1378 O1809   1.937   1_455 S
Zn1379 O1818   1.939   1_455 S
Zn1380 O1806   1.948   .     S
C1381  C1568   1.451   .     S
C1381  O1824   1.276   .     S
C1382  O1787   1.284   .     A
C1382  C1544   1.440   .     S
C1382  O1815   1.284   .     A
C1383  C1587   1.413   .     A
C1383  C1497   1.481   .     S
C1383  C1386   1.400   1_554 S
C1384  C1588   1.413   .     A
C1384  C1503   1.481   .     S
C1384  C1611   1.400   1_556 S
C1385  C1510   1.480   .     S
C1385  C1589   1.411   .     A
C1385  C1610   1.400   1_554 S
C1386  C1517   1.480   .     S
C1386  C1590   1.411   .     A
C1386  C1383   1.400   1_556 S
C1387  C1592   1.413   .     A
C1387  C1523   1.481   .     S
C1387  C1612   1.400   1_554 S
C1388  C1549   1.527   .     S
C1388  H1707   1.104   .     S
C1388  H1718   1.111   .     S
C1388  C929    1.535   1_655 S
C1389  H1613   1.108   .     S
C1390  H1614   1.111   .     S
C1390  C1550   1.527   .     S
C1390  H1762   1.105   .     S
C1390  C931    1.534   1_655 S
C1391  H1729   1.107   .     S
C1392  C1551   1.527   .     S
C1392  H1669   1.111   .     S
C1392  H1658   1.105   .     S
C1392  C474    1.534   1_565 S
C1393  O1788   1.284   .     A
C1393  O1812   1.284   .     A
C1393  C1543   1.442   .     S
C1394  H1625   1.107   .     S
C1395  C1552   1.527   .     S
C1395  H1686   1.111   .     S
C1395  H1684   1.104   .     S
C1395  C476    1.535   1_565 S
C1396  H1680   1.108   .     S
C1397  C1553   1.527   .     S
C1397  H1691   1.111   .     S
C1397  H1690   1.104   .     S
C1398  H1687   1.108   .     S
C1398  C937    1.535   1_655 S
C1398  H1228   1.110   1_655 S
C1398  H1229   1.109   1_655 S
C1399  C1554   1.527   .     S
C1399  H1697   1.111   .     S
C1399  H1695   1.105   .     S
C1400  H1692   1.107   .     S
C1400  C939    1.534   1_655 S
C1400  H1233   1.109   1_655 S
C1400  H1234   1.109   1_655 S
C1401  H1701   1.104   .     S
C1401  C1555   1.527   .     S
C1401  H1702   1.111   .     S
C1402  H1698   1.107   .     S
C1402  C481    1.534   1_565 S
C1402  H779    1.109   1_565 S
C1402  H780    1.109   1_565 S
C1403  C1556   1.527   .     S
C1403  H1708   1.111   .     S
C1403  H1706   1.104   .     S
C1404  O1789   1.284   .     A
C1404  O1813   1.284   .     A
C1404  C1542   1.442   .     S
C1405  H1703   1.108   .     S
C1405  C483    1.535   1_565 S
C1405  H784    1.110   1_565 S
C1405  H785    1.109   1_565 S
C1406  C1407   1.535   .     S
C1406  H1712   1.104   .     S
C1406  H1713   1.111   .     S
C1406  C1557   1.527   .     S
C1407  H1710   1.110   .     S
C1407  H1711   1.109   .     S
C1407  H1709   1.108   .     S
C1408  H1717   1.104   .     S
C1408  H1719   1.111   .     S
C1408  C1409   1.534   .     S
C1408  C1559   1.527   .     S
C1409  H1715   1.109   .     S
C1409  H1714   1.107   .     S
C1409  H1716   1.109   .     S
C1410  H1723   1.105   .     S
C1410  C1560   1.527   .     S
C1410  H1724   1.111   .     S
C1410  C1411   1.534   .     S
C1411  H1722   1.109   .     S
C1411  H1721   1.109   .     S
C1411  H1720   1.107   .     S
C1412  H1728   1.104   .     S
C1412  C1413   1.535   .     S
C1412  C1561   1.527   .     S
C1412  H1730   1.111   .     S
C1413  H1726   1.110   .     S
C1413  H1725   1.108   .     S
C1413  H1727   1.109   .     S
C1414  H1734   1.104   .     S
C1414  C1416   1.535   .     S
C1414  H1735   1.111   .     S
C1414  C1562   1.527   .     S
C1415  C1541   1.440   .     S
C1415  O1790   1.284   .     A
C1415  O1819   1.284   .     A
C1416  H1732   1.110   .     S
C1416  H1733   1.109   .     S
C1416  H1731   1.108   .     S
C1417  H1741   1.111   .     S
C1417  C1418   1.534   .     S
C1417  H1739   1.105   .     S
C1417  C1563   1.527   .     S
C1418  H1737   1.109   .     S
C1418  H1738   1.109   .     S
C1418  H1736   1.107   .     S
C1419  C1564   1.527   .     S
C1419  H1746   1.111   .     S
C1419  C1420   1.534   .     S
C1419  H1745   1.105   .     S
C1420  H1742   1.107   .     S
C1420  H1744   1.109   .     S
C1420  H1743   1.109   .     S
C1421  H1750   1.104   .     S
C1421  C1422   1.535   .     S
C1421  H1752   1.111   .     S
C1421  C1565   1.527   .     S
C1422  H1749   1.109   .     S
C1422  H1747   1.108   .     S
C1422  H1748   1.110   .     S
C1423  C1429   1.400   .     A
C1423  C1601   1.481   .     S
C1423  C1424   1.408   .     A
C1424  H1753   1.083   .     S
C1424  C1425   1.395   .     A
C1425  C1427   1.393   .     A
C1425  H1754   1.082   .     S
C1426  C1540   1.440   .     S
C1426  O1791   1.284   .     A
C1426  O1820   1.284   .     A
C1427  H1755   1.079   .     S
C1427  C1428   1.396   .     A
C1428  H1756   1.075   .     S
C1428  C1429   1.395   .     A
C1429  H1297   1.081   1_655 S
C1430  C1603   1.480   .     S
C1430  C1431   1.407   .     A
C1430  C1435   1.397   .     A
C1431  C1432   1.397   .     A
C1431  H1758   1.083   .     S
C1432  H1759   1.082   .     S
C1432  C1433   1.395   .     A
C1433  C1434   1.395   .     A
C1433  H1760   1.079   .     S
C1434  H1761   1.075   .     S
C1434  C1435   1.395   .     A
C1435  H1303   1.078   1_655 S
C1436  C1442   1.397   .     A
C1436  C1438   1.407   .     A
C1436  C1604   1.480   .     S
C1437  C1548   1.442   .     S
C1437  O1816   1.284   .     A
C1437  O1792   1.284   .     A
C1438  H1764   1.083   .     S
C1438  C1439   1.397   .     A
C1439  C1440   1.395   .     A
C1439  H1765   1.082   .     S
C1440  H1766   1.079   .     S
C1440  C1441   1.395   .     A
C1441  C1442   1.395   .     A
C1441  H1767   1.075   .     S
C1442  H848    1.078   1_565 S
C1443  C1605   1.481   .     S
C1443  C1449   1.400   .     A
C1443  C1444   1.408   .     A
C1444  H1769   1.083   .     S
C1444  C1445   1.395   .     A
C1445  H1770   1.082   .     S
C1445  C1446   1.393   .     A
C1446  C1447   1.396   .     A
C1446  H1771   1.079   .     S
C1447  H1772   1.075   .     S
C1447  C1449   1.395   .     A
C1448  O1793   1.284   .     A
C1448  O1818   1.284   .     A
C1448  C1546   1.442   .     S
C1449  H695    1.081   1_565 S
C1450  C1606   1.481   .     S
C1450  C1455   1.400   .     A
C1450  C1451   1.408   .     A
C1451  C1452   1.395   .     A
C1451  H1616   1.083   .     S
C1452  C1453   1.393   .     A
C1452  H1617   1.082   .     S
C1453  C1454   1.396   .     A
C1453  H1618   1.079   .     S
C1454  H1619   1.075   .     S
C1454  C1455   1.395   .     A
C1456  C1462   1.397   .     A
C1456  C1607   1.480   .     S
C1456  C1457   1.407   .     A
C1457  H1621   1.083   .     S
C1457  C1458   1.397   .     A
C1458  C1460   1.395   .     A
C1458  H1622   1.082   .     S
C1459  O1805   1.284   .     A
C1459  C1537   1.442   .     S
C1459  O1794   1.284   .     A
C1460  H1623   1.079   .     S
C1460  C1461   1.395   .     A
C1461  H1624   1.075   .     S
C1461  C1462   1.395   .     A
C1463  C1468   1.397   .     A
C1463  C1608   1.480   .     S
C1463  C1464   1.407   .     A
C1464  H1627   1.083   .     S
C1464  C1465   1.397   .     A
C1465  H1628   1.082   .     S
C1465  C1466   1.395   .     A
C1466  H1629   1.079   .     S
C1466  C1467   1.395   .     A
C1467  H1630   1.075   .     S
C1467  C1468   1.395   .     A
C1469  C1471   1.408   .     A
C1469  C1475   1.400   .     A
C1469  C1609   1.481   .     S
C1470  O1796   1.284   .     A
C1470  O1807   1.284   .     A
C1470  C1535   1.442   .     S
C1471  H1632   1.083   .     S
C1471  C1472   1.395   .     A
C1472  H1633   1.082   .     S
C1472  C1473   1.393   .     A
C1473  H1634   1.079   .     S
C1473  C1474   1.396   .     A
C1474  C1475   1.395   .     A
C1474  H1635   1.075   .     S
C1476  C1482   1.400   .     A
C1476  C1610   1.481   .     S
C1476  C1477   1.408   .     A
C1477  C1478   1.395   .     A
C1477  H1638   1.083   .     S
C1478  C1479   1.393   .     A
C1478  H1639   1.082   .     S
C1479  C1480   1.396   .     A
C1479  H1640   1.079   .     S
C1480  H1641   1.075   .     S
C1480  C1482   1.395   .     A
C1481  O1797   1.284   .     A
C1481  C1534   1.440   .     S
C1481  O1803   1.284   .     A
C1482  H1642   1.081   .     S
C1483  C1611   1.480   .     S
C1483  C1484   1.407   .     A
C1483  C1488   1.397   .     A
C1484  C1485   1.397   .     A
C1484  H1643   1.083   .     S
C1485  C1486   1.395   .     A
C1485  H1644   1.082   .     S
C1486  C1487   1.395   .     A
C1486  H1645   1.079   .     S
C1487  C1488   1.395   .     A
C1487  H1646   1.075   .     S
C1488  H1648   1.078   .     S
C1489  C1612   1.480   .     S
C1489  C1496   1.397   .     A
C1489  C1490   1.407   .     A
C1490  C1491   1.397   .     A
C1490  H1649   1.083   .     S
C1491  H1650   1.082   .     S
C1491  C1494   1.395   .     A
C1492  C1570   1.454   .     S
C1492  O1821   1.277   .     A
C1493  O1798   1.284   .     A
C1493  O1804   1.284   .     A
C1493  C1533   1.440   .     S
C1494  H1651   1.079   .     S
C1494  C1495   1.395   .     A
C1495  H1652   1.075   .     S
C1495  C1496   1.395   .     A
C1496  H1653   1.078   .     S
C1497  C1502   1.400   .     A
C1497  C1498   1.408   .     A
C1498  H1654   1.083   .     S
C1498  C1499   1.395   .     A
C1499  C1500   1.393   .     A
C1499  H1655   1.082   .     S
C1500  H1656   1.079   .     S
C1500  C1501   1.396   .     A
C1501  H1657   1.075   .     S
C1501  C1502   1.395   .     A
C1502  H1659   1.081   .     S
C1503  C1505   1.408   .     A
C1503  C1509   1.400   .     A
C1504  C1532   1.442   .     S
C1504  O1810   1.284   .     A
C1504  O1799   1.284   .     A
C1505  H1660   1.083   .     S
C1505  C1506   1.395   .     A
C1506  C1507   1.393   .     A
C1506  H1661   1.082   .     S
C1507  H1662   1.079   .     S
C1507  C1508   1.396   .     A
C1508  C1509   1.395   .     A
C1508  H1663   1.075   .     S
C1509  H1664   1.081   .     S
C1510  C1511   1.407   .     A
C1510  C1516   1.397   .     A
C1511  H1665   1.083   .     S
C1511  C1512   1.397   .     A
C1512  H1666   1.082   .     S
C1512  C1513   1.395   .     A
C1513  H1667   1.079   .     S
C1513  C1514   1.395   .     A
C1514  H1668   1.075   .     S
C1514  C1516   1.395   .     A
C1515  O1800   1.284   .     A
C1515  O1811   1.284   .     A
C1515  C1531   1.442   .     S
C1516  H1670   1.078   .     S
C1517  C1522   1.397   .     A
C1517  C1518   1.407   .     A
C1518  H1671   1.083   .     S
C1518  C1519   1.397   .     A
C1519  C1520   1.395   .     A
C1519  H1672   1.082   .     S
C1520  C1521   1.395   .     A
C1520  H1673   1.079   .     S
C1521  H1674   1.075   .     S
C1521  C1522   1.395   .     A
C1522  H1675   1.078   .     S
C1523  C1529   1.400   .     A
C1523  C1524   1.408   .     A
C1524  C1525   1.395   .     A
C1524  H1676   1.083   .     S
C1525  H1677   1.082   .     S
C1525  C1527   1.393   .     A
C1526  O1801   1.284   .     A
C1526  O1808   1.284   .     A
C1526  C1539   1.440   .     S
C1527  H1678   1.079   .     S
C1527  C1528   1.396   .     A
C1528  C1529   1.395   .     A
C1528  H1679   1.075   .     S
C1529  H1681   1.081   .     S
C1530  O1809   1.284   .     A
C1530  C1538   1.440   .     S
C1530  O1802   1.284   .     A
C1531  C1548   1.210   .     T
C1532  C1546   1.210   .     T
C1533  C1545   1.209   .     T
C1534  C1544   1.209   .     T
C1535  C1543   1.210   .     T
C1536  C1566   1.454   .     S
C1536  O1822   1.277   .     A
C1537  C1542   1.210   .     T
C1538  C1541   1.209   .     T
C1539  C1540   1.209   .     T
C1545  C1602   1.440   .     S
C1547  C1567   1.451   .     S
C1547  O1776   1.276   .     S
C1549  C1579   1.418   .     A
C1549  C1106   1.406   1_655 S
C1550  C1107   1.405   1_655 A
C1550  C1581   1.418   .     A
C1551  C648    1.405   1_565 A
C1551  C1582   1.418   .     A
C1552  C1583   1.418   .     A
C1552  C650    1.406   1_565 S
C1553  C1575   1.418   .     A
C1553  C1566   1.406   .     A
C1554  C1576   1.418   .     A
C1554  C1567   1.405   .     S
C1555  C1577   1.418   .     A
C1555  C1568   1.405   .     S
C1556  C1578   1.418   .     A
C1556  C1570   1.406   .     A
C1557  C1588   1.418   .     A
C1557  C1571   1.406   .     S
C1558  C1573   1.451   .     S
C1558  O1777   1.276   .     A
C1558  O1781   1.276   .     A
C1559  C1589   1.418   .     A
C1559  C652    1.405   1_565 S
C1560  C1590   1.418   .     A
C1560  C1113   1.405   1_655 S
C1561  C1592   1.418   .     A
C1561  C1574   1.406   .     S
C1562  C1584   1.418   .     A
C1562  C651    1.406   1_565 A
C1563  C1585   1.418   .     A
C1563  C1572   1.405   .     A
C1564  C1573   1.405   .     A
C1564  C1586   1.418   .     A
C1565  C1587   1.418   .     A
C1565  C1114   1.406   1_655 A
C1569  C1574   1.454   .     S
C1569  O1778   1.277   .     A
C1569  O1782   1.277   .     S
C1571  C1580   1.454   .     S
C1572  C1591   1.451   .     S
C1575  C1593   1.412   .     A
C1576  C1594   1.411   .     A
C1577  C1595   1.411   .     A
C1578  C1596   1.412   .     A
C1579  C1133   1.412   1_655 S
C1579  C1146   1.413   1_655 S
C1580  O1783   1.277   .     A
C1580  O1779   1.277   .     A
C1581  C1134   1.411   1_655 S
C1581  C1147   1.411   1_655 S
C1582  C675    1.411   1_565 S
C1582  C688    1.411   1_565 S
C1583  C676    1.412   1_565 S
C1583  C689    1.413   1_565 S
C1584  C677    1.412   1_565 A
C1584  C1610   1.413   .     A
C1585  C1611   1.411   .     A
C1585  C1598   1.411   .     S
C1586  C1612   1.411   .     A
C1586  C1599   1.411   .     S
C1587  C1140   1.412   1_655 A
C1588  C1597   1.412   .     S
C1589  C678    1.411   1_565 A
C1590  C1139   1.411   1_655 A
C1591  O1780   1.276   .     S
C1591  O1785   1.276   .     S
C1592  C1600   1.412   .     S
C1593  C1594   1.410   .     A
C1595  C1596   1.410   .     A
C1597  C1598   1.410   1_556 S
C1598  C1597   1.410   1_554 S
C1599  C1600   1.410   1_556 S
C1600  C1599   1.410   1_554 S
C1601  C1115   1.413   1_655 S
C1601  C1147   1.400   1_655 S
C1602  O1814   1.284   .     A
C1602  O1786   1.284   .     A
C1603  C1116   1.411   1_655 S
C1603  C1146   1.400   1_655 S
C1604  C657    1.411   1_565 S
C1604  C689    1.400   1_565 S
C1605  C658    1.413   1_565 S
C1605  C688    1.400   1_565 S
C1610  C1385   1.400   1_556 S
C1611  C1384   1.400   1_554 S
C1612  C1387   1.400   1_556 S
H1620  C995    1.081   1_655 S
H1626  C1002   1.078   1_655 S
H1631  C548    1.078   1_565 S
H1636  C474    1.109   1_565 S
H1637  C555    1.081   1_565 S
H1647  C474    1.109   1_565 S
H1682  C476    1.110   1_565 S
H1683  C476    1.109   1_565 S
H1685  C929    1.110   1_655 S
H1696  C929    1.109   1_655 S
H1740  C931    1.109   1_655 S
H1751  C931    1.109   1_655 S
O1773  Zn1825  1.948   .     S
O1773  Zn1836  1.948   .     S
O1773  Zn1828  1.948   .     S
O1774  Zn1827  1.942   .     S
O1774  C572    1.277   1_565 S
O1775  Zn1830  1.942   .     S
O1775  C1076   1.277   1_655 S
O1776  Zn1829  1.942   .     S
O1777  Zn1839  1.942   .     S
O1778  Zn1838  1.942   .     S
O1779  Zn1833  1.942   .     S
O1780  Zn1825  1.942   .     S
O1781  Zn1835  1.942   .     S
O1782  Zn1834  1.942   .     S
O1783  Zn1837  1.942   .     S
O1784  Zn1833  1.948   .     S
O1784  Zn1837  1.948   .     S
O1784  Zn1831  1.948   .     S
O1785  Zn1836  1.942   .     S
O1786  Zn1828  1.937   .     S
O1787  Zn1827  1.937   .     S
O1788  Zn1830  1.939   .     S
O1789  Zn1829  1.939   .     S
O1790  Zn1832  1.937   .     S
O1791  Zn1831  1.937   .     S
O1792  Zn1826  1.939   .     S
O1793  Zn1840  1.939   .     S
O1794  Zn1827  1.939   .     S
O1795  Zn1838  1.948   .     S
O1795  Zn1826  1.948   .     S
O1795  Zn1834  1.948   .     S
O1796  Zn1828  1.939   .     S
O1797  Zn1840  1.937   .     S
O1798  Zn1826  1.937   .     S
O1799  Zn1831  1.939   .     S
O1800  Zn1832  1.939   .     S
O1801  Zn1829  1.937   .     S
O1802  Zn1830  1.937   .     S
O1803  Zn1375  1.937   1_655 S
O1804  Zn1834  1.937   .     S
O1805  Zn917   1.939   1_565 S
O1806  Zn1829  1.948   .     S
O1806  Zn1835  1.948   .     S
O1806  Zn1839  1.948   .     S
O1807  Zn1836  1.939   .     S
O1808  Zn1839  1.937   .     S
O1809  Zn1378  1.937   1_655 S
O1810  Zn1833  1.939   .     S
O1811  Zn905   1.939   1_565 S
O1812  Zn1374  1.939   1_655 S
O1813  Zn1835  1.939   .     S
O1814  Zn1825  1.937   .     S
O1815  Zn913   1.937   1_565 S
O1816  Zn1838  1.939   .     S
O1817  C461    1.276   1_565 A
O1817  Zn1832  1.942   .     S
O1818  Zn1379  1.939   1_655 S
O1819  Zn916   1.937   1_565 S
O1820  Zn1837  1.937   .     S
O1821  Zn1831  1.942   .     S
O1822  Zn1826  1.942   .     S
O1823  Zn1840  1.942   .     S
O1823  C1087   1.276   1_655 A
O1824  Zn1828  1.942   .     S
Zn1827 O864    1.948   1_565 S
Zn1830 O1335   1.948   1_655 S
Zn1832 O853    1.948   1_565 S
Zn1840 O1346   1.948   1_655 S
