data_str_m1_o1_o17_pcu_sym.43
_audit_creation_date              2020-01-03
_audit_creation_method            'Materials Studio'
_symmetry_space_group_name_H-M    'P1'
_symmetry_Int_Tables_number       1
_symmetry_cell_setting            triclinic
loop_
_symmetry_equiv_pos_as_xyz
  x,y,z
_cell_length_a                    36.6384
_cell_length_b                    36.6391
_cell_length_c                    34.4453
_cell_angle_alpha                 90.0001
_cell_angle_beta                  90.0002
_cell_angle_gamma                 90.0026
loop_
_atom_site_label
_atom_site_type_symbol
_atom_site_fract_x
_atom_site_fract_y
_atom_site_fract_z
_atom_site_U_iso_or_equiv
_atom_site_adp_type
_atom_site_occupancy
C1     C     0.46687   0.24790   0.41881   0.00000  Uiso   1.00
C2     C     0.21691   0.49736   0.08119   0.00000  Uiso   1.00
C3     C     0.24739   0.46668   0.54071   0.00000  Uiso   1.00
C4     C     0.46664   0.24787   0.45929   0.00000  Uiso   1.00
C5     C     0.03336   0.25213   0.54071   0.00000  Uiso   1.00
C6     C     0.24739   0.46668   0.45929   0.00000  Uiso   1.00
C7     C     0.25261   0.03332   0.54071   0.00000  Uiso   1.00
C8     C     0.21668   0.49732   0.95929   0.00000  Uiso   1.00
C9     C     0.28332   0.00268   0.04071   0.00000  Uiso   1.00
C10    C     0.49726   0.21669   0.95929   0.00000  Uiso   1.00
C11    C     0.00274   0.28331   0.04071   0.00000  Uiso   1.00
C12    C     0.28332   0.00268   0.95929   0.00000  Uiso   1.00
C13    C     0.00270   0.28308   0.91881   0.00000  Uiso   1.00
C14    C     0.21668   0.49732   0.04071   0.00000  Uiso   1.00
C15    C     0.00274   0.28331   0.95929   0.00000  Uiso   1.00
C16    C     0.49726   0.21669   0.04071   0.00000  Uiso   1.00
C17    C     0.09807   0.34807   0.25000   0.00000  Uiso   1.00
C18    C     0.40193   0.15193   0.75000   0.00000  Uiso   1.00
C19    C     0.15193   0.09807   0.25000   0.00000  Uiso   1.00
C20    C     0.34807   0.40193   0.75000   0.00000  Uiso   1.00
C21    C     0.40193   0.15193   0.25000   0.00000  Uiso   1.00
C22    C     0.09807   0.34807   0.75000   0.00000  Uiso   1.00
C23    C     0.34807   0.40193   0.25000   0.00000  Uiso   1.00
C24    C     0.49730   0.21692   0.08119   0.00000  Uiso   1.00
C25    C     0.15193   0.09807   0.75000   0.00000  Uiso   1.00
C26    C     0.09807   0.15193   0.75000   0.00000  Uiso   1.00
C27    C     0.40193   0.34807   0.25000   0.00000  Uiso   1.00
C28    C     0.15193   0.40193   0.75000   0.00000  Uiso   1.00
C29    C     0.34807   0.09807   0.25000   0.00000  Uiso   1.00
C30    C     0.40193   0.34807   0.75000   0.00000  Uiso   1.00
C31    C     0.09807   0.15193   0.25000   0.00000  Uiso   1.00
C32    C     0.34807   0.09807   0.75000   0.00000  Uiso   1.00
C33    C     0.15193   0.40193   0.25000   0.00000  Uiso   1.00
C34    C     0.00000   0.25000   0.47963   0.00000  Uiso   1.00
C35    C     0.21691   0.49736   0.91881   0.00000  Uiso   1.00
C36    C     0.00000   0.25000   0.52037   0.00000  Uiso   1.00
C37    C     0.25000   0.00000   0.47963   0.00000  Uiso   1.00
C38    C     0.25000   0.00000   0.52037   0.00000  Uiso   1.00
C39    C     0.25000   0.00000   0.97963   0.00000  Uiso   1.00
C40    C     0.25000   0.00000   0.02037   0.00000  Uiso   1.00
C41    C     0.00000   0.25000   0.97963   0.00000  Uiso   1.00
C42    C     0.00000   0.25000   0.02037   0.00000  Uiso   1.00
C43    C     0.15829   0.39655   0.17831   0.00000  Uiso   1.00
C44    C     0.34170   0.10347   0.82169   0.00000  Uiso   1.00
C45    C     0.04991   0.10476   0.25877   0.00000  Uiso   1.00
C46    C     0.28309   0.00264   0.08119   0.00000  Uiso   1.00
C47    C     0.45009   0.39524   0.74124   0.00000  Uiso   1.00
C48    C     0.34172   0.10345   0.17831   0.00000  Uiso   1.00
C49    C     0.15830   0.39654   0.82169   0.00000  Uiso   1.00
C50    C     0.45009   0.39524   0.25878   0.00000  Uiso   1.00
C51    C     0.04991   0.10476   0.74125   0.00000  Uiso   1.00
C52    C     0.10476   0.04992   0.74125   0.00000  Uiso   1.00
C53    C     0.39524   0.45008   0.25878   0.00000  Uiso   1.00
C54    C     0.10346   0.34170   0.82169   0.00000  Uiso   1.00
C55    C     0.39655   0.15828   0.17831   0.00000  Uiso   1.00
C56    C     0.39524   0.45008   0.74124   0.00000  Uiso   1.00
C57    C     0.49730   0.21692   0.91881   0.00000  Uiso   1.00
C58    C     0.10476   0.04992   0.25877   0.00000  Uiso   1.00
C59    C     0.39653   0.15830   0.82169   0.00000  Uiso   1.00
C60    C     0.10345   0.34172   0.17831   0.00000  Uiso   1.00
C61    C     0.40830   0.14653   0.67831   0.00000  Uiso   1.00
C62    C     0.09172   0.35345   0.32169   0.00000  Uiso   1.00
C63    C     0.29991   0.35476   0.75876   0.00000  Uiso   1.00
C64    C     0.20009   0.14524   0.24123   0.00000  Uiso   1.00
C65    C     0.09170   0.35347   0.67831   0.00000  Uiso   1.00
C66    C     0.40828   0.14655   0.32169   0.00000  Uiso   1.00
C67    C     0.20009   0.14524   0.75875   0.00000  Uiso   1.00
C68    C     0.00270   0.28308   0.08119   0.00000  Uiso   1.00
C69    C     0.29992   0.35476   0.24122   0.00000  Uiso   1.00
C70    C     0.35476   0.29992   0.24123   0.00000  Uiso   1.00
C71    C     0.14524   0.20009   0.75875   0.00000  Uiso   1.00
C72    C     0.35345   0.09172   0.32169   0.00000  Uiso   1.00
C73    C     0.14654   0.40830   0.67831   0.00000  Uiso   1.00
C74    C     0.14524   0.20008   0.24123   0.00000  Uiso   1.00
C75    C     0.35476   0.29992   0.75876   0.00000  Uiso   1.00
C76    C     0.14655   0.40829   0.32169   0.00000  Uiso   1.00
C77    C     0.35347   0.09170   0.67831   0.00000  Uiso   1.00
C78    C     0.00000   0.25000   0.39847   0.00000  Uiso   1.00
C79    C     0.00000   0.25000   0.60153   0.00000  Uiso   1.00
C80    C     0.25000   0.00000   0.39847   0.00000  Uiso   1.00
C81    C     0.03313   0.25210   0.58119   0.00000  Uiso   1.00
C82    C     0.25000   0.00000   0.60153   0.00000  Uiso   1.00
C83    C     0.25000   0.00000   0.89847   0.00000  Uiso   1.00
C84    C     0.25000   0.00000   0.10153   0.00000  Uiso   1.00
C85    C     0.00000   0.25000   0.89847   0.00000  Uiso   1.00
C86    C     0.00000   0.25000   0.10153   0.00000  Uiso   1.00
C87    C     0.06636   0.25426   0.47976   0.00000  Uiso   1.00
C88    C     0.43364   0.24574   0.52025   0.00000  Uiso   1.00
C89    C     0.25521   0.06629   0.47975   0.00000  Uiso   1.00
C90    C     0.24479   0.43371   0.52025   0.00000  Uiso   1.00
C91    C     0.43364   0.24574   0.47975   0.00000  Uiso   1.00
C92    C     0.24743   0.46691   0.41881   0.00000  Uiso   1.00
C93    C     0.06636   0.25426   0.52025   0.00000  Uiso   1.00
C94    C     0.24479   0.43371   0.47975   0.00000  Uiso   1.00
C95    C     0.25521   0.06629   0.52025   0.00000  Uiso   1.00
C96    C     0.18372   0.49464   0.97975   0.00000  Uiso   1.00
C97    C     0.31628   0.00536   0.02025   0.00000  Uiso   1.00
C98    C     0.49453   0.18373   0.97975   0.00000  Uiso   1.00
C99    C     0.00547   0.31627   0.02025   0.00000  Uiso   1.00
C100   C     0.31628   0.00536   0.97976   0.00000  Uiso   1.00
C101   C     0.18372   0.49464   0.02025   0.00000  Uiso   1.00
C102   C     0.00547   0.31627   0.97975   0.00000  Uiso   1.00
C103   C     0.25257   0.03309   0.58119   0.00000  Uiso   1.00
C104   C     0.49453   0.18373   0.02025   0.00000  Uiso   1.00
C105   C     0.25000   0.00000   0.35599   0.00000  Uiso   1.00
C106   C     0.25000   0.00000   0.64401   0.00000  Uiso   1.00
C107   C     0.00000   0.25000   0.35599   0.00000  Uiso   1.00
C108   C     0.00000   0.25000   0.64401   0.00000  Uiso   1.00
C109   C     0.00000   0.25000   0.85599   0.00000  Uiso   1.00
C110   C     0.00000   0.25000   0.14401   0.00000  Uiso   1.00
C111   C     0.25000   0.00000   0.85599   0.00000  Uiso   1.00
C112   C     0.25000   0.00000   0.14401   0.00000  Uiso   1.00
C113   C     0.18004   0.06996   0.25000   0.00000  Uiso   1.00
C114   C     0.03313   0.25210   0.41881   0.00000  Uiso   1.00
C115   C     0.31996   0.43004   0.75000   0.00000  Uiso   1.00
C116   C     0.43004   0.18004   0.25000   0.00000  Uiso   1.00
C117   C     0.06996   0.31996   0.75000   0.00000  Uiso   1.00
C118   C     0.31996   0.43004   0.25000   0.00000  Uiso   1.00
C119   C     0.18004   0.06996   0.75000   0.00000  Uiso   1.00
C120   C     0.06996   0.31996   0.25000   0.00000  Uiso   1.00
C121   C     0.43004   0.18004   0.75000   0.00000  Uiso   1.00
C122   C     0.18004   0.43004   0.75000   0.00000  Uiso   1.00
C123   C     0.31996   0.06996   0.25000   0.00000  Uiso   1.00
C124   C     0.43004   0.31996   0.75000   0.00000  Uiso   1.00
C125   C     0.46687   0.24790   0.58119   0.00000  Uiso   1.00
C126   C     0.06996   0.18004   0.25000   0.00000  Uiso   1.00
C127   C     0.31996   0.06996   0.75000   0.00000  Uiso   1.00
C128   C     0.18004   0.43004   0.25000   0.00000  Uiso   1.00
C129   C     0.06996   0.18004   0.75000   0.00000  Uiso   1.00
C130   C     0.43004   0.31996   0.25000   0.00000  Uiso   1.00
C131   C     0.14096   0.38605   0.21458   0.00000  Uiso   1.00
C132   C     0.35903   0.11396   0.78542   0.00000  Uiso   1.00
C133   C     0.08795   0.11496   0.25365   0.00000  Uiso   1.00
C134   C     0.41206   0.38504   0.74635   0.00000  Uiso   1.00
C135   C     0.35904   0.11395   0.21458   0.00000  Uiso   1.00
C136   C     0.25257   0.03309   0.41881   0.00000  Uiso   1.00
C137   C     0.14097   0.38604   0.78542   0.00000  Uiso   1.00
C138   C     0.41205   0.38504   0.25366   0.00000  Uiso   1.00
C139   C     0.08794   0.11496   0.74636   0.00000  Uiso   1.00
C140   C     0.11496   0.08795   0.74636   0.00000  Uiso   1.00
C141   C     0.38504   0.41205   0.25366   0.00000  Uiso   1.00
C142   C     0.11396   0.35904   0.78542   0.00000  Uiso   1.00
C143   C     0.38605   0.14096   0.21458   0.00000  Uiso   1.00
C144   C     0.38504   0.41205   0.74635   0.00000  Uiso   1.00
C145   C     0.11496   0.08795   0.25365   0.00000  Uiso   1.00
C146   C     0.38604   0.14097   0.78542   0.00000  Uiso   1.00
C147   C     0.24743   0.46691   0.58119   0.00000  Uiso   1.00
C148   C     0.11395   0.35904   0.21458   0.00000  Uiso   1.00
C149   C     0.39097   0.13604   0.71458   0.00000  Uiso   1.00
C150   C     0.10904   0.36395   0.28542   0.00000  Uiso   1.00
C151   C     0.33795   0.36496   0.75365   0.00000  Uiso   1.00
C152   C     0.16205   0.13504   0.24635   0.00000  Uiso   1.00
C153   C     0.10903   0.36396   0.71458   0.00000  Uiso   1.00
C154   C     0.39096   0.13605   0.28542   0.00000  Uiso   1.00
C155   C     0.16206   0.13504   0.75364   0.00000  Uiso   1.00
C156   C     0.33795   0.36496   0.24635   0.00000  Uiso   1.00
C157   C     0.36496   0.33795   0.24635   0.00000  Uiso   1.00
C158   C     0.28309   0.00264   0.91881   0.00000  Uiso   1.00
C159   C     0.13505   0.16205   0.75364   0.00000  Uiso   1.00
C160   C     0.36395   0.10904   0.28542   0.00000  Uiso   1.00
C161   C     0.13604   0.39096   0.71458   0.00000  Uiso   1.00
C162   C     0.13504   0.16205   0.24635   0.00000  Uiso   1.00
C163   C     0.36496   0.33795   0.75365   0.00000  Uiso   1.00
C164   C     0.13605   0.39096   0.28542   0.00000  Uiso   1.00
C165   C     0.36396   0.10903   0.71458   0.00000  Uiso   1.00
C166   C     0.03336   0.25213   0.45929   0.00000  Uiso   1.00
C167   C     0.46664   0.24787   0.54071   0.00000  Uiso   1.00
C168   C     0.25261   0.03332   0.45929   0.00000  Uiso   1.00
H169   H     0.09215   0.25591   0.46445   0.00000  Uiso   1.00
H170   H     0.34204   0.00745   0.03556   0.00000  Uiso   1.00
H171   H     0.49240   0.15798   0.96445   0.00000  Uiso   1.00
H172   H     0.00760   0.34202   0.03555   0.00000  Uiso   1.00
H173   H     0.34204   0.00745   0.96445   0.00000  Uiso   1.00
H174   H     0.15796   0.49255   0.03555   0.00000  Uiso   1.00
H175   H     0.00760   0.34202   0.96445   0.00000  Uiso   1.00
H176   H     0.49240   0.15798   0.03555   0.00000  Uiso   1.00
H177   H     0.44124   0.24620   0.40318   0.00000  Uiso   1.00
H178   H     0.05876   0.25379   0.59682   0.00000  Uiso   1.00
H179   H     0.24536   0.44130   0.40318   0.00000  Uiso   1.00
H180   H     0.40785   0.24409   0.53555   0.00000  Uiso   1.00
H181   H     0.25464   0.05870   0.59682   0.00000  Uiso   1.00
H182   H     0.05876   0.25379   0.40318   0.00000  Uiso   1.00
H183   H     0.44124   0.24620   0.59682   0.00000  Uiso   1.00
H184   H     0.25464   0.05870   0.40318   0.00000  Uiso   1.00
H185   H     0.24536   0.44130   0.59682   0.00000  Uiso   1.00
H186   H     0.30869   0.00477   0.90318   0.00000  Uiso   1.00
H187   H     0.19131   0.49523   0.09682   0.00000  Uiso   1.00
H188   H     0.00487   0.30868   0.90318   0.00000  Uiso   1.00
H189   H     0.49513   0.19132   0.09682   0.00000  Uiso   1.00
H190   H     0.19131   0.49523   0.90318   0.00000  Uiso   1.00
H191   H     0.25724   0.09205   0.46445   0.00000  Uiso   1.00
H192   H     0.30869   0.00477   0.09682   0.00000  Uiso   1.00
H193   H     0.49513   0.19132   0.90318   0.00000  Uiso   1.00
H194   H     0.00487   0.30868   0.09682   0.00000  Uiso   1.00
H195   H     0.24276   0.40795   0.53555   0.00000  Uiso   1.00
H196   H     0.40785   0.24409   0.46445   0.00000  Uiso   1.00
H197   H     0.09215   0.25591   0.53555   0.00000  Uiso   1.00
H198   H     0.24276   0.40795   0.46445   0.00000  Uiso   1.00
H199   H     0.25724   0.09205   0.53555   0.00000  Uiso   1.00
H200   H     0.15796   0.49255   0.96445   0.00000  Uiso   1.00
N201   N     0.17209   0.40492   0.14943   0.00000  Uiso   1.00
N202   N     0.40334   0.48038   0.26286   0.00000  Uiso   1.00
N203   N     0.09510   0.32789   0.85057   0.00000  Uiso   1.00
N204   N     0.40493   0.17209   0.14943   0.00000  Uiso   1.00
N205   N     0.40334   0.48038   0.73716   0.00000  Uiso   1.00
N206   N     0.09666   0.01962   0.26285   0.00000  Uiso   1.00
N207   N     0.40490   0.17212   0.85057   0.00000  Uiso   1.00
N208   N     0.09507   0.32791   0.14943   0.00000  Uiso   1.00
N209   N     0.42212   0.15490   0.64943   0.00000  Uiso   1.00
N210   N     0.07791   0.34508   0.35057   0.00000  Uiso   1.00
N211   N     0.26962   0.34666   0.76284   0.00000  Uiso   1.00
N212   N     0.32788   0.09510   0.85057   0.00000  Uiso   1.00
N213   N     0.23038   0.15334   0.23715   0.00000  Uiso   1.00
N214   N     0.07788   0.34510   0.64943   0.00000  Uiso   1.00
N215   N     0.42209   0.15493   0.35057   0.00000  Uiso   1.00
N216   N     0.23038   0.15334   0.76283   0.00000  Uiso   1.00
N217   N     0.26962   0.34666   0.23714   0.00000  Uiso   1.00
N218   N     0.34666   0.26962   0.23714   0.00000  Uiso   1.00
N219   N     0.15334   0.23038   0.76283   0.00000  Uiso   1.00
N220   N     0.34507   0.07791   0.35057   0.00000  Uiso   1.00
N221   N     0.15490   0.42212   0.64943   0.00000  Uiso   1.00
N222   N     0.15334   0.23038   0.23715   0.00000  Uiso   1.00
N223   N     0.01962   0.09666   0.26285   0.00000  Uiso   1.00
N224   N     0.34666   0.26962   0.76284   0.00000  Uiso   1.00
N225   N     0.15492   0.42210   0.35057   0.00000  Uiso   1.00
N226   N     0.34510   0.07788   0.64943   0.00000  Uiso   1.00
N227   N     0.48038   0.40334   0.73716   0.00000  Uiso   1.00
N228   N     0.32791   0.09507   0.14942   0.00000  Uiso   1.00
N229   N     0.17212   0.40490   0.85057   0.00000  Uiso   1.00
N230   N     0.48038   0.40334   0.26286   0.00000  Uiso   1.00
N231   N     0.01962   0.09666   0.73717   0.00000  Uiso   1.00
N232   N     0.09666   0.01962   0.73717   0.00000  Uiso   1.00
O233   O     0.25000   0.00000   0.25000   0.00000  Uiso   1.00
O234   O     0.25000   0.46964   0.66245   0.00000  Uiso   1.00
O235   O     0.46964   0.25000   0.33755   0.00000  Uiso   1.00
O236   O     0.03037   0.25000   0.66245   0.00000  Uiso   1.00
O237   O     0.00000   0.21964   0.83755   0.00000  Uiso   1.00
O238   O     0.00000   0.28036   0.16245   0.00000  Uiso   1.00
O239   O     0.28037   0.00000   0.83755   0.00000  Uiso   1.00
O240   O     0.21964  -0.00000   0.16245   0.00000  Uiso   1.00
O241   O     0.00000   0.28036   0.83755   0.00000  Uiso   1.00
O242   O     0.00000   0.21964   0.16245   0.00000  Uiso   1.00
O243   O     0.21964  -0.00000   0.83755   0.00000  Uiso   1.00
O244   O     0.25000   0.00000   0.75000   0.00000  Uiso   1.00
O245   O     0.28037   0.00000   0.16245   0.00000  Uiso   1.00
O246   O     0.20725   0.07308   0.27302   0.00000  Uiso   1.00
O247   O     0.29276   0.42693   0.72698   0.00000  Uiso   1.00
O248   O     0.42693   0.20725   0.27302   0.00000  Uiso   1.00
O249   O     0.07308   0.29275   0.72698   0.00000  Uiso   1.00
O250   O     0.29276   0.42693   0.27302   0.00000  Uiso   1.00
O251   O     0.20725   0.07308   0.72698   0.00000  Uiso   1.00
O252   O     0.07308   0.29275   0.27302   0.00000  Uiso   1.00
O253   O     0.42693   0.20725   0.72698   0.00000  Uiso   1.00
O254   O     0.20725   0.42692   0.72698   0.00000  Uiso   1.00
O255   O     0.00000   0.25000   0.25000   0.00000  Uiso   1.00
O256   O     0.29276   0.07308   0.27302   0.00000  Uiso   1.00
O257   O     0.42693   0.29276   0.72698   0.00000  Uiso   1.00
O258   O     0.07308   0.20724   0.27302   0.00000  Uiso   1.00
O259   O     0.29276   0.07308   0.72698   0.00000  Uiso   1.00
O260   O     0.20725   0.42692   0.27302   0.00000  Uiso   1.00
O261   O     0.07308   0.20724   0.72698   0.00000  Uiso   1.00
O262   O     0.42693   0.29276   0.27302   0.00000  Uiso   1.00
O263   O     0.45725   0.32308   0.77302   0.00000  Uiso   1.00
O264   O     0.04276   0.17692   0.22698   0.00000  Uiso   1.00
O265   O     0.17693   0.45724   0.77302   0.00000  Uiso   1.00
O266   O     0.00000   0.25000   0.75000   0.00000  Uiso   1.00
O267   O     0.32308   0.04276   0.22698   0.00000  Uiso   1.00
O268   O     0.04276   0.17692   0.77302   0.00000  Uiso   1.00
O269   O     0.45725   0.32308   0.22698   0.00000  Uiso   1.00
O270   O     0.32308   0.04276   0.77302   0.00000  Uiso   1.00
O271   O     0.17693   0.45724   0.22698   0.00000  Uiso   1.00
O272   O     0.45725   0.17693   0.22698   0.00000  Uiso   1.00
O273   O     0.04276   0.32307   0.77302   0.00000  Uiso   1.00
O274   O     0.17693   0.04276   0.22698   0.00000  Uiso   1.00
O275   O     0.32308   0.45725   0.77302   0.00000  Uiso   1.00
O276   O     0.04276   0.32307   0.22698   0.00000  Uiso   1.00
O277   O     0.25000   0.46964   0.33755   0.00000  Uiso   1.00
O278   O     0.45725   0.17693   0.77302   0.00000  Uiso   1.00
O279   O     0.32308   0.45725   0.22698   0.00000  Uiso   1.00
O280   O     0.17693   0.04276   0.77302   0.00000  Uiso   1.00
O281   O     0.25000   0.03037   0.66245   0.00000  Uiso   1.00
O282   O     0.03037   0.25000   0.33755   0.00000  Uiso   1.00
O283   O     0.46964   0.25000   0.66245   0.00000  Uiso   1.00
O284   O     0.25000   0.03037   0.33755   0.00000  Uiso   1.00
Zn285  Zn    0.20660  -0.00000   0.21735   0.00000  Uiso   1.00
Zn286  Zn    0.04341   0.25000   0.28265   0.00000  Uiso   1.00
Zn287  Zn    0.25000   0.45660   0.71735   0.00000  Uiso   1.00
Zn288  Zn    0.25000   0.04341   0.28265   0.00000  Uiso   1.00
Zn289  Zn    0.04341   0.25000   0.71735   0.00000  Uiso   1.00
Zn290  Zn    0.45660   0.25000   0.28265   0.00000  Uiso   1.00
Zn291  Zn    0.25000   0.04341   0.71735   0.00000  Uiso   1.00
Zn292  Zn    0.25000   0.45660   0.28265   0.00000  Uiso   1.00
Zn293  Zn    0.29341   0.00000   0.78265   0.00000  Uiso   1.00
Zn294  Zn    0.00000   0.20659   0.21735   0.00000  Uiso   1.00
Zn295  Zn    0.00000   0.29340   0.78265   0.00000  Uiso   1.00
Zn296  Zn    0.29341   0.00000   0.21735   0.00000  Uiso   1.00
Zn297  Zn    0.20660   0.00000   0.78265   0.00000  Uiso   1.00
Zn298  Zn    0.00000   0.29340   0.21735   0.00000  Uiso   1.00
Zn299  Zn    0.00000   0.20659   0.78265   0.00000  Uiso   1.00
Zn300  Zn    0.45660   0.25000   0.71735   0.00000  Uiso   1.00
C301   C     0.96687   0.24790   0.41881   0.00000  Uiso   1.00
C302   C     0.71691   0.49736   0.08119   0.00000  Uiso   1.00
C303   C     0.74739   0.46668   0.54071   0.00000  Uiso   1.00
C304   C     0.96664   0.24787   0.45929   0.00000  Uiso   1.00
C305   C     0.53336   0.25213   0.54071   0.00000  Uiso   1.00
C306   C     0.74739   0.46668   0.45929   0.00000  Uiso   1.00
C307   C     0.75261   0.03332   0.54071   0.00000  Uiso   1.00
C308   C     0.71668   0.49732   0.95929   0.00000  Uiso   1.00
C309   C     0.78332   0.00268   0.04071   0.00000  Uiso   1.00
C310   C     0.99726   0.21669   0.95929   0.00000  Uiso   1.00
C311   C     0.50274   0.28331   0.04071   0.00000  Uiso   1.00
C312   C     0.78332   0.00268   0.95929   0.00000  Uiso   1.00
C313   C     0.50270   0.28308   0.91881   0.00000  Uiso   1.00
C314   C     0.71668   0.49732   0.04071   0.00000  Uiso   1.00
C315   C     0.50274   0.28331   0.95929   0.00000  Uiso   1.00
C316   C     0.99726   0.21669   0.04071   0.00000  Uiso   1.00
C317   C     0.59807   0.34807   0.25000   0.00000  Uiso   1.00
C318   C     0.90193   0.15193   0.75000   0.00000  Uiso   1.00
C319   C     0.65193   0.09807   0.25000   0.00000  Uiso   1.00
C320   C     0.84807   0.40193   0.75000   0.00000  Uiso   1.00
C321   C     0.90193   0.15193   0.25000   0.00000  Uiso   1.00
C322   C     0.59807   0.34807   0.75000   0.00000  Uiso   1.00
C323   C     0.84807   0.40193   0.25000   0.00000  Uiso   1.00
C324   C     0.99730   0.21692   0.08119   0.00000  Uiso   1.00
C325   C     0.65193   0.09807   0.75000   0.00000  Uiso   1.00
C326   C     0.59807   0.15193   0.75000   0.00000  Uiso   1.00
C327   C     0.90193   0.34807   0.25000   0.00000  Uiso   1.00
C328   C     0.65193   0.40193   0.75000   0.00000  Uiso   1.00
C329   C     0.84807   0.09807   0.25000   0.00000  Uiso   1.00
C330   C     0.90193   0.34807   0.75000   0.00000  Uiso   1.00
C331   C     0.59807   0.15193   0.25000   0.00000  Uiso   1.00
C332   C     0.84807   0.09807   0.75000   0.00000  Uiso   1.00
C333   C     0.65193   0.40193   0.25000   0.00000  Uiso   1.00
C334   C     0.50000   0.25000   0.47963   0.00000  Uiso   1.00
C335   C     0.71691   0.49736   0.91881   0.00000  Uiso   1.00
C336   C     0.50000   0.25000   0.52037   0.00000  Uiso   1.00
C337   C     0.75000   0.00000   0.47963   0.00000  Uiso   1.00
C338   C     0.75000   0.00000   0.52037   0.00000  Uiso   1.00
C339   C     0.75000   0.00000   0.97963   0.00000  Uiso   1.00
C340   C     0.75000   0.00000   0.02037   0.00000  Uiso   1.00
C341   C     0.50000   0.25000   0.97963   0.00000  Uiso   1.00
C342   C     0.50000   0.25000   0.02037   0.00000  Uiso   1.00
C343   C     0.65829   0.39655   0.17831   0.00000  Uiso   1.00
C344   C     0.84170   0.10347   0.82169   0.00000  Uiso   1.00
C345   C     0.54991   0.10476   0.25877   0.00000  Uiso   1.00
C346   C     0.78309   0.00264   0.08119   0.00000  Uiso   1.00
C347   C     0.95009   0.39524   0.74124   0.00000  Uiso   1.00
C348   C     0.84172   0.10345   0.17831   0.00000  Uiso   1.00
C349   C     0.65830   0.39654   0.82169   0.00000  Uiso   1.00
C350   C     0.95009   0.39524   0.25878   0.00000  Uiso   1.00
C351   C     0.54991   0.10476   0.74125   0.00000  Uiso   1.00
C352   C     0.60476   0.04992   0.74125   0.00000  Uiso   1.00
C353   C     0.89524   0.45008   0.25878   0.00000  Uiso   1.00
C354   C     0.60346   0.34170   0.82169   0.00000  Uiso   1.00
C355   C     0.89655   0.15828   0.17831   0.00000  Uiso   1.00
C356   C     0.89524   0.45008   0.74124   0.00000  Uiso   1.00
C357   C     0.99730   0.21692   0.91881   0.00000  Uiso   1.00
C358   C     0.60476   0.04992   0.25877   0.00000  Uiso   1.00
C359   C     0.89653   0.15830   0.82169   0.00000  Uiso   1.00
C360   C     0.60345   0.34172   0.17831   0.00000  Uiso   1.00
C361   C     0.90830   0.14653   0.67831   0.00000  Uiso   1.00
C362   C     0.59172   0.35345   0.32169   0.00000  Uiso   1.00
C363   C     0.79991   0.35476   0.75876   0.00000  Uiso   1.00
C364   C     0.70009   0.14524   0.24123   0.00000  Uiso   1.00
C365   C     0.59170   0.35347   0.67831   0.00000  Uiso   1.00
C366   C     0.90828   0.14655   0.32169   0.00000  Uiso   1.00
C367   C     0.70009   0.14524   0.75875   0.00000  Uiso   1.00
C368   C     0.50270   0.28308   0.08119   0.00000  Uiso   1.00
C369   C     0.79992   0.35476   0.24122   0.00000  Uiso   1.00
C370   C     0.85476   0.29992   0.24123   0.00000  Uiso   1.00
C371   C     0.64524   0.20009   0.75875   0.00000  Uiso   1.00
C372   C     0.85345   0.09172   0.32169   0.00000  Uiso   1.00
C373   C     0.64654   0.40830   0.67831   0.00000  Uiso   1.00
C374   C     0.64524   0.20008   0.24123   0.00000  Uiso   1.00
C375   C     0.85476   0.29992   0.75876   0.00000  Uiso   1.00
C376   C     0.64655   0.40829   0.32169   0.00000  Uiso   1.00
C377   C     0.85347   0.09170   0.67831   0.00000  Uiso   1.00
C378   C     0.50000   0.25000   0.39847   0.00000  Uiso   1.00
C379   C     0.50000   0.25000   0.60153   0.00000  Uiso   1.00
C380   C     0.75000   0.00000   0.39847   0.00000  Uiso   1.00
C381   C     0.53313   0.25210   0.58119   0.00000  Uiso   1.00
C382   C     0.75000   0.00000   0.60153   0.00000  Uiso   1.00
C383   C     0.75000   0.00000   0.89847   0.00000  Uiso   1.00
C384   C     0.75000   0.00000   0.10153   0.00000  Uiso   1.00
C385   C     0.50000   0.25000   0.89847   0.00000  Uiso   1.00
C386   C     0.50000   0.25000   0.10153   0.00000  Uiso   1.00
C387   C     0.56636   0.25426   0.47976   0.00000  Uiso   1.00
C388   C     0.93364   0.24574   0.52025   0.00000  Uiso   1.00
C389   C     0.75521   0.06629   0.47975   0.00000  Uiso   1.00
C390   C     0.74479   0.43371   0.52025   0.00000  Uiso   1.00
C391   C     0.93364   0.24574   0.47975   0.00000  Uiso   1.00
C392   C     0.74743   0.46691   0.41881   0.00000  Uiso   1.00
C393   C     0.56636   0.25426   0.52025   0.00000  Uiso   1.00
C394   C     0.74479   0.43371   0.47975   0.00000  Uiso   1.00
C395   C     0.75521   0.06629   0.52025   0.00000  Uiso   1.00
C396   C     0.68372   0.49464   0.97975   0.00000  Uiso   1.00
C397   C     0.81628   0.00536   0.02025   0.00000  Uiso   1.00
C398   C     0.99453   0.18373   0.97975   0.00000  Uiso   1.00
C399   C     0.50547   0.31627   0.02025   0.00000  Uiso   1.00
C400   C     0.81628   0.00536   0.97976   0.00000  Uiso   1.00
C401   C     0.68372   0.49464   0.02025   0.00000  Uiso   1.00
C402   C     0.50547   0.31627   0.97975   0.00000  Uiso   1.00
C403   C     0.75257   0.03309   0.58119   0.00000  Uiso   1.00
C404   C     0.99453   0.18373   0.02025   0.00000  Uiso   1.00
C405   C     0.75000   0.00000   0.35599   0.00000  Uiso   1.00
C406   C     0.75000   0.00000   0.64401   0.00000  Uiso   1.00
C407   C     0.50000   0.25000   0.35599   0.00000  Uiso   1.00
C408   C     0.50000   0.25000   0.64401   0.00000  Uiso   1.00
C409   C     0.50000   0.25000   0.85599   0.00000  Uiso   1.00
C410   C     0.50000   0.25000   0.14401   0.00000  Uiso   1.00
C411   C     0.75000   0.00000   0.85599   0.00000  Uiso   1.00
C412   C     0.75000   0.00000   0.14401   0.00000  Uiso   1.00
C413   C     0.68004   0.06996   0.25000   0.00000  Uiso   1.00
C414   C     0.53313   0.25210   0.41881   0.00000  Uiso   1.00
C415   C     0.81996   0.43004   0.75000   0.00000  Uiso   1.00
C416   C     0.93004   0.18004   0.25000   0.00000  Uiso   1.00
C417   C     0.56996   0.31996   0.75000   0.00000  Uiso   1.00
C418   C     0.81996   0.43004   0.25000   0.00000  Uiso   1.00
C419   C     0.68004   0.06996   0.75000   0.00000  Uiso   1.00
C420   C     0.56996   0.31996   0.25000   0.00000  Uiso   1.00
C421   C     0.93004   0.18004   0.75000   0.00000  Uiso   1.00
C422   C     0.68004   0.43004   0.75000   0.00000  Uiso   1.00
C423   C     0.81996   0.06996   0.25000   0.00000  Uiso   1.00
C424   C     0.93004   0.31996   0.75000   0.00000  Uiso   1.00
C425   C     0.96687   0.24790   0.58119   0.00000  Uiso   1.00
C426   C     0.56996   0.18004   0.25000   0.00000  Uiso   1.00
C427   C     0.81996   0.06996   0.75000   0.00000  Uiso   1.00
C428   C     0.68004   0.43004   0.25000   0.00000  Uiso   1.00
C429   C     0.56996   0.18004   0.75000   0.00000  Uiso   1.00
C430   C     0.93004   0.31996   0.25000   0.00000  Uiso   1.00
C431   C     0.64096   0.38605   0.21458   0.00000  Uiso   1.00
C432   C     0.85903   0.11396   0.78542   0.00000  Uiso   1.00
C433   C     0.58795   0.11496   0.25365   0.00000  Uiso   1.00
C434   C     0.91206   0.38504   0.74635   0.00000  Uiso   1.00
C435   C     0.85904   0.11395   0.21458   0.00000  Uiso   1.00
C436   C     0.75257   0.03309   0.41881   0.00000  Uiso   1.00
C437   C     0.64097   0.38604   0.78542   0.00000  Uiso   1.00
C438   C     0.91205   0.38504   0.25366   0.00000  Uiso   1.00
C439   C     0.58794   0.11496   0.74636   0.00000  Uiso   1.00
C440   C     0.61496   0.08795   0.74636   0.00000  Uiso   1.00
C441   C     0.88504   0.41205   0.25366   0.00000  Uiso   1.00
C442   C     0.61396   0.35904   0.78542   0.00000  Uiso   1.00
C443   C     0.88605   0.14096   0.21458   0.00000  Uiso   1.00
C444   C     0.88504   0.41205   0.74635   0.00000  Uiso   1.00
C445   C     0.61496   0.08795   0.25365   0.00000  Uiso   1.00
C446   C     0.88604   0.14097   0.78542   0.00000  Uiso   1.00
C447   C     0.74743   0.46691   0.58119   0.00000  Uiso   1.00
C448   C     0.61395   0.35904   0.21458   0.00000  Uiso   1.00
C449   C     0.89097   0.13604   0.71458   0.00000  Uiso   1.00
C450   C     0.60904   0.36395   0.28542   0.00000  Uiso   1.00
C451   C     0.83795   0.36496   0.75365   0.00000  Uiso   1.00
C452   C     0.66205   0.13504   0.24635   0.00000  Uiso   1.00
C453   C     0.60903   0.36396   0.71458   0.00000  Uiso   1.00
C454   C     0.89096   0.13605   0.28542   0.00000  Uiso   1.00
C455   C     0.66206   0.13504   0.75364   0.00000  Uiso   1.00
C456   C     0.83795   0.36496   0.24635   0.00000  Uiso   1.00
C457   C     0.86496   0.33795   0.24635   0.00000  Uiso   1.00
C458   C     0.78309   0.00264   0.91881   0.00000  Uiso   1.00
C459   C     0.63505   0.16205   0.75364   0.00000  Uiso   1.00
C460   C     0.86395   0.10904   0.28542   0.00000  Uiso   1.00
C461   C     0.63604   0.39096   0.71458   0.00000  Uiso   1.00
C462   C     0.63504   0.16205   0.24635   0.00000  Uiso   1.00
C463   C     0.86496   0.33795   0.75365   0.00000  Uiso   1.00
C464   C     0.63605   0.39096   0.28542   0.00000  Uiso   1.00
C465   C     0.86396   0.10903   0.71458   0.00000  Uiso   1.00
C466   C     0.53336   0.25213   0.45929   0.00000  Uiso   1.00
C467   C     0.96664   0.24787   0.54071   0.00000  Uiso   1.00
C468   C     0.75261   0.03332   0.45929   0.00000  Uiso   1.00
H469   H     0.59215   0.25591   0.46445   0.00000  Uiso   1.00
H470   H     0.84204   0.00745   0.03556   0.00000  Uiso   1.00
H471   H     0.99240   0.15798   0.96445   0.00000  Uiso   1.00
H472   H     0.50760   0.34202   0.03555   0.00000  Uiso   1.00
H473   H     0.84204   0.00745   0.96445   0.00000  Uiso   1.00
H474   H     0.65796   0.49255   0.03555   0.00000  Uiso   1.00
H475   H     0.50760   0.34202   0.96445   0.00000  Uiso   1.00
H476   H     0.99240   0.15798   0.03555   0.00000  Uiso   1.00
H477   H     0.94124   0.24620   0.40318   0.00000  Uiso   1.00
H478   H     0.55876   0.25379   0.59682   0.00000  Uiso   1.00
H479   H     0.74536   0.44130   0.40318   0.00000  Uiso   1.00
H480   H     0.90785   0.24409   0.53555   0.00000  Uiso   1.00
H481   H     0.75464   0.05870   0.59682   0.00000  Uiso   1.00
H482   H     0.55876   0.25379   0.40318   0.00000  Uiso   1.00
H483   H     0.94124   0.24620   0.59682   0.00000  Uiso   1.00
H484   H     0.75464   0.05870   0.40318   0.00000  Uiso   1.00
H485   H     0.74536   0.44130   0.59682   0.00000  Uiso   1.00
H486   H     0.80869   0.00477   0.90318   0.00000  Uiso   1.00
H487   H     0.69131   0.49523   0.09682   0.00000  Uiso   1.00
H488   H     0.50487   0.30868   0.90318   0.00000  Uiso   1.00
H489   H     0.99513   0.19132   0.09682   0.00000  Uiso   1.00
H490   H     0.69131   0.49523   0.90318   0.00000  Uiso   1.00
H491   H     0.75724   0.09205   0.46445   0.00000  Uiso   1.00
H492   H     0.80869   0.00477   0.09682   0.00000  Uiso   1.00
H493   H     0.99513   0.19132   0.90318   0.00000  Uiso   1.00
H494   H     0.50487   0.30868   0.09682   0.00000  Uiso   1.00
H495   H     0.74276   0.40795   0.53555   0.00000  Uiso   1.00
H496   H     0.90785   0.24409   0.46445   0.00000  Uiso   1.00
H497   H     0.59215   0.25591   0.53555   0.00000  Uiso   1.00
H498   H     0.74276   0.40795   0.46445   0.00000  Uiso   1.00
H499   H     0.75724   0.09205   0.53555   0.00000  Uiso   1.00
H500   H     0.65796   0.49255   0.96445   0.00000  Uiso   1.00
N501   N     0.67209   0.40492   0.14943   0.00000  Uiso   1.00
N502   N     0.90334   0.48038   0.26286   0.00000  Uiso   1.00
N503   N     0.59510   0.32789   0.85057   0.00000  Uiso   1.00
N504   N     0.90493   0.17209   0.14943   0.00000  Uiso   1.00
N505   N     0.90334   0.48038   0.73716   0.00000  Uiso   1.00
N506   N     0.59666   0.01962   0.26285   0.00000  Uiso   1.00
N507   N     0.90490   0.17212   0.85057   0.00000  Uiso   1.00
N508   N     0.59507   0.32791   0.14943   0.00000  Uiso   1.00
N509   N     0.92212   0.15490   0.64943   0.00000  Uiso   1.00
N510   N     0.57791   0.34508   0.35057   0.00000  Uiso   1.00
N511   N     0.76962   0.34666   0.76284   0.00000  Uiso   1.00
N512   N     0.82788   0.09510   0.85057   0.00000  Uiso   1.00
N513   N     0.73038   0.15334   0.23715   0.00000  Uiso   1.00
N514   N     0.57788   0.34510   0.64943   0.00000  Uiso   1.00
N515   N     0.92209   0.15493   0.35057   0.00000  Uiso   1.00
N516   N     0.73038   0.15334   0.76283   0.00000  Uiso   1.00
N517   N     0.76962   0.34666   0.23714   0.00000  Uiso   1.00
N518   N     0.84666   0.26962   0.23714   0.00000  Uiso   1.00
N519   N     0.65334   0.23038   0.76283   0.00000  Uiso   1.00
N520   N     0.84507   0.07791   0.35057   0.00000  Uiso   1.00
N521   N     0.65490   0.42212   0.64943   0.00000  Uiso   1.00
N522   N     0.65334   0.23038   0.23715   0.00000  Uiso   1.00
N523   N     0.51962   0.09666   0.26285   0.00000  Uiso   1.00
N524   N     0.84666   0.26962   0.76284   0.00000  Uiso   1.00
N525   N     0.65492   0.42210   0.35057   0.00000  Uiso   1.00
N526   N     0.84510   0.07788   0.64943   0.00000  Uiso   1.00
N527   N     0.98038   0.40334   0.73716   0.00000  Uiso   1.00
N528   N     0.82791   0.09507   0.14942   0.00000  Uiso   1.00
N529   N     0.67212   0.40490   0.85057   0.00000  Uiso   1.00
N530   N     0.98038   0.40334   0.26286   0.00000  Uiso   1.00
N531   N     0.51962   0.09666   0.73717   0.00000  Uiso   1.00
N532   N     0.59666   0.01962   0.73717   0.00000  Uiso   1.00
O533   O     0.75000   0.00000   0.25000   0.00000  Uiso   1.00
O534   O     0.75000   0.46964   0.66245   0.00000  Uiso   1.00
O535   O     0.96964   0.25000   0.33755   0.00000  Uiso   1.00
O536   O     0.53037   0.25000   0.66245   0.00000  Uiso   1.00
O537   O     0.50000   0.21964   0.83755   0.00000  Uiso   1.00
O538   O     0.50000   0.28036   0.16245   0.00000  Uiso   1.00
O539   O     0.78037   0.00000   0.83755   0.00000  Uiso   1.00
O540   O     0.71964  -0.00000   0.16245   0.00000  Uiso   1.00
O541   O     0.50000   0.28036   0.83755   0.00000  Uiso   1.00
O542   O     0.50000   0.21964   0.16245   0.00000  Uiso   1.00
O543   O     0.71964  -0.00000   0.83755   0.00000  Uiso   1.00
O544   O     0.75000   0.00000   0.75000   0.00000  Uiso   1.00
O545   O     0.78037   0.00000   0.16245   0.00000  Uiso   1.00
O546   O     0.70725   0.07308   0.27302   0.00000  Uiso   1.00
O547   O     0.79276   0.42693   0.72698   0.00000  Uiso   1.00
O548   O     0.92693   0.20725   0.27302   0.00000  Uiso   1.00
O549   O     0.57308   0.29275   0.72698   0.00000  Uiso   1.00
O550   O     0.79276   0.42693   0.27302   0.00000  Uiso   1.00
O551   O     0.70725   0.07308   0.72698   0.00000  Uiso   1.00
O552   O     0.57308   0.29275   0.27302   0.00000  Uiso   1.00
O553   O     0.92693   0.20725   0.72698   0.00000  Uiso   1.00
O554   O     0.70725   0.42692   0.72698   0.00000  Uiso   1.00
O555   O     0.50000   0.25000   0.25000   0.00000  Uiso   1.00
O556   O     0.79276   0.07308   0.27302   0.00000  Uiso   1.00
O557   O     0.92693   0.29276   0.72698   0.00000  Uiso   1.00
O558   O     0.57308   0.20724   0.27302   0.00000  Uiso   1.00
O559   O     0.79276   0.07308   0.72698   0.00000  Uiso   1.00
O560   O     0.70725   0.42692   0.27302   0.00000  Uiso   1.00
O561   O     0.57308   0.20724   0.72698   0.00000  Uiso   1.00
O562   O     0.92693   0.29276   0.27302   0.00000  Uiso   1.00
O563   O     0.95725   0.32308   0.77302   0.00000  Uiso   1.00
O564   O     0.54276   0.17692   0.22698   0.00000  Uiso   1.00
O565   O     0.67693   0.45724   0.77302   0.00000  Uiso   1.00
O566   O     0.50000   0.25000   0.75000   0.00000  Uiso   1.00
O567   O     0.82308   0.04276   0.22698   0.00000  Uiso   1.00
O568   O     0.54276   0.17692   0.77302   0.00000  Uiso   1.00
O569   O     0.95725   0.32308   0.22698   0.00000  Uiso   1.00
O570   O     0.82308   0.04276   0.77302   0.00000  Uiso   1.00
O571   O     0.67693   0.45724   0.22698   0.00000  Uiso   1.00
O572   O     0.95725   0.17693   0.22698   0.00000  Uiso   1.00
O573   O     0.54276   0.32307   0.77302   0.00000  Uiso   1.00
O574   O     0.67693   0.04276   0.22698   0.00000  Uiso   1.00
O575   O     0.82308   0.45725   0.77302   0.00000  Uiso   1.00
O576   O     0.54276   0.32307   0.22698   0.00000  Uiso   1.00
O577   O     0.75000   0.46964   0.33755   0.00000  Uiso   1.00
O578   O     0.95725   0.17693   0.77302   0.00000  Uiso   1.00
O579   O     0.82308   0.45725   0.22698   0.00000  Uiso   1.00
O580   O     0.67693   0.04276   0.77302   0.00000  Uiso   1.00
O581   O     0.75000   0.03037   0.66245   0.00000  Uiso   1.00
O582   O     0.53037   0.25000   0.33755   0.00000  Uiso   1.00
O583   O     0.96964   0.25000   0.66245   0.00000  Uiso   1.00
O584   O     0.75000   0.03037   0.33755   0.00000  Uiso   1.00
Zn585  Zn    0.70660  -0.00000   0.21735   0.00000  Uiso   1.00
Zn586  Zn    0.54341   0.25000   0.28265   0.00000  Uiso   1.00
Zn587  Zn    0.75000   0.45660   0.71735   0.00000  Uiso   1.00
Zn588  Zn    0.75000   0.04341   0.28265   0.00000  Uiso   1.00
Zn589  Zn    0.54341   0.25000   0.71735   0.00000  Uiso   1.00
Zn590  Zn    0.95660   0.25000   0.28265   0.00000  Uiso   1.00
Zn591  Zn    0.75000   0.04341   0.71735   0.00000  Uiso   1.00
Zn592  Zn    0.75000   0.45660   0.28265   0.00000  Uiso   1.00
Zn593  Zn    0.79341   0.00000   0.78265   0.00000  Uiso   1.00
Zn594  Zn    0.50000   0.20659   0.21735   0.00000  Uiso   1.00
Zn595  Zn    0.50000   0.29340   0.78265   0.00000  Uiso   1.00
Zn596  Zn    0.79341   0.00000   0.21735   0.00000  Uiso   1.00
Zn597  Zn    0.70660   0.00000   0.78265   0.00000  Uiso   1.00
Zn598  Zn    0.50000   0.29340   0.21735   0.00000  Uiso   1.00
Zn599  Zn    0.50000   0.20659   0.78265   0.00000  Uiso   1.00
Zn600  Zn    0.95660   0.25000   0.71735   0.00000  Uiso   1.00
C601   C     0.46687   0.74790   0.41881   0.00000  Uiso   1.00
C602   C     0.21691   0.99736   0.08119   0.00000  Uiso   1.00
C603   C     0.24739   0.96668   0.54071   0.00000  Uiso   1.00
C604   C     0.46664   0.74787   0.45929   0.00000  Uiso   1.00
C605   C     0.03336   0.75213   0.54071   0.00000  Uiso   1.00
C606   C     0.24739   0.96668   0.45929   0.00000  Uiso   1.00
C607   C     0.25261   0.53332   0.54071   0.00000  Uiso   1.00
C608   C     0.21668   0.99732   0.95929   0.00000  Uiso   1.00
C609   C     0.28332   0.50268   0.04071   0.00000  Uiso   1.00
C610   C     0.49726   0.71669   0.95929   0.00000  Uiso   1.00
C611   C     0.00274   0.78331   0.04071   0.00000  Uiso   1.00
C612   C     0.28332   0.50268   0.95929   0.00000  Uiso   1.00
C613   C     0.00270   0.78308   0.91881   0.00000  Uiso   1.00
C614   C     0.21668   0.99732   0.04071   0.00000  Uiso   1.00
C615   C     0.00274   0.78331   0.95929   0.00000  Uiso   1.00
C616   C     0.49726   0.71669   0.04071   0.00000  Uiso   1.00
C617   C     0.09807   0.84807   0.25000   0.00000  Uiso   1.00
C618   C     0.40193   0.65193   0.75000   0.00000  Uiso   1.00
C619   C     0.15193   0.59807   0.25000   0.00000  Uiso   1.00
C620   C     0.34807   0.90193   0.75000   0.00000  Uiso   1.00
C621   C     0.40193   0.65193   0.25000   0.00000  Uiso   1.00
C622   C     0.09807   0.84807   0.75000   0.00000  Uiso   1.00
C623   C     0.34807   0.90193   0.25000   0.00000  Uiso   1.00
C624   C     0.49730   0.71692   0.08119   0.00000  Uiso   1.00
C625   C     0.15193   0.59807   0.75000   0.00000  Uiso   1.00
C626   C     0.09807   0.65193   0.75000   0.00000  Uiso   1.00
C627   C     0.40193   0.84807   0.25000   0.00000  Uiso   1.00
C628   C     0.15193   0.90193   0.75000   0.00000  Uiso   1.00
C629   C     0.34807   0.59807   0.25000   0.00000  Uiso   1.00
C630   C     0.40193   0.84807   0.75000   0.00000  Uiso   1.00
C631   C     0.09807   0.65193   0.25000   0.00000  Uiso   1.00
C632   C     0.34807   0.59807   0.75000   0.00000  Uiso   1.00
C633   C     0.15193   0.90193   0.25000   0.00000  Uiso   1.00
C634   C     0.00000   0.75000   0.47963   0.00000  Uiso   1.00
C635   C     0.21691   0.99736   0.91881   0.00000  Uiso   1.00
C636   C     0.00000   0.75000   0.52037   0.00000  Uiso   1.00
C637   C     0.25000   0.50000   0.47963   0.00000  Uiso   1.00
C638   C     0.25000   0.50000   0.52037   0.00000  Uiso   1.00
C639   C     0.25000   0.50000   0.97963   0.00000  Uiso   1.00
C640   C     0.25000   0.50000   0.02037   0.00000  Uiso   1.00
C641   C     0.00000   0.75000   0.97963   0.00000  Uiso   1.00
C642   C     0.00000   0.75000   0.02037   0.00000  Uiso   1.00
C643   C     0.15829   0.89655   0.17831   0.00000  Uiso   1.00
C644   C     0.34170   0.60347   0.82169   0.00000  Uiso   1.00
C645   C     0.04991   0.60476   0.25877   0.00000  Uiso   1.00
C646   C     0.28309   0.50264   0.08119   0.00000  Uiso   1.00
C647   C     0.45009   0.89524   0.74124   0.00000  Uiso   1.00
C648   C     0.34172   0.60345   0.17831   0.00000  Uiso   1.00
C649   C     0.15830   0.89654   0.82169   0.00000  Uiso   1.00
C650   C     0.45009   0.89524   0.25878   0.00000  Uiso   1.00
C651   C     0.04991   0.60476   0.74125   0.00000  Uiso   1.00
C652   C     0.10476   0.54992   0.74125   0.00000  Uiso   1.00
C653   C     0.39524   0.95008   0.25878   0.00000  Uiso   1.00
C654   C     0.10346   0.84170   0.82169   0.00000  Uiso   1.00
C655   C     0.39655   0.65828   0.17831   0.00000  Uiso   1.00
C656   C     0.39524   0.95008   0.74124   0.00000  Uiso   1.00
C657   C     0.49730   0.71692   0.91881   0.00000  Uiso   1.00
C658   C     0.10476   0.54992   0.25877   0.00000  Uiso   1.00
C659   C     0.39653   0.65830   0.82169   0.00000  Uiso   1.00
C660   C     0.10345   0.84172   0.17831   0.00000  Uiso   1.00
C661   C     0.40830   0.64653   0.67831   0.00000  Uiso   1.00
C662   C     0.09172   0.85345   0.32169   0.00000  Uiso   1.00
C663   C     0.29991   0.85476   0.75876   0.00000  Uiso   1.00
C664   C     0.20009   0.64524   0.24123   0.00000  Uiso   1.00
C665   C     0.09170   0.85347   0.67831   0.00000  Uiso   1.00
C666   C     0.40828   0.64655   0.32169   0.00000  Uiso   1.00
C667   C     0.20009   0.64524   0.75875   0.00000  Uiso   1.00
C668   C     0.00270   0.78308   0.08119   0.00000  Uiso   1.00
C669   C     0.29992   0.85476   0.24122   0.00000  Uiso   1.00
C670   C     0.35476   0.79992   0.24123   0.00000  Uiso   1.00
C671   C     0.14524   0.70009   0.75875   0.00000  Uiso   1.00
C672   C     0.35345   0.59172   0.32169   0.00000  Uiso   1.00
C673   C     0.14654   0.90830   0.67831   0.00000  Uiso   1.00
C674   C     0.14524   0.70008   0.24123   0.00000  Uiso   1.00
C675   C     0.35476   0.79992   0.75876   0.00000  Uiso   1.00
C676   C     0.14655   0.90829   0.32169   0.00000  Uiso   1.00
C677   C     0.35347   0.59170   0.67831   0.00000  Uiso   1.00
C678   C     0.00000   0.75000   0.39847   0.00000  Uiso   1.00
C679   C     0.00000   0.75000   0.60153   0.00000  Uiso   1.00
C680   C     0.25000   0.50000   0.39847   0.00000  Uiso   1.00
C681   C     0.03313   0.75210   0.58119   0.00000  Uiso   1.00
C682   C     0.25000   0.50000   0.60153   0.00000  Uiso   1.00
C683   C     0.25000   0.50000   0.89847   0.00000  Uiso   1.00
C684   C     0.25000   0.50000   0.10153   0.00000  Uiso   1.00
C685   C     0.00000   0.75000   0.89847   0.00000  Uiso   1.00
C686   C     0.00000   0.75000   0.10153   0.00000  Uiso   1.00
C687   C     0.06636   0.75426   0.47976   0.00000  Uiso   1.00
C688   C     0.43364   0.74574   0.52025   0.00000  Uiso   1.00
C689   C     0.25521   0.56629   0.47975   0.00000  Uiso   1.00
C690   C     0.24479   0.93371   0.52025   0.00000  Uiso   1.00
C691   C     0.43364   0.74574   0.47975   0.00000  Uiso   1.00
C692   C     0.24743   0.96691   0.41881   0.00000  Uiso   1.00
C693   C     0.06636   0.75426   0.52025   0.00000  Uiso   1.00
C694   C     0.24479   0.93371   0.47975   0.00000  Uiso   1.00
C695   C     0.25521   0.56629   0.52025   0.00000  Uiso   1.00
C696   C     0.18372   0.99464   0.97975   0.00000  Uiso   1.00
C697   C     0.31628   0.50536   0.02025   0.00000  Uiso   1.00
C698   C     0.49453   0.68373   0.97975   0.00000  Uiso   1.00
C699   C     0.00547   0.81627   0.02025   0.00000  Uiso   1.00
C700   C     0.31628   0.50536   0.97976   0.00000  Uiso   1.00
C701   C     0.18372   0.99464   0.02025   0.00000  Uiso   1.00
C702   C     0.00547   0.81627   0.97975   0.00000  Uiso   1.00
C703   C     0.25257   0.53309   0.58119   0.00000  Uiso   1.00
C704   C     0.49453   0.68373   0.02025   0.00000  Uiso   1.00
C705   C     0.25000   0.50000   0.35599   0.00000  Uiso   1.00
C706   C     0.25000   0.50000   0.64401   0.00000  Uiso   1.00
C707   C     0.00000   0.75000   0.35599   0.00000  Uiso   1.00
C708   C     0.00000   0.75000   0.64401   0.00000  Uiso   1.00
C709   C     0.00000   0.75000   0.85599   0.00000  Uiso   1.00
C710   C     0.00000   0.75000   0.14401   0.00000  Uiso   1.00
C711   C     0.25000   0.50000   0.85599   0.00000  Uiso   1.00
C712   C     0.25000   0.50000   0.14401   0.00000  Uiso   1.00
C713   C     0.18004   0.56996   0.25000   0.00000  Uiso   1.00
C714   C     0.03313   0.75210   0.41881   0.00000  Uiso   1.00
C715   C     0.31996   0.93004   0.75000   0.00000  Uiso   1.00
C716   C     0.43004   0.68004   0.25000   0.00000  Uiso   1.00
C717   C     0.06996   0.81996   0.75000   0.00000  Uiso   1.00
C718   C     0.31996   0.93004   0.25000   0.00000  Uiso   1.00
C719   C     0.18004   0.56996   0.75000   0.00000  Uiso   1.00
C720   C     0.06996   0.81996   0.25000   0.00000  Uiso   1.00
C721   C     0.43004   0.68004   0.75000   0.00000  Uiso   1.00
C722   C     0.18004   0.93004   0.75000   0.00000  Uiso   1.00
C723   C     0.31996   0.56996   0.25000   0.00000  Uiso   1.00
C724   C     0.43004   0.81996   0.75000   0.00000  Uiso   1.00
C725   C     0.46687   0.74790   0.58119   0.00000  Uiso   1.00
C726   C     0.06996   0.68004   0.25000   0.00000  Uiso   1.00
C727   C     0.31996   0.56996   0.75000   0.00000  Uiso   1.00
C728   C     0.18004   0.93004   0.25000   0.00000  Uiso   1.00
C729   C     0.06996   0.68004   0.75000   0.00000  Uiso   1.00
C730   C     0.43004   0.81996   0.25000   0.00000  Uiso   1.00
C731   C     0.14096   0.88605   0.21458   0.00000  Uiso   1.00
C732   C     0.35903   0.61396   0.78542   0.00000  Uiso   1.00
C733   C     0.08795   0.61496   0.25365   0.00000  Uiso   1.00
C734   C     0.41206   0.88504   0.74635   0.00000  Uiso   1.00
C735   C     0.35904   0.61395   0.21458   0.00000  Uiso   1.00
C736   C     0.25257   0.53309   0.41881   0.00000  Uiso   1.00
C737   C     0.14097   0.88604   0.78542   0.00000  Uiso   1.00
C738   C     0.41205   0.88504   0.25366   0.00000  Uiso   1.00
C739   C     0.08794   0.61496   0.74636   0.00000  Uiso   1.00
C740   C     0.11496   0.58795   0.74636   0.00000  Uiso   1.00
C741   C     0.38504   0.91205   0.25366   0.00000  Uiso   1.00
C742   C     0.11396   0.85904   0.78542   0.00000  Uiso   1.00
C743   C     0.38605   0.64096   0.21458   0.00000  Uiso   1.00
C744   C     0.38504   0.91205   0.74635   0.00000  Uiso   1.00
C745   C     0.11496   0.58795   0.25365   0.00000  Uiso   1.00
C746   C     0.38604   0.64097   0.78542   0.00000  Uiso   1.00
C747   C     0.24743   0.96691   0.58119   0.00000  Uiso   1.00
C748   C     0.11395   0.85904   0.21458   0.00000  Uiso   1.00
C749   C     0.39097   0.63604   0.71458   0.00000  Uiso   1.00
C750   C     0.10904   0.86395   0.28542   0.00000  Uiso   1.00
C751   C     0.33795   0.86496   0.75365   0.00000  Uiso   1.00
C752   C     0.16205   0.63504   0.24635   0.00000  Uiso   1.00
C753   C     0.10903   0.86396   0.71458   0.00000  Uiso   1.00
C754   C     0.39096   0.63605   0.28542   0.00000  Uiso   1.00
C755   C     0.16206   0.63504   0.75364   0.00000  Uiso   1.00
C756   C     0.33795   0.86496   0.24635   0.00000  Uiso   1.00
C757   C     0.36496   0.83795   0.24635   0.00000  Uiso   1.00
C758   C     0.28309   0.50264   0.91881   0.00000  Uiso   1.00
C759   C     0.13505   0.66205   0.75364   0.00000  Uiso   1.00
C760   C     0.36395   0.60904   0.28542   0.00000  Uiso   1.00
C761   C     0.13604   0.89096   0.71458   0.00000  Uiso   1.00
C762   C     0.13504   0.66205   0.24635   0.00000  Uiso   1.00
C763   C     0.36496   0.83795   0.75365   0.00000  Uiso   1.00
C764   C     0.13605   0.89096   0.28542   0.00000  Uiso   1.00
C765   C     0.36396   0.60903   0.71458   0.00000  Uiso   1.00
C766   C     0.03336   0.75213   0.45929   0.00000  Uiso   1.00
C767   C     0.46664   0.74787   0.54071   0.00000  Uiso   1.00
C768   C     0.25261   0.53332   0.45929   0.00000  Uiso   1.00
H769   H     0.09215   0.75591   0.46445   0.00000  Uiso   1.00
H770   H     0.34204   0.50745   0.03556   0.00000  Uiso   1.00
H771   H     0.49240   0.65798   0.96445   0.00000  Uiso   1.00
H772   H     0.00760   0.84202   0.03555   0.00000  Uiso   1.00
H773   H     0.34204   0.50745   0.96445   0.00000  Uiso   1.00
H774   H     0.15796   0.99255   0.03555   0.00000  Uiso   1.00
H775   H     0.00760   0.84202   0.96445   0.00000  Uiso   1.00
H776   H     0.49240   0.65798   0.03555   0.00000  Uiso   1.00
H777   H     0.44124   0.74620   0.40318   0.00000  Uiso   1.00
H778   H     0.05876   0.75379   0.59682   0.00000  Uiso   1.00
H779   H     0.24536   0.94130   0.40318   0.00000  Uiso   1.00
H780   H     0.40785   0.74409   0.53555   0.00000  Uiso   1.00
H781   H     0.25464   0.55870   0.59682   0.00000  Uiso   1.00
H782   H     0.05876   0.75379   0.40318   0.00000  Uiso   1.00
H783   H     0.44124   0.74620   0.59682   0.00000  Uiso   1.00
H784   H     0.25464   0.55870   0.40318   0.00000  Uiso   1.00
H785   H     0.24536   0.94130   0.59682   0.00000  Uiso   1.00
H786   H     0.30869   0.50477   0.90318   0.00000  Uiso   1.00
H787   H     0.19131   0.99523   0.09682   0.00000  Uiso   1.00
H788   H     0.00487   0.80868   0.90318   0.00000  Uiso   1.00
H789   H     0.49513   0.69132   0.09682   0.00000  Uiso   1.00
H790   H     0.19131   0.99523   0.90318   0.00000  Uiso   1.00
H791   H     0.25724   0.59205   0.46445   0.00000  Uiso   1.00
H792   H     0.30869   0.50477   0.09682   0.00000  Uiso   1.00
H793   H     0.49513   0.69132   0.90318   0.00000  Uiso   1.00
H794   H     0.00487   0.80868   0.09682   0.00000  Uiso   1.00
H795   H     0.24276   0.90795   0.53555   0.00000  Uiso   1.00
H796   H     0.40785   0.74409   0.46445   0.00000  Uiso   1.00
H797   H     0.09215   0.75591   0.53555   0.00000  Uiso   1.00
H798   H     0.24276   0.90795   0.46445   0.00000  Uiso   1.00
H799   H     0.25724   0.59205   0.53555   0.00000  Uiso   1.00
H800   H     0.15796   0.99255   0.96445   0.00000  Uiso   1.00
N801   N     0.17209   0.90492   0.14943   0.00000  Uiso   1.00
N802   N     0.40334   0.98038   0.26286   0.00000  Uiso   1.00
N803   N     0.09510   0.82789   0.85057   0.00000  Uiso   1.00
N804   N     0.40493   0.67209   0.14943   0.00000  Uiso   1.00
N805   N     0.40334   0.98038   0.73716   0.00000  Uiso   1.00
N806   N     0.09666   0.51962   0.26285   0.00000  Uiso   1.00
N807   N     0.40490   0.67212   0.85057   0.00000  Uiso   1.00
N808   N     0.09507   0.82791   0.14943   0.00000  Uiso   1.00
N809   N     0.42212   0.65490   0.64943   0.00000  Uiso   1.00
N810   N     0.07791   0.84508   0.35057   0.00000  Uiso   1.00
N811   N     0.26962   0.84666   0.76284   0.00000  Uiso   1.00
N812   N     0.32788   0.59510   0.85057   0.00000  Uiso   1.00
N813   N     0.23038   0.65334   0.23715   0.00000  Uiso   1.00
N814   N     0.07788   0.84510   0.64943   0.00000  Uiso   1.00
N815   N     0.42209   0.65493   0.35057   0.00000  Uiso   1.00
N816   N     0.23038   0.65334   0.76283   0.00000  Uiso   1.00
N817   N     0.26962   0.84666   0.23714   0.00000  Uiso   1.00
N818   N     0.34666   0.76962   0.23714   0.00000  Uiso   1.00
N819   N     0.15334   0.73038   0.76283   0.00000  Uiso   1.00
N820   N     0.34507   0.57791   0.35057   0.00000  Uiso   1.00
N821   N     0.15490   0.92212   0.64943   0.00000  Uiso   1.00
N822   N     0.15334   0.73038   0.23715   0.00000  Uiso   1.00
N823   N     0.01962   0.59666   0.26285   0.00000  Uiso   1.00
N824   N     0.34666   0.76962   0.76284   0.00000  Uiso   1.00
N825   N     0.15492   0.92210   0.35057   0.00000  Uiso   1.00
N826   N     0.34510   0.57788   0.64943   0.00000  Uiso   1.00
N827   N     0.48038   0.90334   0.73716   0.00000  Uiso   1.00
N828   N     0.32791   0.59507   0.14942   0.00000  Uiso   1.00
N829   N     0.17212   0.90490   0.85057   0.00000  Uiso   1.00
N830   N     0.48038   0.90334   0.26286   0.00000  Uiso   1.00
N831   N     0.01962   0.59666   0.73717   0.00000  Uiso   1.00
N832   N     0.09666   0.51962   0.73717   0.00000  Uiso   1.00
O833   O     0.25000   0.50000   0.25000   0.00000  Uiso   1.00
O834   O     0.25000   0.96964   0.66245   0.00000  Uiso   1.00
O835   O     0.46964   0.75000   0.33755   0.00000  Uiso   1.00
O836   O     0.03037   0.75000   0.66245   0.00000  Uiso   1.00
O837   O     0.00000   0.71964   0.83755   0.00000  Uiso   1.00
O838   O     0.00000   0.78036   0.16245   0.00000  Uiso   1.00
O839   O     0.28037   0.50000   0.83755   0.00000  Uiso   1.00
O840   O     0.21964   0.50000   0.16245   0.00000  Uiso   1.00
O841   O     0.00000   0.78036   0.83755   0.00000  Uiso   1.00
O842   O     0.00000   0.71964   0.16245   0.00000  Uiso   1.00
O843   O     0.21964   0.50000   0.83755   0.00000  Uiso   1.00
O844   O     0.25000   0.50000   0.75000   0.00000  Uiso   1.00
O845   O     0.28037   0.50000   0.16245   0.00000  Uiso   1.00
O846   O     0.20725   0.57308   0.27302   0.00000  Uiso   1.00
O847   O     0.29276   0.92693   0.72698   0.00000  Uiso   1.00
O848   O     0.42693   0.70725   0.27302   0.00000  Uiso   1.00
O849   O     0.07308   0.79275   0.72698   0.00000  Uiso   1.00
O850   O     0.29276   0.92693   0.27302   0.00000  Uiso   1.00
O851   O     0.20725   0.57308   0.72698   0.00000  Uiso   1.00
O852   O     0.07308   0.79275   0.27302   0.00000  Uiso   1.00
O853   O     0.42693   0.70725   0.72698   0.00000  Uiso   1.00
O854   O     0.20725   0.92692   0.72698   0.00000  Uiso   1.00
O855   O     0.00000   0.75000   0.25000   0.00000  Uiso   1.00
O856   O     0.29276   0.57308   0.27302   0.00000  Uiso   1.00
O857   O     0.42693   0.79276   0.72698   0.00000  Uiso   1.00
O858   O     0.07308   0.70724   0.27302   0.00000  Uiso   1.00
O859   O     0.29276   0.57308   0.72698   0.00000  Uiso   1.00
O860   O     0.20725   0.92692   0.27302   0.00000  Uiso   1.00
O861   O     0.07308   0.70724   0.72698   0.00000  Uiso   1.00
O862   O     0.42693   0.79276   0.27302   0.00000  Uiso   1.00
O863   O     0.45725   0.82308   0.77302   0.00000  Uiso   1.00
O864   O     0.04276   0.67692   0.22698   0.00000  Uiso   1.00
O865   O     0.17693   0.95724   0.77302   0.00000  Uiso   1.00
O866   O     0.00000   0.75000   0.75000   0.00000  Uiso   1.00
O867   O     0.32308   0.54276   0.22698   0.00000  Uiso   1.00
O868   O     0.04276   0.67692   0.77302   0.00000  Uiso   1.00
O869   O     0.45725   0.82308   0.22698   0.00000  Uiso   1.00
O870   O     0.32308   0.54276   0.77302   0.00000  Uiso   1.00
O871   O     0.17693   0.95724   0.22698   0.00000  Uiso   1.00
O872   O     0.45725   0.67693   0.22698   0.00000  Uiso   1.00
O873   O     0.04276   0.82307   0.77302   0.00000  Uiso   1.00
O874   O     0.17693   0.54276   0.22698   0.00000  Uiso   1.00
O875   O     0.32308   0.95725   0.77302   0.00000  Uiso   1.00
O876   O     0.04276   0.82307   0.22698   0.00000  Uiso   1.00
O877   O     0.25000   0.96964   0.33755   0.00000  Uiso   1.00
O878   O     0.45725   0.67693   0.77302   0.00000  Uiso   1.00
O879   O     0.32308   0.95725   0.22698   0.00000  Uiso   1.00
O880   O     0.17693   0.54276   0.77302   0.00000  Uiso   1.00
O881   O     0.25000   0.53037   0.66245   0.00000  Uiso   1.00
O882   O     0.03037   0.75000   0.33755   0.00000  Uiso   1.00
O883   O     0.46964   0.75000   0.66245   0.00000  Uiso   1.00
O884   O     0.25000   0.53037   0.33755   0.00000  Uiso   1.00
Zn885  Zn    0.20660   0.50000   0.21735   0.00000  Uiso   1.00
Zn886  Zn    0.04341   0.75000   0.28265   0.00000  Uiso   1.00
Zn887  Zn    0.25000   0.95660   0.71735   0.00000  Uiso   1.00
Zn888  Zn    0.25000   0.54341   0.28265   0.00000  Uiso   1.00
Zn889  Zn    0.04341   0.75000   0.71735   0.00000  Uiso   1.00
Zn890  Zn    0.45660   0.75000   0.28265   0.00000  Uiso   1.00
Zn891  Zn    0.25000   0.54341   0.71735   0.00000  Uiso   1.00
Zn892  Zn    0.25000   0.95660   0.28265   0.00000  Uiso   1.00
Zn893  Zn    0.29341   0.50000   0.78265   0.00000  Uiso   1.00
Zn894  Zn    0.00000   0.70659   0.21735   0.00000  Uiso   1.00
Zn895  Zn    0.00000   0.79340   0.78265   0.00000  Uiso   1.00
Zn896  Zn    0.29341   0.50000   0.21735   0.00000  Uiso   1.00
Zn897  Zn    0.20660   0.50000   0.78265   0.00000  Uiso   1.00
Zn898  Zn    0.00000   0.79340   0.21735   0.00000  Uiso   1.00
Zn899  Zn    0.00000   0.70659   0.78265   0.00000  Uiso   1.00
Zn900  Zn    0.45660   0.75000   0.71735   0.00000  Uiso   1.00
C901   C     0.96687   0.74790   0.41881   0.00000  Uiso   1.00
C902   C     0.71691   0.99736   0.08119   0.00000  Uiso   1.00
C903   C     0.74739   0.96668   0.54071   0.00000  Uiso   1.00
C904   C     0.96664   0.74787   0.45929   0.00000  Uiso   1.00
C905   C     0.53336   0.75213   0.54071   0.00000  Uiso   1.00
C906   C     0.74739   0.96668   0.45929   0.00000  Uiso   1.00
C907   C     0.75261   0.53332   0.54071   0.00000  Uiso   1.00
C908   C     0.71668   0.99732   0.95929   0.00000  Uiso   1.00
C909   C     0.78332   0.50268   0.04071   0.00000  Uiso   1.00
C910   C     0.99726   0.71669   0.95929   0.00000  Uiso   1.00
C911   C     0.50274   0.78331   0.04071   0.00000  Uiso   1.00
C912   C     0.78332   0.50268   0.95929   0.00000  Uiso   1.00
C913   C     0.50270   0.78308   0.91881   0.00000  Uiso   1.00
C914   C     0.71668   0.99732   0.04071   0.00000  Uiso   1.00
C915   C     0.50274   0.78331   0.95929   0.00000  Uiso   1.00
C916   C     0.99726   0.71669   0.04071   0.00000  Uiso   1.00
C917   C     0.59807   0.84807   0.25000   0.00000  Uiso   1.00
C918   C     0.90193   0.65193   0.75000   0.00000  Uiso   1.00
C919   C     0.65193   0.59807   0.25000   0.00000  Uiso   1.00
C920   C     0.84807   0.90193   0.75000   0.00000  Uiso   1.00
C921   C     0.90193   0.65193   0.25000   0.00000  Uiso   1.00
C922   C     0.59807   0.84807   0.75000   0.00000  Uiso   1.00
C923   C     0.84807   0.90193   0.25000   0.00000  Uiso   1.00
C924   C     0.99730   0.71692   0.08119   0.00000  Uiso   1.00
C925   C     0.65193   0.59807   0.75000   0.00000  Uiso   1.00
C926   C     0.59807   0.65193   0.75000   0.00000  Uiso   1.00
C927   C     0.90193   0.84807   0.25000   0.00000  Uiso   1.00
C928   C     0.65193   0.90193   0.75000   0.00000  Uiso   1.00
C929   C     0.84807   0.59807   0.25000   0.00000  Uiso   1.00
C930   C     0.90193   0.84807   0.75000   0.00000  Uiso   1.00
C931   C     0.59807   0.65193   0.25000   0.00000  Uiso   1.00
C932   C     0.84807   0.59807   0.75000   0.00000  Uiso   1.00
C933   C     0.65193   0.90193   0.25000   0.00000  Uiso   1.00
C934   C     0.50000   0.75000   0.47963   0.00000  Uiso   1.00
C935   C     0.71691   0.99736   0.91881   0.00000  Uiso   1.00
C936   C     0.50000   0.75000   0.52037   0.00000  Uiso   1.00
C937   C     0.75000   0.50000   0.47963   0.00000  Uiso   1.00
C938   C     0.75000   0.50000   0.52037   0.00000  Uiso   1.00
C939   C     0.75000   0.50000   0.97963   0.00000  Uiso   1.00
C940   C     0.75000   0.50000   0.02037   0.00000  Uiso   1.00
C941   C     0.50000   0.75000   0.97963   0.00000  Uiso   1.00
C942   C     0.50000   0.75000   0.02037   0.00000  Uiso   1.00
C943   C     0.65829   0.89655   0.17831   0.00000  Uiso   1.00
C944   C     0.84170   0.60347   0.82169   0.00000  Uiso   1.00
C945   C     0.54991   0.60476   0.25877   0.00000  Uiso   1.00
C946   C     0.78309   0.50264   0.08119   0.00000  Uiso   1.00
C947   C     0.95009   0.89524   0.74124   0.00000  Uiso   1.00
C948   C     0.84172   0.60345   0.17831   0.00000  Uiso   1.00
C949   C     0.65830   0.89654   0.82169   0.00000  Uiso   1.00
C950   C     0.95009   0.89524   0.25878   0.00000  Uiso   1.00
C951   C     0.54991   0.60476   0.74125   0.00000  Uiso   1.00
C952   C     0.60476   0.54992   0.74125   0.00000  Uiso   1.00
C953   C     0.89524   0.95008   0.25878   0.00000  Uiso   1.00
C954   C     0.60346   0.84170   0.82169   0.00000  Uiso   1.00
C955   C     0.89655   0.65828   0.17831   0.00000  Uiso   1.00
C956   C     0.89524   0.95008   0.74124   0.00000  Uiso   1.00
C957   C     0.99730   0.71692   0.91881   0.00000  Uiso   1.00
C958   C     0.60476   0.54992   0.25877   0.00000  Uiso   1.00
C959   C     0.89653   0.65830   0.82169   0.00000  Uiso   1.00
C960   C     0.60345   0.84172   0.17831   0.00000  Uiso   1.00
C961   C     0.90830   0.64653   0.67831   0.00000  Uiso   1.00
C962   C     0.59172   0.85345   0.32169   0.00000  Uiso   1.00
C963   C     0.79991   0.85476   0.75876   0.00000  Uiso   1.00
C964   C     0.70009   0.64524   0.24123   0.00000  Uiso   1.00
C965   C     0.59170   0.85347   0.67831   0.00000  Uiso   1.00
C966   C     0.90828   0.64655   0.32169   0.00000  Uiso   1.00
C967   C     0.70009   0.64524   0.75875   0.00000  Uiso   1.00
C968   C     0.50270   0.78308   0.08119   0.00000  Uiso   1.00
C969   C     0.79992   0.85476   0.24122   0.00000  Uiso   1.00
C970   C     0.85476   0.79992   0.24123   0.00000  Uiso   1.00
C971   C     0.64524   0.70009   0.75875   0.00000  Uiso   1.00
C972   C     0.85345   0.59172   0.32169   0.00000  Uiso   1.00
C973   C     0.64654   0.90830   0.67831   0.00000  Uiso   1.00
C974   C     0.64524   0.70008   0.24123   0.00000  Uiso   1.00
C975   C     0.85476   0.79992   0.75876   0.00000  Uiso   1.00
C976   C     0.64655   0.90829   0.32169   0.00000  Uiso   1.00
C977   C     0.85347   0.59170   0.67831   0.00000  Uiso   1.00
C978   C     0.50000   0.75000   0.39847   0.00000  Uiso   1.00
C979   C     0.50000   0.75000   0.60153   0.00000  Uiso   1.00
C980   C     0.75000   0.50000   0.39847   0.00000  Uiso   1.00
C981   C     0.53313   0.75210   0.58119   0.00000  Uiso   1.00
C982   C     0.75000   0.50000   0.60153   0.00000  Uiso   1.00
C983   C     0.75000   0.50000   0.89847   0.00000  Uiso   1.00
C984   C     0.75000   0.50000   0.10153   0.00000  Uiso   1.00
C985   C     0.50000   0.75000   0.89847   0.00000  Uiso   1.00
C986   C     0.50000   0.75000   0.10153   0.00000  Uiso   1.00
C987   C     0.56636   0.75426   0.47976   0.00000  Uiso   1.00
C988   C     0.93364   0.74574   0.52025   0.00000  Uiso   1.00
C989   C     0.75521   0.56629   0.47975   0.00000  Uiso   1.00
C990   C     0.74479   0.93371   0.52025   0.00000  Uiso   1.00
C991   C     0.93364   0.74574   0.47975   0.00000  Uiso   1.00
C992   C     0.74743   0.96691   0.41881   0.00000  Uiso   1.00
C993   C     0.56636   0.75426   0.52025   0.00000  Uiso   1.00
C994   C     0.74479   0.93371   0.47975   0.00000  Uiso   1.00
C995   C     0.75521   0.56629   0.52025   0.00000  Uiso   1.00
C996   C     0.68372   0.99464   0.97975   0.00000  Uiso   1.00
C997   C     0.81628   0.50536   0.02025   0.00000  Uiso   1.00
C998   C     0.99453   0.68373   0.97975   0.00000  Uiso   1.00
C999   C     0.50547   0.81627   0.02025   0.00000  Uiso   1.00
C1000  C     0.81628   0.50536   0.97976   0.00000  Uiso   1.00
C1001  C     0.68372   0.99464   0.02025   0.00000  Uiso   1.00
C1002  C     0.50547   0.81627   0.97975   0.00000  Uiso   1.00
C1003  C     0.75257   0.53309   0.58119   0.00000  Uiso   1.00
C1004  C     0.99453   0.68373   0.02025   0.00000  Uiso   1.00
C1005  C     0.75000   0.50000   0.35599   0.00000  Uiso   1.00
C1006  C     0.75000   0.50000   0.64401   0.00000  Uiso   1.00
C1007  C     0.50000   0.75000   0.35599   0.00000  Uiso   1.00
C1008  C     0.50000   0.75000   0.64401   0.00000  Uiso   1.00
C1009  C     0.50000   0.75000   0.85599   0.00000  Uiso   1.00
C1010  C     0.50000   0.75000   0.14401   0.00000  Uiso   1.00
C1011  C     0.75000   0.50000   0.85599   0.00000  Uiso   1.00
C1012  C     0.75000   0.50000   0.14401   0.00000  Uiso   1.00
C1013  C     0.68004   0.56996   0.25000   0.00000  Uiso   1.00
C1014  C     0.53313   0.75210   0.41881   0.00000  Uiso   1.00
C1015  C     0.81996   0.93004   0.75000   0.00000  Uiso   1.00
C1016  C     0.93004   0.68004   0.25000   0.00000  Uiso   1.00
C1017  C     0.56996   0.81996   0.75000   0.00000  Uiso   1.00
C1018  C     0.81996   0.93004   0.25000   0.00000  Uiso   1.00
C1019  C     0.68004   0.56996   0.75000   0.00000  Uiso   1.00
C1020  C     0.56996   0.81996   0.25000   0.00000  Uiso   1.00
C1021  C     0.93004   0.68004   0.75000   0.00000  Uiso   1.00
C1022  C     0.68004   0.93004   0.75000   0.00000  Uiso   1.00
C1023  C     0.81996   0.56996   0.25000   0.00000  Uiso   1.00
C1024  C     0.93004   0.81996   0.75000   0.00000  Uiso   1.00
C1025  C     0.96687   0.74790   0.58119   0.00000  Uiso   1.00
C1026  C     0.56996   0.68004   0.25000   0.00000  Uiso   1.00
C1027  C     0.81996   0.56996   0.75000   0.00000  Uiso   1.00
C1028  C     0.68004   0.93004   0.25000   0.00000  Uiso   1.00
C1029  C     0.56996   0.68004   0.75000   0.00000  Uiso   1.00
C1030  C     0.93004   0.81996   0.25000   0.00000  Uiso   1.00
C1031  C     0.64096   0.88605   0.21458   0.00000  Uiso   1.00
C1032  C     0.85903   0.61396   0.78542   0.00000  Uiso   1.00
C1033  C     0.58795   0.61496   0.25365   0.00000  Uiso   1.00
C1034  C     0.91206   0.88504   0.74635   0.00000  Uiso   1.00
C1035  C     0.85904   0.61395   0.21458   0.00000  Uiso   1.00
C1036  C     0.75257   0.53309   0.41881   0.00000  Uiso   1.00
C1037  C     0.64097   0.88604   0.78542   0.00000  Uiso   1.00
C1038  C     0.91205   0.88504   0.25366   0.00000  Uiso   1.00
C1039  C     0.58794   0.61496   0.74636   0.00000  Uiso   1.00
C1040  C     0.61496   0.58795   0.74636   0.00000  Uiso   1.00
C1041  C     0.88504   0.91205   0.25366   0.00000  Uiso   1.00
C1042  C     0.61396   0.85904   0.78542   0.00000  Uiso   1.00
C1043  C     0.88605   0.64096   0.21458   0.00000  Uiso   1.00
C1044  C     0.88504   0.91205   0.74635   0.00000  Uiso   1.00
C1045  C     0.61496   0.58795   0.25365   0.00000  Uiso   1.00
C1046  C     0.88604   0.64097   0.78542   0.00000  Uiso   1.00
C1047  C     0.74743   0.96691   0.58119   0.00000  Uiso   1.00
C1048  C     0.61395   0.85904   0.21458   0.00000  Uiso   1.00
C1049  C     0.89097   0.63604   0.71458   0.00000  Uiso   1.00
C1050  C     0.60904   0.86395   0.28542   0.00000  Uiso   1.00
C1051  C     0.83795   0.86496   0.75365   0.00000  Uiso   1.00
C1052  C     0.66205   0.63504   0.24635   0.00000  Uiso   1.00
C1053  C     0.60903   0.86396   0.71458   0.00000  Uiso   1.00
C1054  C     0.89096   0.63605   0.28542   0.00000  Uiso   1.00
C1055  C     0.66206   0.63504   0.75364   0.00000  Uiso   1.00
C1056  C     0.83795   0.86496   0.24635   0.00000  Uiso   1.00
C1057  C     0.86496   0.83795   0.24635   0.00000  Uiso   1.00
C1058  C     0.78309   0.50264   0.91881   0.00000  Uiso   1.00
C1059  C     0.63505   0.66205   0.75364   0.00000  Uiso   1.00
C1060  C     0.86395   0.60904   0.28542   0.00000  Uiso   1.00
C1061  C     0.63604   0.89096   0.71458   0.00000  Uiso   1.00
C1062  C     0.63504   0.66205   0.24635   0.00000  Uiso   1.00
C1063  C     0.86496   0.83795   0.75365   0.00000  Uiso   1.00
C1064  C     0.63605   0.89096   0.28542   0.00000  Uiso   1.00
C1065  C     0.86396   0.60903   0.71458   0.00000  Uiso   1.00
C1066  C     0.53336   0.75213   0.45929   0.00000  Uiso   1.00
C1067  C     0.96664   0.74787   0.54071   0.00000  Uiso   1.00
C1068  C     0.75261   0.53332   0.45929   0.00000  Uiso   1.00
H1069  H     0.59215   0.75591   0.46445   0.00000  Uiso   1.00
H1070  H     0.84204   0.50745   0.03556   0.00000  Uiso   1.00
H1071  H     0.99240   0.65798   0.96445   0.00000  Uiso   1.00
H1072  H     0.50760   0.84202   0.03555   0.00000  Uiso   1.00
H1073  H     0.84204   0.50745   0.96445   0.00000  Uiso   1.00
H1074  H     0.65796   0.99255   0.03555   0.00000  Uiso   1.00
H1075  H     0.50760   0.84202   0.96445   0.00000  Uiso   1.00
H1076  H     0.99240   0.65798   0.03555   0.00000  Uiso   1.00
H1077  H     0.94124   0.74620   0.40318   0.00000  Uiso   1.00
H1078  H     0.55876   0.75379   0.59682   0.00000  Uiso   1.00
H1079  H     0.74536   0.94130   0.40318   0.00000  Uiso   1.00
H1080  H     0.90785   0.74409   0.53555   0.00000  Uiso   1.00
H1081  H     0.75464   0.55870   0.59682   0.00000  Uiso   1.00
H1082  H     0.55876   0.75379   0.40318   0.00000  Uiso   1.00
H1083  H     0.94124   0.74620   0.59682   0.00000  Uiso   1.00
H1084  H     0.75464   0.55870   0.40318   0.00000  Uiso   1.00
H1085  H     0.74536   0.94130   0.59682   0.00000  Uiso   1.00
H1086  H     0.80869   0.50477   0.90318   0.00000  Uiso   1.00
H1087  H     0.69131   0.99523   0.09682   0.00000  Uiso   1.00
H1088  H     0.50487   0.80868   0.90318   0.00000  Uiso   1.00
H1089  H     0.99513   0.69132   0.09682   0.00000  Uiso   1.00
H1090  H     0.69131   0.99523   0.90318   0.00000  Uiso   1.00
H1091  H     0.75724   0.59205   0.46445   0.00000  Uiso   1.00
H1092  H     0.80869   0.50477   0.09682   0.00000  Uiso   1.00
H1093  H     0.99513   0.69132   0.90318   0.00000  Uiso   1.00
H1094  H     0.50487   0.80868   0.09682   0.00000  Uiso   1.00
H1095  H     0.74276   0.90795   0.53555   0.00000  Uiso   1.00
H1096  H     0.90785   0.74409   0.46445   0.00000  Uiso   1.00
H1097  H     0.59215   0.75591   0.53555   0.00000  Uiso   1.00
H1098  H     0.74276   0.90795   0.46445   0.00000  Uiso   1.00
H1099  H     0.75724   0.59205   0.53555   0.00000  Uiso   1.00
H1100  H     0.65796   0.99255   0.96445   0.00000  Uiso   1.00
N1101  N     0.67209   0.90492   0.14943   0.00000  Uiso   1.00
N1102  N     0.90334   0.98038   0.26286   0.00000  Uiso   1.00
N1103  N     0.59510   0.82789   0.85057   0.00000  Uiso   1.00
N1104  N     0.90493   0.67209   0.14943   0.00000  Uiso   1.00
N1105  N     0.90334   0.98038   0.73716   0.00000  Uiso   1.00
N1106  N     0.59666   0.51962   0.26285   0.00000  Uiso   1.00
N1107  N     0.90490   0.67212   0.85057   0.00000  Uiso   1.00
N1108  N     0.59507   0.82791   0.14943   0.00000  Uiso   1.00
N1109  N     0.92212   0.65490   0.64943   0.00000  Uiso   1.00
N1110  N     0.57791   0.84508   0.35057   0.00000  Uiso   1.00
N1111  N     0.76962   0.84666   0.76284   0.00000  Uiso   1.00
N1112  N     0.82788   0.59510   0.85057   0.00000  Uiso   1.00
N1113  N     0.73038   0.65334   0.23715   0.00000  Uiso   1.00
N1114  N     0.57788   0.84510   0.64943   0.00000  Uiso   1.00
N1115  N     0.92209   0.65493   0.35057   0.00000  Uiso   1.00
N1116  N     0.73038   0.65334   0.76283   0.00000  Uiso   1.00
N1117  N     0.76962   0.84666   0.23714   0.00000  Uiso   1.00
N1118  N     0.84666   0.76962   0.23714   0.00000  Uiso   1.00
N1119  N     0.65334   0.73038   0.76283   0.00000  Uiso   1.00
N1120  N     0.84507   0.57791   0.35057   0.00000  Uiso   1.00
N1121  N     0.65490   0.92212   0.64943   0.00000  Uiso   1.00
N1122  N     0.65334   0.73038   0.23715   0.00000  Uiso   1.00
N1123  N     0.51962   0.59666   0.26285   0.00000  Uiso   1.00
N1124  N     0.84666   0.76962   0.76284   0.00000  Uiso   1.00
N1125  N     0.65492   0.92210   0.35057   0.00000  Uiso   1.00
N1126  N     0.84510   0.57788   0.64943   0.00000  Uiso   1.00
N1127  N     0.98038   0.90334   0.73716   0.00000  Uiso   1.00
N1128  N     0.82791   0.59507   0.14942   0.00000  Uiso   1.00
N1129  N     0.67212   0.90490   0.85057   0.00000  Uiso   1.00
N1130  N     0.98038   0.90334   0.26286   0.00000  Uiso   1.00
N1131  N     0.51962   0.59666   0.73717   0.00000  Uiso   1.00
N1132  N     0.59666   0.51962   0.73717   0.00000  Uiso   1.00
O1133  O     0.75000   0.50000   0.25000   0.00000  Uiso   1.00
O1134  O     0.75000   0.96964   0.66245   0.00000  Uiso   1.00
O1135  O     0.96964   0.75000   0.33755   0.00000  Uiso   1.00
O1136  O     0.53037   0.75000   0.66245   0.00000  Uiso   1.00
O1137  O     0.50000   0.71964   0.83755   0.00000  Uiso   1.00
O1138  O     0.50000   0.78036   0.16245   0.00000  Uiso   1.00
O1139  O     0.78037   0.50000   0.83755   0.00000  Uiso   1.00
O1140  O     0.71964   0.50000   0.16245   0.00000  Uiso   1.00
O1141  O     0.50000   0.78036   0.83755   0.00000  Uiso   1.00
O1142  O     0.50000   0.71964   0.16245   0.00000  Uiso   1.00
O1143  O     0.71964   0.50000   0.83755   0.00000  Uiso   1.00
O1144  O     0.75000   0.50000   0.75000   0.00000  Uiso   1.00
O1145  O     0.78037   0.50000   0.16245   0.00000  Uiso   1.00
O1146  O     0.70725   0.57308   0.27302   0.00000  Uiso   1.00
O1147  O     0.79276   0.92693   0.72698   0.00000  Uiso   1.00
O1148  O     0.92693   0.70725   0.27302   0.00000  Uiso   1.00
O1149  O     0.57308   0.79275   0.72698   0.00000  Uiso   1.00
O1150  O     0.79276   0.92693   0.27302   0.00000  Uiso   1.00
O1151  O     0.70725   0.57308   0.72698   0.00000  Uiso   1.00
O1152  O     0.57308   0.79275   0.27302   0.00000  Uiso   1.00
O1153  O     0.92693   0.70725   0.72698   0.00000  Uiso   1.00
O1154  O     0.70725   0.92692   0.72698   0.00000  Uiso   1.00
O1155  O     0.50000   0.75000   0.25000   0.00000  Uiso   1.00
O1156  O     0.79276   0.57308   0.27302   0.00000  Uiso   1.00
O1157  O     0.92693   0.79276   0.72698   0.00000  Uiso   1.00
O1158  O     0.57308   0.70724   0.27302   0.00000  Uiso   1.00
O1159  O     0.79276   0.57308   0.72698   0.00000  Uiso   1.00
O1160  O     0.70725   0.92692   0.27302   0.00000  Uiso   1.00
O1161  O     0.57308   0.70724   0.72698   0.00000  Uiso   1.00
O1162  O     0.92693   0.79276   0.27302   0.00000  Uiso   1.00
O1163  O     0.95725   0.82308   0.77302   0.00000  Uiso   1.00
O1164  O     0.54276   0.67692   0.22698   0.00000  Uiso   1.00
O1165  O     0.67693   0.95724   0.77302   0.00000  Uiso   1.00
O1166  O     0.50000   0.75000   0.75000   0.00000  Uiso   1.00
O1167  O     0.82308   0.54276   0.22698   0.00000  Uiso   1.00
O1168  O     0.54276   0.67692   0.77302   0.00000  Uiso   1.00
O1169  O     0.95725   0.82308   0.22698   0.00000  Uiso   1.00
O1170  O     0.82308   0.54276   0.77302   0.00000  Uiso   1.00
O1171  O     0.67693   0.95724   0.22698   0.00000  Uiso   1.00
O1172  O     0.95725   0.67693   0.22698   0.00000  Uiso   1.00
O1173  O     0.54276   0.82307   0.77302   0.00000  Uiso   1.00
O1174  O     0.67693   0.54276   0.22698   0.00000  Uiso   1.00
O1175  O     0.82308   0.95725   0.77302   0.00000  Uiso   1.00
O1176  O     0.54276   0.82307   0.22698   0.00000  Uiso   1.00
O1177  O     0.75000   0.96964   0.33755   0.00000  Uiso   1.00
O1178  O     0.95725   0.67693   0.77302   0.00000  Uiso   1.00
O1179  O     0.82308   0.95725   0.22698   0.00000  Uiso   1.00
O1180  O     0.67693   0.54276   0.77302   0.00000  Uiso   1.00
O1181  O     0.75000   0.53037   0.66245   0.00000  Uiso   1.00
O1182  O     0.53037   0.75000   0.33755   0.00000  Uiso   1.00
O1183  O     0.96964   0.75000   0.66245   0.00000  Uiso   1.00
O1184  O     0.75000   0.53037   0.33755   0.00000  Uiso   1.00
Zn1185 Zn    0.70660   0.50000   0.21735   0.00000  Uiso   1.00
Zn1186 Zn    0.54341   0.75000   0.28265   0.00000  Uiso   1.00
Zn1187 Zn    0.75000   0.95660   0.71735   0.00000  Uiso   1.00
Zn1188 Zn    0.75000   0.54341   0.28265   0.00000  Uiso   1.00
Zn1189 Zn    0.54341   0.75000   0.71735   0.00000  Uiso   1.00
Zn1190 Zn    0.95660   0.75000   0.28265   0.00000  Uiso   1.00
Zn1191 Zn    0.75000   0.54341   0.71735   0.00000  Uiso   1.00
Zn1192 Zn    0.75000   0.95660   0.28265   0.00000  Uiso   1.00
Zn1193 Zn    0.79341   0.50000   0.78265   0.00000  Uiso   1.00
Zn1194 Zn    0.50000   0.70659   0.21735   0.00000  Uiso   1.00
Zn1195 Zn    0.50000   0.79340   0.78265   0.00000  Uiso   1.00
Zn1196 Zn    0.79341   0.50000   0.21735   0.00000  Uiso   1.00
Zn1197 Zn    0.70660   0.50000   0.78265   0.00000  Uiso   1.00
Zn1198 Zn    0.50000   0.79340   0.21735   0.00000  Uiso   1.00
Zn1199 Zn    0.50000   0.70659   0.78265   0.00000  Uiso   1.00
Zn1200 Zn    0.95660   0.75000   0.71735   0.00000  Uiso   1.00
loop_
_geom_bond_atom_site_label_1
_geom_bond_atom_site_label_2
_geom_bond_distance
_geom_bond_site_symmetry_2
_ccdc_geom_bond_type
C1     C4      1.394   .     A
C1     H177    1.084   .     S
C1     C378    1.404   .     S
C2     C14     1.394   .     A
C2     H187    1.084   .     S
C2     C684    1.404   .     S
C3     C147    1.394   .     A
C3     C90     1.402   .     A
C3     C638    1.411   .     S
C4     C91     1.402   .     A
C4     C334    1.411   .     S
C5     C36     1.411   .     A
C5     C81     1.394   .     A
C5     C93     1.402   .     A
C6     C94     1.402   .     A
C6     C92     1.394   .     A
C6     C637    1.411   .     S
C7     C103    1.394   .     A
C7     C95     1.402   .     A
C7     C38     1.411   .     A
C8     C35     1.394   .     A
C8     C96     1.402   .     A
C8     C639    1.411   .     S
C9     C97     1.402   .     A
C9     C46     1.394   .     A
C9     C40     1.411   .     A
C10    C341    1.411   .     A
C10    C98     1.402   .     A
C10    C57     1.394   .     A
C11    C99     1.402   .     A
C11    C68     1.394   .     A
C11    C42     1.411   .     S
C12    C158    1.394   .     A
C12    C39     1.411   .     A
C12    C100    1.402   .     A
C13    H188    1.084   .     S
C13    C15     1.394   .     A
C13    C85     1.403   .     S
C14    C101    1.402   .     A
C14    C640    1.411   .     S
C15    C102    1.402   .     A
C15    C41     1.411   .     S
C16    C104    1.402   .     A
C16    C24     1.394   .     A
C16    C342    1.411   .     A
C17    C120    1.456   .     S
C17    C148    1.410   .     A
C17    C150    1.410   .     A
C18    C121    1.456   .     S
C18    C149    1.410   .     A
C18    C146    1.410   .     A
C19    C113    1.456   .     S
C19    C145    1.410   .     A
C19    C152    1.410   .     A
C20    C144    1.410   .     A
C20    C151    1.410   .     A
C20    C115    1.456   .     S
C21    C116    1.456   .     S
C21    C154    1.410   .     A
C21    C143    1.410   .     A
C22    C142    1.410   .     A
C22    C153    1.410   .     A
C22    C117    1.456   .     S
C23    C118    1.456   .     S
C23    C141    1.410   .     A
C23    C156    1.410   .     A
C24    C386    1.403   .     A
C24    H189    1.084   .     S
C25    C119    1.456   .     S
C25    C140    1.410   .     A
C25    C155    1.410   .     A
C26    C139    1.410   .     A
C26    C159    1.410   .     A
C26    C129    1.456   .     S
C27    C138    1.410   .     A
C27    C157    1.410   .     A
C27    C130    1.456   .     S
C28    C137    1.410   .     A
C28    C122    1.456   .     S
C28    C161    1.410   .     A
C29    C135    1.410   .     A
C29    C160    1.410   .     A
C29    C123    1.456   .     S
C30    C134    1.410   .     A
C30    C163    1.410   .     A
C30    C124    1.456   .     S
C31    C162    1.410   .     A
C31    C133    1.410   .     A
C31    C126    1.456   .     S
C32    C127    1.456   .     S
C32    C165    1.410   .     A
C32    C132    1.410   .     A
C33    C164    1.410   .     A
C33    C131    1.410   .     A
C33    C128    1.456   .     S
C34    C36     1.403   .     A
C34    C166    1.411   .     A
C34    C304    1.411   1_455 S
C35    H190    1.084   .     S
C35    C683    1.403   .     S
C36    C467    1.411   1_455 S
C37    C168    1.411   .     A
C37    C38     1.403   .     A
C37    C606    1.411   1_545 S
C38    C603    1.411   1_545 S
C39    C608    1.411   1_545 S
C39    C40     1.403   1_556 S
C40    C614    1.411   1_545 S
C40    C39     1.403   1_554 S
C41    C310    1.411   1_455 A
C41    C42     1.403   1_556 S
C42    C316    1.411   1_455 A
C42    C41     1.403   1_554 S
C43    N201    1.158   .     T
C43    C131    1.453   .     S
C44    N212    1.157   .     T
C44    C132    1.453   .     S
C45    C133    1.453   .     S
C45    N223    1.157   .     T
C46    C84     1.404   .     A
C46    H192    1.084   .     S
C47    C134    1.453   .     S
C47    N227    1.157   .     T
C48    C135    1.453   .     S
C48    N228    1.157   .     T
C49    C137    1.453   .     S
C49    N229    1.157   .     T
C50    C138    1.453   .     S
C50    N230    1.157   .     T
C51    N231    1.157   .     T
C51    C139    1.453   .     S
C52    C140    1.453   .     S
C52    N232    1.157   .     T
C53    N202    1.157   .     T
C53    C141    1.453   .     S
C54    C142    1.453   .     S
C54    N203    1.157   .     T
C55    C143    1.453   .     S
C55    N204    1.157   .     T
C56    N205    1.157   .     T
C56    C144    1.453   .     S
C57    C385    1.403   .     A
C57    H193    1.084   .     S
C58    C145    1.453   .     S
C58    N206    1.157   .     T
C59    N207    1.157   .     T
C59    C146    1.453   .     S
C60    C148    1.453   .     S
C60    N208    1.157   .     T
C61    C149    1.453   .     S
C61    N209    1.157   .     T
C62    C150    1.453   .     S
C62    N210    1.157   .     T
C63    N211    1.157   .     T
C63    C151    1.453   .     S
C64    C152    1.453   .     S
C64    N213    1.157   .     T
C65    C153    1.453   .     S
C65    N214    1.157   .     T
C66    N215    1.157   .     T
C66    C154    1.453   .     S
C67    N216    1.157   .     T
C67    C155    1.453   .     S
C68    H194    1.084   .     S
C68    C86     1.403   .     S
C69    C156    1.453   .     S
C69    N217    1.157   .     T
C70    N218    1.157   .     T
C70    C157    1.453   .     S
C71    N219    1.157   .     T
C71    C159    1.453   .     S
C72    N220    1.157   .     T
C72    C160    1.453   .     S
C73    C161    1.453   .     S
C73    N221    1.158   .     T
C74    C162    1.453   .     S
C74    N222    1.157   .     T
C75    N224    1.157   .     T
C75    C163    1.453   .     S
C76    N225    1.157   .     T
C76    C164    1.453   .     S
C77    N226    1.157   .     T
C77    C165    1.453   .     S
C78    C114    1.403   .     A
C78    C107    1.463   .     S
C78    C301    1.404   1_455 S
C79    C108    1.463   .     S
C79    C425    1.403   1_455 A
C79    C81     1.404   .     S
C80    C136    1.404   .     A
C80    C692    1.403   1_545 S
C80    C105    1.463   .     S
C81    H178    1.084   .     S
C82    C747    1.404   1_545 A
C82    C106    1.463   .     S
C82    C103    1.403   .     S
C83    C111    1.463   .     S
C83    C158    1.404   .     A
C83    C635    1.403   1_545 S
C84    C112    1.463   .     S
C84    C602    1.404   1_545 S
C85    C357    1.403   1_455 A
C85    C109    1.463   .     S
C86    C324    1.403   1_455 A
C86    C110    1.463   .     S
C87    H169    1.084   .     S
C87    C93     1.395   .     A
C87    C166    1.402   .     A
C88    C91     1.395   .     A
C88    H180    1.084   .     S
C88    C167    1.402   .     A
C89    C95     1.395   .     A
C89    C168    1.402   .     A
C89    H191    1.084   .     S
C90    H195    1.084   .     S
C90    C94     1.395   .     A
C91    H196    1.084   .     S
C92    H179    1.084   .     S
C92    C680    1.403   .     S
C93    H197    1.084   .     S
C94    H198    1.084   .     S
C95    H199    1.084   .     S
C96    H200    1.084   .     S
C96    C101    1.395   1_556 S
C97    H170    1.084   .     S
C97    C100    1.395   1_554 S
C98    H171    1.084   .     S
C98    C104    1.395   1_556 S
C99    H172    1.084   .     S
C99    C102    1.395   1_554 S
C100   H173    1.084   .     S
C100   C97     1.395   1_556 S
C101   H174    1.084   .     S
C101   C96     1.395   1_554 S
C102   H175    1.084   .     S
C102   C99     1.395   1_556 S
C103   H181    1.084   .     S
C104   H176    1.084   .     S
C104   C98     1.395   1_554 S
C105   O877    1.281   1_545 A
C105   O284    1.281   .     S
C106   O834    1.281   1_545 A
C106   O281    1.281   .     S
C107   O282    1.281   .     A
C107   O535    1.281   1_455 S
C108   O583    1.281   1_455 A
C108   O236    1.281   .     S
C109   O237    1.281   .     A
C109   O241    1.281   .     S
C110   O238    1.281   .     A
C110   O242    1.281   .     S
C111   O239    1.281   .     S
C111   O243    1.281   .     S
C112   O240    1.281   .     S
C112   O245    1.281   .     S
C113   O246    1.279   .     A
C113   O274    1.279   .     A
C114   C166    1.394   .     A
C114   H182    1.084   .     S
C115   O247    1.279   .     A
C115   O275    1.279   .     A
C116   O272    1.279   .     A
C116   O248    1.279   .     A
C117   O273    1.279   .     A
C117   O249    1.279   .     A
C118   O250    1.279   .     A
C118   O279    1.279   .     A
C119   O251    1.279   .     A
C119   O280    1.279   .     A
C120   O252    1.279   .     A
C120   O276    1.279   .     A
C121   O253    1.279   .     A
C121   O278    1.279   .     A
C122   O254    1.279   .     A
C122   O265    1.279   .     A
C123   O256    1.279   .     A
C123   O267    1.279   .     A
C124   O257    1.279   .     A
C124   O263    1.279   .     A
C125   C379    1.403   .     A
C125   C167    1.394   .     A
C125   H183    1.084   .     S
C126   O258    1.279   .     A
C126   O264    1.279   .     A
C127   O270    1.279   .     A
C127   O259    1.279   .     A
C128   O260    1.279   .     A
C128   O271    1.279   .     A
C129   O268    1.279   .     A
C129   O261    1.279   .     A
C130   O269    1.279   .     A
C130   O262    1.279   .     A
C131   C148    1.399   .     A
C132   C146    1.399   .     A
C133   C145    1.400   .     A
C134   C144    1.400   .     A
C135   C143    1.399   .     A
C136   H184    1.084   .     S
C136   C168    1.394   .     A
C137   C142    1.399   .     A
C138   C141    1.400   .     A
C139   C140    1.400   .     A
C147   C682    1.404   .     A
C147   H185    1.084   .     S
C149   C165    1.399   .     A
C150   C164    1.399   .     A
C151   C163    1.400   .     A
C152   C162    1.400   .     A
C153   C161    1.399   .     A
C154   C160    1.399   .     A
C155   C159    1.400   .     A
C156   C157    1.400   .     A
C158   H186    1.084   .     S
C167   C336    1.411   .     S
O233   Zn288   1.948   .     S
O233   Zn285   1.948   .     S
O233   Zn892   1.948   1_545 S
O233   Zn296   1.948   .     S
O234   Zn287   1.950   .     S
O234   C706    1.281   .     A
O235   Zn290   1.950   .     S
O235   C407    1.281   .     S
O236   Zn289   1.950   .     S
O237   Zn299   1.950   .     S
O238   Zn298   1.950   .     S
O239   Zn293   1.950   .     S
O240   Zn285   1.950   .     S
O241   Zn295   1.950   .     S
O242   Zn294   1.950   .     S
O243   Zn297   1.950   .     S
O244   Zn291   1.948   .     S
O244   Zn293   1.948   .     S
O244   Zn297   1.948   .     S
O244   Zn887   1.948   1_545 S
O245   Zn296   1.950   .     S
O246   Zn288   1.935   .     S
O247   Zn287   1.935   .     S
O248   Zn290   1.935   .     S
O249   Zn289   1.935   .     S
O250   Zn292   1.935   .     S
O251   Zn291   1.935   .     S
O252   Zn286   1.935   .     S
O253   Zn300   1.935   .     S
O254   Zn287   1.935   .     S
O255   Zn286   1.948   .     S
O255   Zn294   1.948   .     S
O255   Zn298   1.948   .     S
O255   Zn590   1.948   1_455 S
O256   Zn288   1.935   .     S
O257   Zn300   1.935   .     S
O258   Zn286   1.935   .     S
O259   Zn291   1.935   .     S
O260   Zn292   1.935   .     S
O261   Zn289   1.935   .     S
O262   Zn290   1.935   .     S
O263   Zn595   1.935   .     S
O264   Zn294   1.935   .     S
O265   Zn897   1.935   .     S
O266   Zn600   1.948   1_455 S
O266   Zn289   1.948   .     S
O266   Zn295   1.948   .     S
O266   Zn299   1.948   .     S
O267   Zn296   1.935   .     S
O268   Zn299   1.935   .     S
O269   Zn598   1.935   .     S
O270   Zn293   1.935   .     S
O271   Zn885   1.935   .     S
O272   Zn594   1.935   .     S
O273   Zn295   1.935   .     S
O274   Zn285   1.935   .     S
O275   Zn893   1.935   .     S
O276   Zn298   1.935   .     S
O277   Zn292   1.950   .     S
O277   C705    1.281   .     A
O278   Zn599   1.935   .     S
O279   Zn896   1.935   .     S
O280   Zn297   1.935   .     S
O281   Zn291   1.950   .     S
O282   Zn286   1.950   .     S
O283   Zn300   1.950   .     S
O283   C408    1.281   .     A
O284   Zn288   1.950   .     S
Zn285  O871    1.935   1_545 S
Zn287  O844    1.948   .     S
Zn290  O555    1.948   .     S
Zn292  O833    1.948   .     S
Zn293  O875    1.935   1_545 S
Zn294  O572    1.935   1_455 S
Zn295  O563    1.935   1_455 S
Zn296  O879    1.935   1_545 S
Zn297  O865    1.935   1_545 S
Zn298  O569    1.935   1_455 S
Zn299  O578    1.935   1_455 S
Zn300  O566    1.948   .     S
C301   C304    1.394   .     A
C301   H477    1.084   .     S
C301   C78     1.404   1_655 S
C302   C314    1.394   .     A
C302   H487    1.084   .     S
C302   C984    1.404   .     S
C303   C447    1.394   .     A
C303   C390    1.402   .     A
C303   C938    1.411   .     S
C304   C391    1.402   .     A
C304   C34     1.411   1_655 S
C305   C336    1.411   .     A
C305   C381    1.394   .     A
C305   C393    1.402   .     A
C306   C394    1.402   .     A
C306   C392    1.394   .     A
C306   C937    1.411   .     S
C307   C403    1.394   .     A
C307   C395    1.402   .     A
C307   C338    1.411   .     A
C308   C335    1.394   .     A
C308   C396    1.402   .     A
C308   C939    1.411   .     S
C309   C397    1.402   .     A
C309   C346    1.394   .     A
C309   C340    1.411   .     A
C310   C41     1.411   1_655 A
C310   C398    1.402   .     A
C310   C357    1.394   .     A
C311   C399    1.402   .     A
C311   C368    1.394   .     A
C311   C342    1.411   .     S
C312   C458    1.394   .     A
C312   C339    1.411   .     A
C312   C400    1.402   .     A
C313   H488    1.084   .     S
C313   C315    1.394   .     A
C313   C385    1.403   .     S
C314   C401    1.402   .     A
C314   C940    1.411   .     S
C315   C402    1.402   .     A
C315   C341    1.411   .     S
C316   C404    1.402   .     A
C316   C324    1.394   .     A
C316   C42     1.411   1_655 A
C317   C420    1.456   .     S
C317   C448    1.410   .     A
C317   C450    1.410   .     A
C318   C421    1.456   .     S
C318   C449    1.410   .     A
C318   C446    1.410   .     A
C319   C413    1.456   .     S
C319   C445    1.410   .     A
C319   C452    1.410   .     A
C320   C444    1.410   .     A
C320   C451    1.410   .     A
C320   C415    1.456   .     S
C321   C416    1.456   .     S
C321   C454    1.410   .     A
C321   C443    1.410   .     A
C322   C442    1.410   .     A
C322   C453    1.410   .     A
C322   C417    1.456   .     S
C323   C418    1.456   .     S
C323   C441    1.410   .     A
C323   C456    1.410   .     A
C324   C86     1.403   1_655 A
C324   H489    1.084   .     S
C325   C419    1.456   .     S
C325   C440    1.410   .     A
C325   C455    1.410   .     A
C326   C439    1.410   .     A
C326   C459    1.410   .     A
C326   C429    1.456   .     S
C327   C438    1.410   .     A
C327   C457    1.410   .     A
C327   C430    1.456   .     S
C328   C437    1.410   .     A
C328   C422    1.456   .     S
C328   C461    1.410   .     A
C329   C435    1.410   .     A
C329   C460    1.410   .     A
C329   C423    1.456   .     S
C330   C434    1.410   .     A
C330   C463    1.410   .     A
C330   C424    1.456   .     S
C331   C462    1.410   .     A
C331   C433    1.410   .     A
C331   C426    1.456   .     S
C332   C427    1.456   .     S
C332   C465    1.410   .     A
C332   C432    1.410   .     A
C333   C464    1.410   .     A
C333   C431    1.410   .     A
C333   C428    1.456   .     S
C334   C336    1.403   .     A
C334   C466    1.411   .     A
C335   H490    1.084   .     S
C335   C983    1.403   .     S
C337   C468    1.411   .     A
C337   C338    1.403   .     A
C337   C906    1.411   1_545 S
C338   C903    1.411   1_545 S
C339   C908    1.411   1_545 S
C339   C340    1.403   1_556 S
C340   C914    1.411   1_545 S
C340   C339    1.403   1_554 S
C341   C342    1.403   1_556 S
C342   C341    1.403   1_554 S
C343   N501    1.158   .     T
C343   C431    1.453   .     S
C344   N512    1.157   .     T
C344   C432    1.453   .     S
C345   C433    1.453   .     S
C345   N523    1.157   .     T
C346   C384    1.404   .     A
C346   H492    1.084   .     S
C347   C434    1.453   .     S
C347   N527    1.157   .     T
C348   C435    1.453   .     S
C348   N528    1.157   .     T
C349   C437    1.453   .     S
C349   N529    1.157   .     T
C350   C438    1.453   .     S
C350   N530    1.157   .     T
C351   N531    1.157   .     T
C351   C439    1.453   .     S
C352   C440    1.453   .     S
C352   N532    1.157   .     T
C353   N502    1.157   .     T
C353   C441    1.453   .     S
C354   C442    1.453   .     S
C354   N503    1.157   .     T
C355   C443    1.453   .     S
C355   N504    1.157   .     T
C356   N505    1.157   .     T
C356   C444    1.453   .     S
C357   C85     1.403   1_655 A
C357   H493    1.084   .     S
C358   C445    1.453   .     S
C358   N506    1.157   .     T
C359   N507    1.157   .     T
C359   C446    1.453   .     S
C360   C448    1.453   .     S
C360   N508    1.157   .     T
C361   C449    1.453   .     S
C361   N509    1.157   .     T
C362   C450    1.453   .     S
C362   N510    1.157   .     T
C363   N511    1.157   .     T
C363   C451    1.453   .     S
C364   C452    1.453   .     S
C364   N513    1.157   .     T
C365   C453    1.453   .     S
C365   N514    1.157   .     T
C366   N515    1.157   .     T
C366   C454    1.453   .     S
C367   N516    1.157   .     T
C367   C455    1.453   .     S
C368   H494    1.084   .     S
C368   C386    1.403   .     S
C369   C456    1.453   .     S
C369   N517    1.157   .     T
C370   N518    1.157   .     T
C370   C457    1.453   .     S
C371   N519    1.157   .     T
C371   C459    1.453   .     S
C372   N520    1.157   .     T
C372   C460    1.453   .     S
C373   C461    1.453   .     S
C373   N521    1.158   .     T
C374   C462    1.453   .     S
C374   N522    1.157   .     T
C375   N524    1.157   .     T
C375   C463    1.453   .     S
C376   N525    1.157   .     T
C376   C464    1.453   .     S
C377   N526    1.157   .     T
C377   C465    1.453   .     S
C378   C414    1.403   .     A
C378   C407    1.463   .     S
C379   C408    1.463   .     S
C379   C381    1.404   .     S
C380   C436    1.404   .     A
C380   C992    1.403   1_545 S
C380   C405    1.463   .     S
C381   H478    1.084   .     S
C382   C1047   1.404   1_545 A
C382   C406    1.463   .     S
C382   C403    1.403   .     S
C383   C411    1.463   .     S
C383   C458    1.404   .     A
C383   C935    1.403   1_545 S
C384   C412    1.463   .     S
C384   C902    1.404   1_545 S
C385   C409    1.463   .     S
C386   C410    1.463   .     S
C387   H469    1.084   .     S
C387   C393    1.395   .     A
C387   C466    1.402   .     A
C388   C391    1.395   .     A
C388   H480    1.084   .     S
C388   C467    1.402   .     A
C389   C395    1.395   .     A
C389   C468    1.402   .     A
C389   H491    1.084   .     S
C390   H495    1.084   .     S
C390   C394    1.395   .     A
C391   H496    1.084   .     S
C392   H479    1.084   .     S
C392   C980    1.403   .     S
C393   H497    1.084   .     S
C394   H498    1.084   .     S
C395   H499    1.084   .     S
C396   H500    1.084   .     S
C396   C401    1.395   1_556 S
C397   H470    1.084   .     S
C397   C400    1.395   1_554 S
C398   H471    1.084   .     S
C398   C404    1.395   1_556 S
C399   H472    1.084   .     S
C399   C402    1.395   1_554 S
C400   H473    1.084   .     S
C400   C397    1.395   1_556 S
C401   H474    1.084   .     S
C401   C396    1.395   1_554 S
C402   H475    1.084   .     S
C402   C399    1.395   1_556 S
C403   H481    1.084   .     S
C404   H476    1.084   .     S
C404   C398    1.395   1_554 S
C405   O1177   1.281   1_545 A
C405   O584    1.281   .     S
C406   O1134   1.281   1_545 A
C406   O581    1.281   .     S
C407   O582    1.281   .     A
C408   O536    1.281   .     S
C409   O537    1.281   .     A
C409   O541    1.281   .     S
C410   O538    1.281   .     A
C410   O542    1.281   .     S
C411   O539    1.281   .     S
C411   O543    1.281   .     S
C412   O540    1.281   .     S
C412   O545    1.281   .     S
C413   O546    1.279   .     A
C413   O574    1.279   .     A
C414   C466    1.394   .     A
C414   H482    1.084   .     S
C415   O547    1.279   .     A
C415   O575    1.279   .     A
C416   O572    1.279   .     A
C416   O548    1.279   .     A
C417   O573    1.279   .     A
C417   O549    1.279   .     A
C418   O550    1.279   .     A
C418   O579    1.279   .     A
C419   O551    1.279   .     A
C419   O580    1.279   .     A
C420   O552    1.279   .     A
C420   O576    1.279   .     A
C421   O553    1.279   .     A
C421   O578    1.279   .     A
C422   O554    1.279   .     A
C422   O565    1.279   .     A
C423   O556    1.279   .     A
C423   O567    1.279   .     A
C424   O557    1.279   .     A
C424   O563    1.279   .     A
C425   C79     1.403   1_655 A
C425   C467    1.394   .     A
C425   H483    1.084   .     S
C426   O558    1.279   .     A
C426   O564    1.279   .     A
C427   O570    1.279   .     A
C427   O559    1.279   .     A
C428   O560    1.279   .     A
C428   O571    1.279   .     A
C429   O568    1.279   .     A
C429   O561    1.279   .     A
C430   O569    1.279   .     A
C430   O562    1.279   .     A
C431   C448    1.399   .     A
C432   C446    1.399   .     A
C433   C445    1.400   .     A
C434   C444    1.400   .     A
C435   C443    1.399   .     A
C436   H484    1.084   .     S
C436   C468    1.394   .     A
C437   C442    1.399   .     A
C438   C441    1.400   .     A
C439   C440    1.400   .     A
C447   C982    1.404   .     A
C447   H485    1.084   .     S
C449   C465    1.399   .     A
C450   C464    1.399   .     A
C451   C463    1.400   .     A
C452   C462    1.400   .     A
C453   C461    1.399   .     A
C454   C460    1.399   .     A
C455   C459    1.400   .     A
C456   C457    1.400   .     A
C458   H486    1.084   .     S
C467   C36     1.411   1_655 S
O533   Zn588   1.948   .     S
O533   Zn585   1.948   .     S
O533   Zn1192  1.948   1_545 S
O533   Zn596   1.948   .     S
O534   Zn587   1.950   .     S
O534   C1006   1.281   .     A
O535   Zn590   1.950   .     S
O535   C107    1.281   1_655 S
O536   Zn589   1.950   .     S
O537   Zn599   1.950   .     S
O538   Zn598   1.950   .     S
O539   Zn593   1.950   .     S
O540   Zn585   1.950   .     S
O541   Zn595   1.950   .     S
O542   Zn594   1.950   .     S
O543   Zn597   1.950   .     S
O544   Zn591   1.948   .     S
O544   Zn593   1.948   .     S
O544   Zn597   1.948   .     S
O544   Zn1187  1.948   1_545 S
O545   Zn596   1.950   .     S
O546   Zn588   1.935   .     S
O547   Zn587   1.935   .     S
O548   Zn590   1.935   .     S
O549   Zn589   1.935   .     S
O550   Zn592   1.935   .     S
O551   Zn591   1.935   .     S
O552   Zn586   1.935   .     S
O553   Zn600   1.935   .     S
O554   Zn587   1.935   .     S
O555   Zn586   1.948   .     S
O555   Zn594   1.948   .     S
O555   Zn598   1.948   .     S
O556   Zn588   1.935   .     S
O557   Zn600   1.935   .     S
O558   Zn586   1.935   .     S
O559   Zn591   1.935   .     S
O560   Zn592   1.935   .     S
O561   Zn589   1.935   .     S
O562   Zn590   1.935   .     S
O563   Zn295   1.935   1_655 S
O564   Zn594   1.935   .     S
O565   Zn1197  1.935   .     S
O566   Zn589   1.948   .     S
O566   Zn595   1.948   .     S
O566   Zn599   1.948   .     S
O567   Zn596   1.935   .     S
O568   Zn599   1.935   .     S
O569   Zn298   1.935   1_655 S
O570   Zn593   1.935   .     S
O571   Zn1185  1.935   .     S
O572   Zn294   1.935   1_655 S
O573   Zn595   1.935   .     S
O574   Zn585   1.935   .     S
O575   Zn1193  1.935   .     S
O576   Zn598   1.935   .     S
O577   Zn592   1.950   .     S
O577   C1005   1.281   .     A
O578   Zn299   1.935   1_655 S
O579   Zn1196  1.935   .     S
O580   Zn597   1.935   .     S
O581   Zn591   1.950   .     S
O582   Zn586   1.950   .     S
O583   Zn600   1.950   .     S
O583   C108    1.281   1_655 A
O584   Zn588   1.950   .     S
Zn585  O1171   1.935   1_545 S
Zn587  O1144   1.948   .     S
Zn590  O255    1.948   1_655 S
Zn592  O1133   1.948   .     S
Zn593  O1175   1.935   1_545 S
Zn596  O1179   1.935   1_545 S
Zn597  O1165   1.935   1_545 S
Zn600  O266    1.948   1_655 S
C601   C604    1.394   .     A
C601   H777    1.084   .     S
C601   C978    1.404   .     S
C602   C614    1.394   .     A
C602   H787    1.084   .     S
C602   C84     1.404   1_565 S
C603   C747    1.394   .     A
C603   C690    1.402   .     A
C603   C38     1.411   1_565 S
C604   C691    1.402   .     A
C604   C934    1.411   .     S
C605   C636    1.411   .     A
C605   C681    1.394   .     A
C605   C693    1.402   .     A
C606   C694    1.402   .     A
C606   C692    1.394   .     A
C606   C37     1.411   1_565 S
C607   C703    1.394   .     A
C607   C695    1.402   .     A
C607   C638    1.411   .     A
C608   C635    1.394   .     A
C608   C696    1.402   .     A
C608   C39     1.411   1_565 S
C609   C697    1.402   .     A
C609   C646    1.394   .     A
C609   C640    1.411   .     A
C610   C941    1.411   .     A
C610   C698    1.402   .     A
C610   C657    1.394   .     A
C611   C699    1.402   .     A
C611   C668    1.394   .     A
C611   C642    1.411   .     S
C612   C758    1.394   .     A
C612   C639    1.411   .     A
C612   C700    1.402   .     A
C613   H788    1.084   .     S
C613   C615    1.394   .     A
C613   C685    1.403   .     S
C614   C701    1.402   .     A
C614   C40     1.411   1_565 S
C615   C702    1.402   .     A
C615   C641    1.411   .     S
C616   C704    1.402   .     A
C616   C624    1.394   .     A
C616   C942    1.411   .     A
C617   C720    1.456   .     S
C617   C748    1.410   .     A
C617   C750    1.410   .     A
C618   C721    1.456   .     S
C618   C749    1.410   .     A
C618   C746    1.410   .     A
C619   C713    1.456   .     S
C619   C745    1.410   .     A
C619   C752    1.410   .     A
C620   C744    1.410   .     A
C620   C751    1.410   .     A
C620   C715    1.456   .     S
C621   C716    1.456   .     S
C621   C754    1.410   .     A
C621   C743    1.410   .     A
C622   C742    1.410   .     A
C622   C753    1.410   .     A
C622   C717    1.456   .     S
C623   C718    1.456   .     S
C623   C741    1.410   .     A
C623   C756    1.410   .     A
C624   C986    1.403   .     A
C624   H789    1.084   .     S
C625   C719    1.456   .     S
C625   C740    1.410   .     A
C625   C755    1.410   .     A
C626   C739    1.410   .     A
C626   C759    1.410   .     A
C626   C729    1.456   .     S
C627   C738    1.410   .     A
C627   C757    1.410   .     A
C627   C730    1.456   .     S
C628   C737    1.410   .     A
C628   C722    1.456   .     S
C628   C761    1.410   .     A
C629   C735    1.410   .     A
C629   C760    1.410   .     A
C629   C723    1.456   .     S
C630   C734    1.410   .     A
C630   C763    1.410   .     A
C630   C724    1.456   .     S
C631   C762    1.410   .     A
C631   C733    1.410   .     A
C631   C726    1.456   .     S
C632   C727    1.456   .     S
C632   C765    1.410   .     A
C632   C732    1.410   .     A
C633   C764    1.410   .     A
C633   C731    1.410   .     A
C633   C728    1.456   .     S
C634   C636    1.403   .     A
C634   C766    1.411   .     A
C634   C904    1.411   1_455 S
C635   H790    1.084   .     S
C635   C83     1.403   1_565 S
C636   C1067   1.411   1_455 S
C637   C768    1.411   .     A
C637   C638    1.403   .     A
C639   C640    1.403   1_556 S
C640   C639    1.403   1_554 S
C641   C910    1.411   1_455 A
C641   C642    1.403   1_556 S
C642   C916    1.411   1_455 A
C642   C641    1.403   1_554 S
C643   N801    1.158   .     T
C643   C731    1.453   .     S
C644   N812    1.157   .     T
C644   C732    1.453   .     S
C645   C733    1.453   .     S
C645   N823    1.157   .     T
C646   C684    1.404   .     A
C646   H792    1.084   .     S
C647   C734    1.453   .     S
C647   N827    1.157   .     T
C648   C735    1.453   .     S
C648   N828    1.157   .     T
C649   C737    1.453   .     S
C649   N829    1.157   .     T
C650   C738    1.453   .     S
C650   N830    1.157   .     T
C651   N831    1.157   .     T
C651   C739    1.453   .     S
C652   C740    1.453   .     S
C652   N832    1.157   .     T
C653   N802    1.157   .     T
C653   C741    1.453   .     S
C654   C742    1.453   .     S
C654   N803    1.157   .     T
C655   C743    1.453   .     S
C655   N804    1.157   .     T
C656   N805    1.157   .     T
C656   C744    1.453   .     S
C657   C985    1.403   .     A
C657   H793    1.084   .     S
C658   C745    1.453   .     S
C658   N806    1.157   .     T
C659   N807    1.157   .     T
C659   C746    1.453   .     S
C660   C748    1.453   .     S
C660   N808    1.157   .     T
C661   C749    1.453   .     S
C661   N809    1.157   .     T
C662   C750    1.453   .     S
C662   N810    1.157   .     T
C663   N811    1.157   .     T
C663   C751    1.453   .     S
C664   C752    1.453   .     S
C664   N813    1.157   .     T
C665   C753    1.453   .     S
C665   N814    1.157   .     T
C666   N815    1.157   .     T
C666   C754    1.453   .     S
C667   N816    1.157   .     T
C667   C755    1.453   .     S
C668   H794    1.084   .     S
C668   C686    1.403   .     S
C669   C756    1.453   .     S
C669   N817    1.157   .     T
C670   N818    1.157   .     T
C670   C757    1.453   .     S
C671   N819    1.157   .     T
C671   C759    1.453   .     S
C672   N820    1.157   .     T
C672   C760    1.453   .     S
C673   C761    1.453   .     S
C673   N821    1.158   .     T
C674   C762    1.453   .     S
C674   N822    1.157   .     T
C675   N824    1.157   .     T
C675   C763    1.453   .     S
C676   N825    1.157   .     T
C676   C764    1.453   .     S
C677   N826    1.157   .     T
C677   C765    1.453   .     S
C678   C714    1.403   .     A
C678   C707    1.463   .     S
C678   C901    1.404   1_455 S
C679   C708    1.463   .     S
C679   C1025   1.403   1_455 A
C679   C681    1.404   .     S
C680   C736    1.404   .     A
C680   C705    1.463   .     S
C681   H778    1.084   .     S
C682   C706    1.463   .     S
C682   C703    1.403   .     S
C683   C711    1.463   .     S
C683   C758    1.404   .     A
C684   C712    1.463   .     S
C685   C957    1.403   1_455 A
C685   C709    1.463   .     S
C686   C924    1.403   1_455 A
C686   C710    1.463   .     S
C687   H769    1.084   .     S
C687   C693    1.395   .     A
C687   C766    1.402   .     A
C688   C691    1.395   .     A
C688   H780    1.084   .     S
C688   C767    1.402   .     A
C689   C695    1.395   .     A
C689   C768    1.402   .     A
C689   H791    1.084   .     S
C690   H795    1.084   .     S
C690   C694    1.395   .     A
C691   H796    1.084   .     S
C692   H779    1.084   .     S
C692   C80     1.403   1_565 S
C693   H797    1.084   .     S
C694   H798    1.084   .     S
C695   H799    1.084   .     S
C696   H800    1.084   .     S
C696   C701    1.395   1_556 S
C697   H770    1.084   .     S
C697   C700    1.395   1_554 S
C698   H771    1.084   .     S
C698   C704    1.395   1_556 S
C699   H772    1.084   .     S
C699   C702    1.395   1_554 S
C700   H773    1.084   .     S
C700   C697    1.395   1_556 S
C701   H774    1.084   .     S
C701   C696    1.395   1_554 S
C702   H775    1.084   .     S
C702   C699    1.395   1_556 S
C703   H781    1.084   .     S
C704   H776    1.084   .     S
C704   C698    1.395   1_554 S
C705   O884    1.281   .     S
C706   O881    1.281   .     S
C707   O882    1.281   .     A
C707   O1135   1.281   1_455 S
C708   O1183   1.281   1_455 A
C708   O836    1.281   .     S
C709   O837    1.281   .     A
C709   O841    1.281   .     S
C710   O838    1.281   .     A
C710   O842    1.281   .     S
C711   O839    1.281   .     S
C711   O843    1.281   .     S
C712   O840    1.281   .     S
C712   O845    1.281   .     S
C713   O846    1.279   .     A
C713   O874    1.279   .     A
C714   C766    1.394   .     A
C714   H782    1.084   .     S
C715   O847    1.279   .     A
C715   O875    1.279   .     A
C716   O872    1.279   .     A
C716   O848    1.279   .     A
C717   O873    1.279   .     A
C717   O849    1.279   .     A
C718   O850    1.279   .     A
C718   O879    1.279   .     A
C719   O851    1.279   .     A
C719   O880    1.279   .     A
C720   O852    1.279   .     A
C720   O876    1.279   .     A
C721   O853    1.279   .     A
C721   O878    1.279   .     A
C722   O854    1.279   .     A
C722   O865    1.279   .     A
C723   O856    1.279   .     A
C723   O867    1.279   .     A
C724   O857    1.279   .     A
C724   O863    1.279   .     A
C725   C979    1.403   .     A
C725   C767    1.394   .     A
C725   H783    1.084   .     S
C726   O858    1.279   .     A
C726   O864    1.279   .     A
C727   O870    1.279   .     A
C727   O859    1.279   .     A
C728   O860    1.279   .     A
C728   O871    1.279   .     A
C729   O868    1.279   .     A
C729   O861    1.279   .     A
C730   O869    1.279   .     A
C730   O862    1.279   .     A
C731   C748    1.399   .     A
C732   C746    1.399   .     A
C733   C745    1.400   .     A
C734   C744    1.400   .     A
C735   C743    1.399   .     A
C736   H784    1.084   .     S
C736   C768    1.394   .     A
C737   C742    1.399   .     A
C738   C741    1.400   .     A
C739   C740    1.400   .     A
C747   C82     1.404   1_565 A
C747   H785    1.084   .     S
C749   C765    1.399   .     A
C750   C764    1.399   .     A
C751   C763    1.400   .     A
C752   C762    1.400   .     A
C753   C761    1.399   .     A
C754   C760    1.399   .     A
C755   C759    1.400   .     A
C756   C757    1.400   .     A
C758   H786    1.084   .     S
C767   C936    1.411   .     S
O833   Zn888   1.948   .     S
O833   Zn885   1.948   .     S
O833   Zn896   1.948   .     S
O834   Zn887   1.950   .     S
O834   C106    1.281   1_565 A
O835   Zn890   1.950   .     S
O835   C1007   1.281   .     S
O836   Zn889   1.950   .     S
O837   Zn899   1.950   .     S
O838   Zn898   1.950   .     S
O839   Zn893   1.950   .     S
O840   Zn885   1.950   .     S
O841   Zn895   1.950   .     S
O842   Zn894   1.950   .     S
O843   Zn897   1.950   .     S
O844   Zn891   1.948   .     S
O844   Zn893   1.948   .     S
O844   Zn897   1.948   .     S
O845   Zn896   1.950   .     S
O846   Zn888   1.935   .     S
O847   Zn887   1.935   .     S
O848   Zn890   1.935   .     S
O849   Zn889   1.935   .     S
O850   Zn892   1.935   .     S
O851   Zn891   1.935   .     S
O852   Zn886   1.935   .     S
O853   Zn900   1.935   .     S
O854   Zn887   1.935   .     S
O855   Zn886   1.948   .     S
O855   Zn894   1.948   .     S
O855   Zn898   1.948   .     S
O855   Zn1190  1.948   1_455 S
O856   Zn888   1.935   .     S
O857   Zn900   1.935   .     S
O858   Zn886   1.935   .     S
O859   Zn891   1.935   .     S
O860   Zn892   1.935   .     S
O861   Zn889   1.935   .     S
O862   Zn890   1.935   .     S
O863   Zn1195  1.935   .     S
O864   Zn894   1.935   .     S
O865   Zn297   1.935   1_565 S
O866   Zn1200  1.948   1_455 S
O866   Zn889   1.948   .     S
O866   Zn895   1.948   .     S
O866   Zn899   1.948   .     S
O867   Zn896   1.935   .     S
O868   Zn899   1.935   .     S
O869   Zn1198  1.935   .     S
O870   Zn893   1.935   .     S
O871   Zn285   1.935   1_565 S
O872   Zn1194  1.935   .     S
O873   Zn895   1.935   .     S
O874   Zn885   1.935   .     S
O875   Zn293   1.935   1_565 S
O876   Zn898   1.935   .     S
O877   Zn892   1.950   .     S
O877   C105    1.281   1_565 A
O878   Zn1199  1.935   .     S
O879   Zn296   1.935   1_565 S
O880   Zn897   1.935   .     S
O881   Zn891   1.950   .     S
O882   Zn886   1.950   .     S
O883   Zn900   1.950   .     S
O883   C1008   1.281   .     A
O884   Zn888   1.950   .     S
Zn887  O244    1.948   1_565 S
Zn890  O1155   1.948   .     S
Zn892  O233    1.948   1_565 S
Zn894  O1172   1.935   1_455 S
Zn895  O1163   1.935   1_455 S
Zn898  O1169   1.935   1_455 S
Zn899  O1178   1.935   1_455 S
Zn900  O1166   1.948   .     S
C901   C904    1.394   .     A
C901   H1077   1.084   .     S
C901   C678    1.404   1_655 S
C902   C914    1.394   .     A
C902   H1087   1.084   .     S
C902   C384    1.404   1_565 S
C903   C1047   1.394   .     A
C903   C990    1.402   .     A
C903   C338    1.411   1_565 S
C904   C991    1.402   .     A
C904   C634    1.411   1_655 S
C905   C936    1.411   .     A
C905   C981    1.394   .     A
C905   C993    1.402   .     A
C906   C994    1.402   .     A
C906   C992    1.394   .     A
C906   C337    1.411   1_565 S
C907   C1003   1.394   .     A
C907   C995    1.402   .     A
C907   C938    1.411   .     A
C908   C935    1.394   .     A
C908   C996    1.402   .     A
C908   C339    1.411   1_565 S
C909   C997    1.402   .     A
C909   C946    1.394   .     A
C909   C940    1.411   .     A
C910   C641    1.411   1_655 A
C910   C998    1.402   .     A
C910   C957    1.394   .     A
C911   C999    1.402   .     A
C911   C968    1.394   .     A
C911   C942    1.411   .     S
C912   C1058   1.394   .     A
C912   C939    1.411   .     A
C912   C1000   1.402   .     A
C913   H1088   1.084   .     S
C913   C915    1.394   .     A
C913   C985    1.403   .     S
C914   C1001   1.402   .     A
C914   C340    1.411   1_565 S
C915   C1002   1.402   .     A
C915   C941    1.411   .     S
C916   C1004   1.402   .     A
C916   C924    1.394   .     A
C916   C642    1.411   1_655 A
C917   C1020   1.456   .     S
C917   C1048   1.410   .     A
C917   C1050   1.410   .     A
C918   C1021   1.456   .     S
C918   C1049   1.410   .     A
C918   C1046   1.410   .     A
C919   C1013   1.456   .     S
C919   C1045   1.410   .     A
C919   C1052   1.410   .     A
C920   C1044   1.410   .     A
C920   C1051   1.410   .     A
C920   C1015   1.456   .     S
C921   C1016   1.456   .     S
C921   C1054   1.410   .     A
C921   C1043   1.410   .     A
C922   C1042   1.410   .     A
C922   C1053   1.410   .     A
C922   C1017   1.456   .     S
C923   C1018   1.456   .     S
C923   C1041   1.410   .     A
C923   C1056   1.410   .     A
C924   C686    1.403   1_655 A
C924   H1089   1.084   .     S
C925   C1019   1.456   .     S
C925   C1040   1.410   .     A
C925   C1055   1.410   .     A
C926   C1039   1.410   .     A
C926   C1059   1.410   .     A
C926   C1029   1.456   .     S
C927   C1038   1.410   .     A
C927   C1057   1.410   .     A
C927   C1030   1.456   .     S
C928   C1037   1.410   .     A
C928   C1022   1.456   .     S
C928   C1061   1.410   .     A
C929   C1035   1.410   .     A
C929   C1060   1.410   .     A
C929   C1023   1.456   .     S
C930   C1034   1.410   .     A
C930   C1063   1.410   .     A
C930   C1024   1.456   .     S
C931   C1062   1.410   .     A
C931   C1033   1.410   .     A
C931   C1026   1.456   .     S
C932   C1027   1.456   .     S
C932   C1065   1.410   .     A
C932   C1032   1.410   .     A
C933   C1064   1.410   .     A
C933   C1031   1.410   .     A
C933   C1028   1.456   .     S
C934   C936    1.403   .     A
C934   C1066   1.411   .     A
C935   H1090   1.084   .     S
C935   C383    1.403   1_565 S
C937   C1068   1.411   .     A
C937   C938    1.403   .     A
C939   C940    1.403   1_556 S
C940   C939    1.403   1_554 S
C941   C942    1.403   1_556 S
C942   C941    1.403   1_554 S
C943   N1101   1.158   .     T
C943   C1031   1.453   .     S
C944   N1112   1.157   .     T
C944   C1032   1.453   .     S
C945   C1033   1.453   .     S
C945   N1123   1.157   .     T
C946   C984    1.404   .     A
C946   H1092   1.084   .     S
C947   C1034   1.453   .     S
C947   N1127   1.157   .     T
C948   C1035   1.453   .     S
C948   N1128   1.157   .     T
C949   C1037   1.453   .     S
C949   N1129   1.157   .     T
C950   C1038   1.453   .     S
C950   N1130   1.157   .     T
C951   N1131   1.157   .     T
C951   C1039   1.453   .     S
C952   C1040   1.453   .     S
C952   N1132   1.157   .     T
C953   N1102   1.157   .     T
C953   C1041   1.453   .     S
C954   C1042   1.453   .     S
C954   N1103   1.157   .     T
C955   C1043   1.453   .     S
C955   N1104   1.157   .     T
C956   N1105   1.157   .     T
C956   C1044   1.453   .     S
C957   C685    1.403   1_655 A
C957   H1093   1.084   .     S
C958   C1045   1.453   .     S
C958   N1106   1.157   .     T
C959   N1107   1.157   .     T
C959   C1046   1.453   .     S
C960   C1048   1.453   .     S
C960   N1108   1.157   .     T
C961   C1049   1.453   .     S
C961   N1109   1.157   .     T
C962   C1050   1.453   .     S
C962   N1110   1.157   .     T
C963   N1111   1.157   .     T
C963   C1051   1.453   .     S
C964   C1052   1.453   .     S
C964   N1113   1.157   .     T
C965   C1053   1.453   .     S
C965   N1114   1.157   .     T
C966   N1115   1.157   .     T
C966   C1054   1.453   .     S
C967   N1116   1.157   .     T
C967   C1055   1.453   .     S
C968   H1094   1.084   .     S
C968   C986    1.403   .     S
C969   C1056   1.453   .     S
C969   N1117   1.157   .     T
C970   N1118   1.157   .     T
C970   C1057   1.453   .     S
C971   N1119   1.157   .     T
C971   C1059   1.453   .     S
C972   N1120   1.157   .     T
C972   C1060   1.453   .     S
C973   C1061   1.453   .     S
C973   N1121   1.158   .     T
C974   C1062   1.453   .     S
C974   N1122   1.157   .     T
C975   N1124   1.157   .     T
C975   C1063   1.453   .     S
C976   N1125   1.157   .     T
C976   C1064   1.453   .     S
C977   N1126   1.157   .     T
C977   C1065   1.453   .     S
C978   C1014   1.403   .     A
C978   C1007   1.463   .     S
C979   C1008   1.463   .     S
C979   C981    1.404   .     S
C980   C1036   1.404   .     A
C980   C1005   1.463   .     S
C981   H1078   1.084   .     S
C982   C1006   1.463   .     S
C982   C1003   1.403   .     S
C983   C1011   1.463   .     S
C983   C1058   1.404   .     A
C984   C1012   1.463   .     S
C985   C1009   1.463   .     S
C986   C1010   1.463   .     S
C987   H1069   1.084   .     S
C987   C993    1.395   .     A
C987   C1066   1.402   .     A
C988   C991    1.395   .     A
C988   H1080   1.084   .     S
C988   C1067   1.402   .     A
C989   C995    1.395   .     A
C989   C1068   1.402   .     A
C989   H1091   1.084   .     S
C990   H1095   1.084   .     S
C990   C994    1.395   .     A
C991   H1096   1.084   .     S
C992   H1079   1.084   .     S
C992   C380    1.403   1_565 S
C993   H1097   1.084   .     S
C994   H1098   1.084   .     S
C995   H1099   1.084   .     S
C996   H1100   1.084   .     S
C996   C1001   1.395   1_556 S
C997   H1070   1.084   .     S
C997   C1000   1.395   1_554 S
C998   H1071   1.084   .     S
C998   C1004   1.395   1_556 S
C999   H1072   1.084   .     S
C999   C1002   1.395   1_554 S
C1000  H1073   1.084   .     S
C1000  C997    1.395   1_556 S
C1001  H1074   1.084   .     S
C1001  C996    1.395   1_554 S
C1002  H1075   1.084   .     S
C1002  C999    1.395   1_556 S
C1003  H1081   1.084   .     S
C1004  H1076   1.084   .     S
C1004  C998    1.395   1_554 S
C1005  O1184   1.281   .     S
C1006  O1181   1.281   .     S
C1007  O1182   1.281   .     A
C1008  O1136   1.281   .     S
C1009  O1137   1.281   .     A
C1009  O1141   1.281   .     S
C1010  O1138   1.281   .     A
C1010  O1142   1.281   .     S
C1011  O1139   1.281   .     S
C1011  O1143   1.281   .     S
C1012  O1140   1.281   .     S
C1012  O1145   1.281   .     S
C1013  O1146   1.279   .     A
C1013  O1174   1.279   .     A
C1014  C1066   1.394   .     A
C1014  H1082   1.084   .     S
C1015  O1147   1.279   .     A
C1015  O1175   1.279   .     A
C1016  O1172   1.279   .     A
C1016  O1148   1.279   .     A
C1017  O1173   1.279   .     A
C1017  O1149   1.279   .     A
C1018  O1150   1.279   .     A
C1018  O1179   1.279   .     A
C1019  O1151   1.279   .     A
C1019  O1180   1.279   .     A
C1020  O1152   1.279   .     A
C1020  O1176   1.279   .     A
C1021  O1153   1.279   .     A
C1021  O1178   1.279   .     A
C1022  O1154   1.279   .     A
C1022  O1165   1.279   .     A
C1023  O1156   1.279   .     A
C1023  O1167   1.279   .     A
C1024  O1157   1.279   .     A
C1024  O1163   1.279   .     A
C1025  C679    1.403   1_655 A
C1025  C1067   1.394   .     A
C1025  H1083   1.084   .     S
C1026  O1158   1.279   .     A
C1026  O1164   1.279   .     A
C1027  O1170   1.279   .     A
C1027  O1159   1.279   .     A
C1028  O1160   1.279   .     A
C1028  O1171   1.279   .     A
C1029  O1168   1.279   .     A
C1029  O1161   1.279   .     A
C1030  O1169   1.279   .     A
C1030  O1162   1.279   .     A
C1031  C1048   1.399   .     A
C1032  C1046   1.399   .     A
C1033  C1045   1.400   .     A
C1034  C1044   1.400   .     A
C1035  C1043   1.399   .     A
C1036  H1084   1.084   .     S
C1036  C1068   1.394   .     A
C1037  C1042   1.399   .     A
C1038  C1041   1.400   .     A
C1039  C1040   1.400   .     A
C1047  C382    1.404   1_565 A
C1047  H1085   1.084   .     S
C1049  C1065   1.399   .     A
C1050  C1064   1.399   .     A
C1051  C1063   1.400   .     A
C1052  C1062   1.400   .     A
C1053  C1061   1.399   .     A
C1054  C1060   1.399   .     A
C1055  C1059   1.400   .     A
C1056  C1057   1.400   .     A
C1058  H1086   1.084   .     S
C1067  C636    1.411   1_655 S
O1133  Zn1188  1.948   .     S
O1133  Zn1185  1.948   .     S
O1133  Zn1196  1.948   .     S
O1134  Zn1187  1.950   .     S
O1134  C406    1.281   1_565 A
O1135  Zn1190  1.950   .     S
O1135  C707    1.281   1_655 S
O1136  Zn1189  1.950   .     S
O1137  Zn1199  1.950   .     S
O1138  Zn1198  1.950   .     S
O1139  Zn1193  1.950   .     S
O1140  Zn1185  1.950   .     S
O1141  Zn1195  1.950   .     S
O1142  Zn1194  1.950   .     S
O1143  Zn1197  1.950   .     S
O1144  Zn1191  1.948   .     S
O1144  Zn1193  1.948   .     S
O1144  Zn1197  1.948   .     S
O1145  Zn1196  1.950   .     S
O1146  Zn1188  1.935   .     S
O1147  Zn1187  1.935   .     S
O1148  Zn1190  1.935   .     S
O1149  Zn1189  1.935   .     S
O1150  Zn1192  1.935   .     S
O1151  Zn1191  1.935   .     S
O1152  Zn1186  1.935   .     S
O1153  Zn1200  1.935   .     S
O1154  Zn1187  1.935   .     S
O1155  Zn1186  1.948   .     S
O1155  Zn1194  1.948   .     S
O1155  Zn1198  1.948   .     S
O1156  Zn1188  1.935   .     S
O1157  Zn1200  1.935   .     S
O1158  Zn1186  1.935   .     S
O1159  Zn1191  1.935   .     S
O1160  Zn1192  1.935   .     S
O1161  Zn1189  1.935   .     S
O1162  Zn1190  1.935   .     S
O1163  Zn895   1.935   1_655 S
O1164  Zn1194  1.935   .     S
O1165  Zn597   1.935   1_565 S
O1166  Zn1189  1.948   .     S
O1166  Zn1195  1.948   .     S
O1166  Zn1199  1.948   .     S
O1167  Zn1196  1.935   .     S
O1168  Zn1199  1.935   .     S
O1169  Zn898   1.935   1_655 S
O1170  Zn1193  1.935   .     S
O1171  Zn585   1.935   1_565 S
O1172  Zn894   1.935   1_655 S
O1173  Zn1195  1.935   .     S
O1174  Zn1185  1.935   .     S
O1175  Zn593   1.935   1_565 S
O1176  Zn1198  1.935   .     S
O1177  Zn1192  1.950   .     S
O1177  C405    1.281   1_565 A
O1178  Zn899   1.935   1_655 S
O1179  Zn596   1.935   1_565 S
O1180  Zn1197  1.935   .     S
O1181  Zn1191  1.950   .     S
O1182  Zn1186  1.950   .     S
O1183  Zn1200  1.950   .     S
O1183  C708    1.281   1_655 A
O1184  Zn1188  1.950   .     S
Zn1187 O544    1.948   1_565 S
Zn1190 O855    1.948   1_655 S
Zn1192 O533    1.948   1_565 S
Zn1200 O866    1.948   1_655 S
