data_str_m1_o2_o5_pcu_sym.38
_audit_creation_date              2020-01-03
_audit_creation_method            'Materials Studio'
_symmetry_space_group_name_H-M    'P1'
_symmetry_Int_Tables_number       1
_symmetry_cell_setting            triclinic
loop_
_symmetry_equiv_pos_as_xyz
  x,y,z
_cell_length_a                    24.5001
_cell_length_b                    24.5001
_cell_length_c                    22.4071
_cell_angle_alpha                 90.0000
_cell_angle_beta                  90.0000
_cell_angle_gamma                 89.6360
loop_
_atom_site_label
_atom_site_type_symbol
_atom_site_fract_x
_atom_site_fract_y
_atom_site_fract_z
_atom_site_U_iso_or_equiv
_atom_site_adp_type
_atom_site_occupancy
C1     C     0.22859   0.27141   0.25000   0.00000  Uiso   1.00
C2     C     0.77139   0.72861   0.75000   0.00000  Uiso   1.00
C3     C     0.27116   0.77116   0.25000   0.00000  Uiso   1.00
C4     C     0.72883   0.22882   0.75000   0.00000  Uiso   1.00
C5     C     0.77141   0.72859   0.25000   0.00000  Uiso   1.00
C6     C     0.22862   0.27138   0.75000   0.00000  Uiso   1.00
C7     C     0.72884   0.22884   0.25000   0.00000  Uiso   1.00
C8     C     0.27117   0.77117   0.75000   0.00000  Uiso   1.00
C9     C     0.77116   0.27116   0.75000   0.00000  Uiso   1.00
C10    C     0.22883   0.72883   0.25000   0.00000  Uiso   1.00
C11    C     0.72859   0.77141   0.75000   0.00000  Uiso   1.00
C12    C     0.27139   0.22861   0.25000   0.00000  Uiso   1.00
C13    C     0.22884   0.72884   0.75000   0.00000  Uiso   1.00
C14    C     0.77117   0.27117   0.25000   0.00000  Uiso   1.00
C15    C     0.27141   0.22859   0.75000   0.00000  Uiso   1.00
C16    C     0.72862   0.77138   0.25000   0.00000  Uiso   1.00
C17    C     0.00000   0.50000   0.47330   0.00000  Uiso   1.00
C18    C     0.00000   0.50000   0.52671   0.00000  Uiso   1.00
C19    C     0.50000  -0.00000   0.47329   0.00000  Uiso   1.00
C20    C     0.50000  -0.00000   0.52670   0.00000  Uiso   1.00
C21    C     0.50000  -0.00000   0.97330   0.00000  Uiso   1.00
C22    C     0.50000  -0.00000   0.02671   0.00000  Uiso   1.00
C23    C     0.00000   0.50000   0.97329   0.00000  Uiso   1.00
C24    C     0.00000   0.50000   0.02670   0.00000  Uiso   1.00
C25    C     0.00000   0.50000   0.09005   0.00000  Uiso   1.00
C26    C     0.00000   0.50000   0.90995   0.00000  Uiso   1.00
C27    C     0.50000  -0.00000   0.09005   0.00000  Uiso   1.00
C28    C     0.50000  -0.00000   0.90995   0.00000  Uiso   1.00
C29    C     0.50000  -0.00000   0.59005   0.00000  Uiso   1.00
C30    C     0.50000  -0.00000   0.40995   0.00000  Uiso   1.00
C31    C     0.00000   0.50000   0.59005   0.00000  Uiso   1.00
C32    C     0.00000   0.50000   0.40995   0.00000  Uiso   1.00
C33    C     0.10526   0.60526   0.25000   0.00000  Uiso   1.00
C34    C     0.89474   0.39474   0.75000   0.00000  Uiso   1.00
C35    C     0.60504   0.89496   0.25000   0.00000  Uiso   1.00
C36    C     0.39497   0.10503   0.75000   0.00000  Uiso   1.00
C37    C     0.89474   0.39474   0.25000   0.00000  Uiso   1.00
C38    C     0.10526   0.60526   0.75000   0.00000  Uiso   1.00
C39    C     0.39496   0.10504   0.25000   0.00000  Uiso   1.00
C40    C     0.60503   0.89497   0.75000   0.00000  Uiso   1.00
C41    C     0.89496   0.60504   0.75000   0.00000  Uiso   1.00
C42    C     0.10503   0.39497   0.25000   0.00000  Uiso   1.00
C43    C     0.39474   0.89474   0.75000   0.00000  Uiso   1.00
C44    C     0.60526   0.10526   0.25000   0.00000  Uiso   1.00
C45    C     0.10504   0.39496   0.75000   0.00000  Uiso   1.00
C46    C     0.89497   0.60503   0.25000   0.00000  Uiso   1.00
C47    C     0.60526   0.10526   0.75000   0.00000  Uiso   1.00
C48    C     0.39474   0.89474   0.25000   0.00000  Uiso   1.00
C49    C     0.17436   0.25765   0.26456   0.00000  Uiso   1.00
C50    C     0.80023   0.71702   0.69696   0.00000  Uiso   1.00
C51    C     0.28304   0.79927   0.19688   0.00000  Uiso   1.00
C52    C     0.74345   0.17422   0.76141   0.00000  Uiso   1.00
C53    C     0.82564   0.74235   0.26456   0.00000  Uiso   1.00
C54    C     0.19977   0.28298   0.69696   0.00000  Uiso   1.00
C55    C     0.71696   0.20073   0.19688   0.00000  Uiso   1.00
C56    C     0.25655   0.82578   0.76141   0.00000  Uiso   1.00
C57    C     0.79927   0.28304   0.80312   0.00000  Uiso   1.00
C58    C     0.17422   0.74345   0.23859   0.00000  Uiso   1.00
C59    C     0.74235   0.82564   0.73544   0.00000  Uiso   1.00
C60    C     0.28298   0.19976   0.30304   0.00000  Uiso   1.00
C61    C     0.20073   0.71696   0.80312   0.00000  Uiso   1.00
C62    C     0.82578   0.25655   0.23859   0.00000  Uiso   1.00
C63    C     0.25765   0.17436   0.73544   0.00000  Uiso   1.00
C64    C     0.71702   0.80023   0.30304   0.00000  Uiso   1.00
C65    C     0.67436   0.75765   0.76456   0.00000  Uiso   1.00
C66    C     0.30024   0.21702   0.19696   0.00000  Uiso   1.00
C67    C     0.78304   0.29927   0.69688   0.00000  Uiso   1.00
C68    C     0.24345   0.67422   0.26141   0.00000  Uiso   1.00
C69    C     0.32564   0.24235   0.76456   0.00000  Uiso   1.00
C70    C     0.69977   0.78298   0.19696   0.00000  Uiso   1.00
C71    C     0.21696   0.70073   0.69688   0.00000  Uiso   1.00
C72    C     0.75655   0.32578   0.26141   0.00000  Uiso   1.00
C73    C     0.29927   0.78304   0.30312   0.00000  Uiso   1.00
C74    C     0.67422   0.24345   0.73859   0.00000  Uiso   1.00
C75    C     0.24235   0.32564   0.23544   0.00000  Uiso   1.00
C76    C     0.78298   0.69976   0.80304   0.00000  Uiso   1.00
C77    C     0.70073   0.21696   0.30312   0.00000  Uiso   1.00
C78    C     0.32578   0.75655   0.73859   0.00000  Uiso   1.00
C79    C     0.75765   0.67436   0.23544   0.00000  Uiso   1.00
C80    C     0.21702   0.30023   0.80304   0.00000  Uiso   1.00
C81    C     0.13397   0.29875   0.26746   0.00000  Uiso   1.00
C82    C     0.84282   0.67808   0.69738   0.00000  Uiso   1.00
C83    C     0.32394   0.83931   0.19633   0.00000  Uiso   1.00
C84    C     0.70333   0.13341   0.76081   0.00000  Uiso   1.00
C85    C     0.86603   0.70125   0.26746   0.00000  Uiso   1.00
C86    C     0.15718   0.32192   0.69738   0.00000  Uiso   1.00
C87    C     0.67606   0.16069   0.19633   0.00000  Uiso   1.00
C88    C     0.29667   0.86659   0.76081   0.00000  Uiso   1.00
C89    C     0.83931   0.32394   0.80367   0.00000  Uiso   1.00
C90    C     0.13341   0.70333   0.23919   0.00000  Uiso   1.00
C91    C     0.70125   0.86603   0.73254   0.00000  Uiso   1.00
C92    C     0.32192   0.15717   0.30262   0.00000  Uiso   1.00
C93    C     0.16069   0.67606   0.80367   0.00000  Uiso   1.00
C94    C     0.86659   0.29667   0.23919   0.00000  Uiso   1.00
C95    C     0.29875   0.13397   0.73254   0.00000  Uiso   1.00
C96    C     0.67808   0.84282   0.30262   0.00000  Uiso   1.00
C97    C     0.63397   0.79875   0.76746   0.00000  Uiso   1.00
C98    C     0.34283   0.17808   0.19738   0.00000  Uiso   1.00
C99    C     0.82394   0.33931   0.69633   0.00000  Uiso   1.00
C100   C     0.20333   0.63341   0.26081   0.00000  Uiso   1.00
C101   C     0.36603   0.20125   0.76746   0.00000  Uiso   1.00
C102   C     0.65718   0.82192   0.19738   0.00000  Uiso   1.00
C103   C     0.17606   0.66069   0.69633   0.00000  Uiso   1.00
C104   C     0.79667   0.36659   0.26081   0.00000  Uiso   1.00
C105   C     0.33931   0.82394   0.30367   0.00000  Uiso   1.00
C106   C     0.63341   0.20333   0.73919   0.00000  Uiso   1.00
C107   C     0.20125   0.36603   0.23254   0.00000  Uiso   1.00
C108   C     0.82192   0.65718   0.80262   0.00000  Uiso   1.00
C109   C     0.66069   0.17606   0.30367   0.00000  Uiso   1.00
C110   C     0.36659   0.79667   0.73919   0.00000  Uiso   1.00
C111   C     0.79875   0.63397   0.23254   0.00000  Uiso   1.00
C112   C     0.17808   0.34282   0.80262   0.00000  Uiso   1.00
C113   C     0.14744   0.35256   0.25000   0.00000  Uiso   1.00
C114   C     0.85255   0.64745   0.75000   0.00000  Uiso   1.00
C115   C     0.35212   0.85212   0.25000   0.00000  Uiso   1.00
C116   C     0.64788   0.14788   0.75000   0.00000  Uiso   1.00
C117   C     0.85256   0.64743   0.25000   0.00000  Uiso   1.00
C118   C     0.14745   0.35255   0.75000   0.00000  Uiso   1.00
C119   C     0.64788   0.14788   0.25000   0.00000  Uiso   1.00
C120   C     0.35212   0.85212   0.75000   0.00000  Uiso   1.00
C121   C     0.85212   0.35212   0.75000   0.00000  Uiso   1.00
C122   C     0.14788   0.64788   0.25000   0.00000  Uiso   1.00
C123   C     0.64744   0.85256   0.75000   0.00000  Uiso   1.00
C124   C     0.35255   0.14745   0.25000   0.00000  Uiso   1.00
C125   C     0.14788   0.64788   0.75000   0.00000  Uiso   1.00
C126   C     0.85212   0.35212   0.25000   0.00000  Uiso   1.00
C127   C     0.35256   0.14743   0.75000   0.00000  Uiso   1.00
C128   C     0.64745   0.85255   0.25000   0.00000  Uiso   1.00
O1     O     0.00000   0.50000   0.25000   0.00000  Uiso   1.00
O2     O     0.00000   0.50000   0.75000   0.00000  Uiso   1.00
O3     O     0.50000  -0.00000   0.25000   0.00000  Uiso   1.00
O4     O     0.50000  -0.00000   0.75000   0.00000  Uiso   1.00
O5     O     0.00000   0.45454   0.11798   0.00000  Uiso   1.00
O6     O     0.00000   0.54546   0.88202   0.00000  Uiso   1.00
O7     O     0.45454  -0.00000   0.11798   0.00000  Uiso   1.00
O8     O     0.54546  -0.00000   0.88202   0.00000  Uiso   1.00
O9     O     0.00000   0.54546   0.11798   0.00000  Uiso   1.00
O10    O     0.00000   0.45454   0.88202   0.00000  Uiso   1.00
O11    O     0.54546  -0.00000   0.11798   0.00000  Uiso   1.00
O12    O     0.45454  -0.00000   0.88202   0.00000  Uiso   1.00
O13    O     0.50000   0.95454   0.61798   0.00000  Uiso   1.00
O14    O     0.50000   0.04546   0.38202   0.00000  Uiso   1.00
O15    O     0.95454   0.50000   0.61798   0.00000  Uiso   1.00
O16    O     0.04546   0.50000   0.38202   0.00000  Uiso   1.00
O17    O     0.50000   0.04546   0.61798   0.00000  Uiso   1.00
O18    O     0.50000   0.95454   0.38202   0.00000  Uiso   1.00
O19    O     0.04546   0.50000   0.61798   0.00000  Uiso   1.00
O20    O     0.95454   0.50000   0.38202   0.00000  Uiso   1.00
O21    O     0.06399   0.60947   0.21539   0.00000  Uiso   1.00
O22    O     0.93601   0.39053   0.78461   0.00000  Uiso   1.00
O23    O     0.60947   0.93601   0.21539   0.00000  Uiso   1.00
O24    O     0.39053   0.06399   0.78461   0.00000  Uiso   1.00
O25    O     0.93601   0.39053   0.21539   0.00000  Uiso   1.00
O26    O     0.06399   0.60947   0.78461   0.00000  Uiso   1.00
O27    O     0.39053   0.06399   0.21539   0.00000  Uiso   1.00
O28    O     0.60947   0.93601   0.78461   0.00000  Uiso   1.00
O29    O     0.93601   0.60947   0.78461   0.00000  Uiso   1.00
O30    O     0.06399   0.39053   0.21539   0.00000  Uiso   1.00
O31    O     0.39053   0.93601   0.78461   0.00000  Uiso   1.00
O32    O     0.60947   0.06399   0.21539   0.00000  Uiso   1.00
O33    O     0.06399   0.39053   0.78461   0.00000  Uiso   1.00
O34    O     0.93601   0.60947   0.21539   0.00000  Uiso   1.00
O35    O     0.60947   0.06399   0.78461   0.00000  Uiso   1.00
O36    O     0.39053   0.93601   0.21539   0.00000  Uiso   1.00
O37    O     0.56399   0.10947   0.71539   0.00000  Uiso   1.00
O38    O     0.43601   0.89053   0.28461   0.00000  Uiso   1.00
O39    O     0.10947   0.43601   0.71539   0.00000  Uiso   1.00
O40    O     0.89053   0.56399   0.28461   0.00000  Uiso   1.00
O41    O     0.43601   0.89053   0.71539   0.00000  Uiso   1.00
O42    O     0.56399   0.10947   0.28461   0.00000  Uiso   1.00
O43    O     0.89053   0.56399   0.71539   0.00000  Uiso   1.00
O44    O     0.10947   0.43601   0.28461   0.00000  Uiso   1.00
O45    O     0.43601   0.10947   0.28461   0.00000  Uiso   1.00
O46    O     0.56399   0.89053   0.71539   0.00000  Uiso   1.00
O47    O     0.89053   0.43601   0.28461   0.00000  Uiso   1.00
O48    O     0.10947   0.56399   0.71539   0.00000  Uiso   1.00
O49    O     0.56399   0.89053   0.28461   0.00000  Uiso   1.00
O50    O     0.43601   0.10947   0.71539   0.00000  Uiso   1.00
O51    O     0.10947   0.56399   0.28461   0.00000  Uiso   1.00
O52    O     0.89053   0.43601   0.71539   0.00000  Uiso   1.00
Zn1    Zn    0.06497   0.50000   0.29947   0.00000  Uiso   1.00
Zn2    Zn    0.93503   0.50000   0.70053   0.00000  Uiso   1.00
Zn3    Zn    0.50000   0.93503   0.29947   0.00000  Uiso   1.00
Zn4    Zn    0.50000   0.06497   0.70053   0.00000  Uiso   1.00
Zn5    Zn    0.93503   0.50000   0.29947   0.00000  Uiso   1.00
Zn6    Zn    0.06497   0.50000   0.70053   0.00000  Uiso   1.00
Zn7    Zn    0.50000   0.06497   0.29947   0.00000  Uiso   1.00
Zn8    Zn    0.50000   0.93503   0.70053   0.00000  Uiso   1.00
Zn9    Zn    0.56497  -0.00000   0.79947   0.00000  Uiso   1.00
Zn10   Zn    0.43503  -0.00000   0.20053   0.00000  Uiso   1.00
Zn11   Zn    0.00000   0.43503   0.79947   0.00000  Uiso   1.00
Zn12   Zn    0.00000   0.56497   0.20053   0.00000  Uiso   1.00
Zn13   Zn    0.43503  -0.00000   0.79947   0.00000  Uiso   1.00
Zn14   Zn    0.56497  -0.00000   0.20053   0.00000  Uiso   1.00
Zn15   Zn    0.00000   0.56497   0.79947   0.00000  Uiso   1.00
Zn16   Zn    0.00000   0.43503   0.20053   0.00000  Uiso   1.00
O53    O     0.16186   0.20473   0.28125   0.00000  Uiso   1.00
C129   C     0.15059   0.17369   0.22972   0.00000  Uiso   1.00
H1     H     0.18900   0.16159   0.20693   0.00000  Uiso   1.00
H2     H     0.12270   0.19533   0.19819   0.00000  Uiso   1.00
H3     H     0.12992   0.13561   0.24363   0.00000  Uiso   1.00
O54    O     0.78996   0.74727   0.64587   0.00000  Uiso   1.00
C130   C     0.74663   0.72325   0.61404   0.00000  Uiso   1.00
H4     H     0.70686   0.73382   0.63486   0.00000  Uiso   1.00
H5     H     0.75130   0.67812   0.60982   0.00000  Uiso   1.00
H6     H     0.74623   0.74033   0.56819   0.00000  Uiso   1.00
O55    O     0.25259   0.78956   0.14582   0.00000  Uiso   1.00
C131   C     0.27639   0.74628   0.11325   0.00000  Uiso   1.00
H7     H     0.26459   0.70647   0.13278   0.00000  Uiso   1.00
H8     H     0.32165   0.74945   0.10997   0.00000  Uiso   1.00
H9     H     0.26007   0.74748   0.06709   0.00000  Uiso   1.00
O56    O     0.79689   0.16094   0.77615   0.00000  Uiso   1.00
C132   C     0.82689   0.15029   0.72366   0.00000  Uiso   1.00
H10    H     0.83964   0.18907   0.70245   0.00000  Uiso   1.00
H11    H     0.80426   0.12438   0.69124   0.00000  Uiso   1.00
H12    H     0.86461   0.12775   0.73605   0.00000  Uiso   1.00
O57    O     0.83814   0.79527   0.28125   0.00000  Uiso   1.00
C133   C     0.84941   0.82631   0.22973   0.00000  Uiso   1.00
H13    H     0.81100   0.83841   0.20693   0.00000  Uiso   1.00
H14    H     0.87730   0.80467   0.19819   0.00000  Uiso   1.00
H15    H     0.87008   0.86439   0.24364   0.00000  Uiso   1.00
O58    O     0.21004   0.25273   0.64587   0.00000  Uiso   1.00
C134   C     0.25337   0.27675   0.61404   0.00000  Uiso   1.00
H16    H     0.29313   0.26618   0.63486   0.00000  Uiso   1.00
H17    H     0.24870   0.32188   0.60982   0.00000  Uiso   1.00
H18    H     0.25376   0.25966   0.56819   0.00000  Uiso   1.00
O59    O     0.74741   0.21044   0.14582   0.00000  Uiso   1.00
C135   C     0.72361   0.25372   0.11325   0.00000  Uiso   1.00
H19    H     0.73541   0.29353   0.13278   0.00000  Uiso   1.00
H20    H     0.67835   0.25055   0.10997   0.00000  Uiso   1.00
H21    H     0.73993   0.25252   0.06709   0.00000  Uiso   1.00
O60    O     0.20311   0.83906   0.77615   0.00000  Uiso   1.00
C136   C     0.17312   0.84971   0.72366   0.00000  Uiso   1.00
H22    H     0.16036   0.81093   0.70245   0.00000  Uiso   1.00
H23    H     0.19574   0.87562   0.69124   0.00000  Uiso   1.00
H24    H     0.13539   0.87225   0.73605   0.00000  Uiso   1.00
O61    O     0.78956   0.25259   0.85418   0.00000  Uiso   1.00
C137   C     0.74628   0.27639   0.88675   0.00000  Uiso   1.00
H25    H     0.70647   0.26459   0.86722   0.00000  Uiso   1.00
H26    H     0.74945   0.32165   0.89003   0.00000  Uiso   1.00
H27    H     0.74748   0.26007   0.93291   0.00000  Uiso   1.00
O62    O     0.16094   0.79689   0.22385   0.00000  Uiso   1.00
C138   C     0.15029   0.82688   0.27634   0.00000  Uiso   1.00
H28    H     0.18907   0.83964   0.29755   0.00000  Uiso   1.00
H29    H     0.12438   0.80426   0.30876   0.00000  Uiso   1.00
H30    H     0.12775   0.86461   0.26395   0.00000  Uiso   1.00
O63    O     0.79527   0.83814   0.71875   0.00000  Uiso   1.00
C139   C     0.82631   0.84941   0.77027   0.00000  Uiso   1.00
H31    H     0.83841   0.81100   0.79307   0.00000  Uiso   1.00
H32    H     0.80467   0.87730   0.80181   0.00000  Uiso   1.00
H33    H     0.86439   0.87008   0.75636   0.00000  Uiso   1.00
O64    O     0.25273   0.21004   0.35413   0.00000  Uiso   1.00
C140   C     0.27675   0.25336   0.38597   0.00000  Uiso   1.00
H34    H     0.26618   0.29313   0.36514   0.00000  Uiso   1.00
H35    H     0.32188   0.24870   0.39018   0.00000  Uiso   1.00
H36    H     0.25966   0.25376   0.43181   0.00000  Uiso   1.00
O65    O     0.21044   0.74741   0.85418   0.00000  Uiso   1.00
C141   C     0.25372   0.72361   0.88675   0.00000  Uiso   1.00
H37    H     0.29353   0.73541   0.86722   0.00000  Uiso   1.00
H38    H     0.25055   0.67835   0.89003   0.00000  Uiso   1.00
H39    H     0.25252   0.73993   0.93291   0.00000  Uiso   1.00
O66    O     0.83906   0.20311   0.22385   0.00000  Uiso   1.00
C142   C     0.84971   0.17311   0.27634   0.00000  Uiso   1.00
H40    H     0.81093   0.16036   0.29755   0.00000  Uiso   1.00
H41    H     0.87562   0.19574   0.30876   0.00000  Uiso   1.00
H42    H     0.87225   0.13539   0.26395   0.00000  Uiso   1.00
O67    O     0.20473   0.16186   0.71875   0.00000  Uiso   1.00
C143   C     0.17369   0.15059   0.77027   0.00000  Uiso   1.00
H43    H     0.16159   0.18900   0.79307   0.00000  Uiso   1.00
H44    H     0.19534   0.12270   0.80181   0.00000  Uiso   1.00
H45    H     0.13561   0.12992   0.75637   0.00000  Uiso   1.00
O68    O     0.74727   0.78996   0.35413   0.00000  Uiso   1.00
C144   C     0.72325   0.74663   0.38596   0.00000  Uiso   1.00
H46    H     0.73382   0.70686   0.36514   0.00000  Uiso   1.00
H47    H     0.67812   0.75130   0.39018   0.00000  Uiso   1.00
H48    H     0.74034   0.74623   0.43181   0.00000  Uiso   1.00
O69    O     0.66186   0.70473   0.78125   0.00000  Uiso   1.00
C145   C     0.65059   0.67369   0.72973   0.00000  Uiso   1.00
H49    H     0.68900   0.66158   0.70693   0.00000  Uiso   1.00
H50    H     0.62270   0.69533   0.69819   0.00000  Uiso   1.00
H51    H     0.62992   0.63561   0.74364   0.00000  Uiso   1.00
O70    O     0.28996   0.24727   0.14587   0.00000  Uiso   1.00
C146   C     0.24664   0.22325   0.11404   0.00000  Uiso   1.00
H52    H     0.20687   0.23382   0.13486   0.00000  Uiso   1.00
H53    H     0.25130   0.17812   0.10982   0.00000  Uiso   1.00
H54    H     0.24624   0.24034   0.06819   0.00000  Uiso   1.00
O71    O     0.75259   0.28956   0.64582   0.00000  Uiso   1.00
C147   C     0.77639   0.24628   0.61325   0.00000  Uiso   1.00
H55    H     0.76459   0.20647   0.63278   0.00000  Uiso   1.00
H56    H     0.82165   0.24945   0.60997   0.00000  Uiso   1.00
H57    H     0.76007   0.24748   0.56709   0.00000  Uiso   1.00
O72    O     0.29689   0.66094   0.27615   0.00000  Uiso   1.00
C148   C     0.32689   0.65029   0.22366   0.00000  Uiso   1.00
H58    H     0.33964   0.68907   0.20245   0.00000  Uiso   1.00
H59    H     0.30426   0.62438   0.19124   0.00000  Uiso   1.00
H60    H     0.36461   0.62775   0.23605   0.00000  Uiso   1.00
O73    O     0.33814   0.29527   0.78125   0.00000  Uiso   1.00
C149   C     0.34941   0.32631   0.72973   0.00000  Uiso   1.00
H61    H     0.31100   0.33841   0.70693   0.00000  Uiso   1.00
H62    H     0.37730   0.30466   0.69819   0.00000  Uiso   1.00
H63    H     0.37008   0.36439   0.74364   0.00000  Uiso   1.00
O74    O     0.71004   0.75273   0.14587   0.00000  Uiso   1.00
C150   C     0.75337   0.77675   0.11404   0.00000  Uiso   1.00
H64    H     0.79314   0.76618   0.13486   0.00000  Uiso   1.00
H65    H     0.74870   0.82188   0.10982   0.00000  Uiso   1.00
H66    H     0.75376   0.75966   0.06819   0.00000  Uiso   1.00
O75    O     0.24741   0.71044   0.64582   0.00000  Uiso   1.00
C151   C     0.22361   0.75372   0.61325   0.00000  Uiso   1.00
H67    H     0.23541   0.79353   0.63278   0.00000  Uiso   1.00
H68    H     0.17835   0.75055   0.60997   0.00000  Uiso   1.00
H69    H     0.23993   0.75252   0.56709   0.00000  Uiso   1.00
O76    O     0.70311   0.33906   0.27615   0.00000  Uiso   1.00
C152   C     0.67312   0.34971   0.22366   0.00000  Uiso   1.00
H70    H     0.66036   0.31093   0.20245   0.00000  Uiso   1.00
H71    H     0.69574   0.37562   0.19124   0.00000  Uiso   1.00
H72    H     0.63539   0.37225   0.23605   0.00000  Uiso   1.00
O77    O     0.28956   0.75259   0.35418   0.00000  Uiso   1.00
C153   C     0.24628   0.77639   0.38675   0.00000  Uiso   1.00
H73    H     0.20647   0.76459   0.36722   0.00000  Uiso   1.00
H74    H     0.24945   0.82165   0.39003   0.00000  Uiso   1.00
H75    H     0.24748   0.76007   0.43291   0.00000  Uiso   1.00
O78    O     0.66094   0.29689   0.72385   0.00000  Uiso   1.00
C154   C     0.65029   0.32688   0.77634   0.00000  Uiso   1.00
H76    H     0.68907   0.33964   0.79755   0.00000  Uiso   1.00
H77    H     0.62438   0.30426   0.80876   0.00000  Uiso   1.00
H78    H     0.62775   0.36461   0.76395   0.00000  Uiso   1.00
O79    O     0.29527   0.33814   0.21875   0.00000  Uiso   1.00
C155   C     0.32631   0.34941   0.27028   0.00000  Uiso   1.00
H79    H     0.33841   0.31100   0.29307   0.00000  Uiso   1.00
H80    H     0.30467   0.37730   0.30182   0.00000  Uiso   1.00
H81    H     0.36439   0.37008   0.25637   0.00000  Uiso   1.00
O80    O     0.75273   0.71004   0.85413   0.00000  Uiso   1.00
C156   C     0.77675   0.75337   0.88596   0.00000  Uiso   1.00
H82    H     0.76618   0.79314   0.86514   0.00000  Uiso   1.00
H83    H     0.82188   0.74870   0.89018   0.00000  Uiso   1.00
H84    H     0.75967   0.75377   0.93181   0.00000  Uiso   1.00
O81    O     0.71044   0.24741   0.35418   0.00000  Uiso   1.00
C157   C     0.75372   0.22361   0.38675   0.00000  Uiso   1.00
H85    H     0.79353   0.23541   0.36722   0.00000  Uiso   1.00
H86    H     0.75055   0.17835   0.39003   0.00000  Uiso   1.00
H87    H     0.75252   0.23993   0.43291   0.00000  Uiso   1.00
O82    O     0.33906   0.70311   0.72385   0.00000  Uiso   1.00
C158   C     0.34971   0.67311   0.77634   0.00000  Uiso   1.00
H88    H     0.31093   0.66036   0.79755   0.00000  Uiso   1.00
H89    H     0.37562   0.69574   0.80876   0.00000  Uiso   1.00
H90    H     0.37225   0.63539   0.76395   0.00000  Uiso   1.00
O83    O     0.70473   0.66186   0.21875   0.00000  Uiso   1.00
C159   C     0.67369   0.65059   0.27027   0.00000  Uiso   1.00
H91    H     0.66159   0.68900   0.29307   0.00000  Uiso   1.00
H92    H     0.69533   0.62270   0.30181   0.00000  Uiso   1.00
H93    H     0.63561   0.62992   0.25636   0.00000  Uiso   1.00
O84    O     0.24727   0.28996   0.85413   0.00000  Uiso   1.00
C160   C     0.22325   0.24663   0.88597   0.00000  Uiso   1.00
H94    H     0.23382   0.20687   0.86514   0.00000  Uiso   1.00
H95    H     0.17812   0.25130   0.89018   0.00000  Uiso   1.00
H96    H     0.24034   0.24624   0.93181   0.00000  Uiso   1.00
C161   C     0.07806   0.28626   0.29044   0.00000  Uiso   1.00
H97    H     0.04975   0.31898   0.30123   0.00000  Uiso   1.00
O85    O     0.06268   0.23951   0.29817   0.00000  Uiso   1.00
C162   C     0.87836   0.67022   0.64362   0.00000  Uiso   1.00
H98    H     0.91465   0.64477   0.64589   0.00000  Uiso   1.00
O86    O     0.86822   0.69230   0.59603   0.00000  Uiso   1.00
C163   C     0.33902   0.86504   0.13844   0.00000  Uiso   1.00
H99    H     0.38117   0.87528   0.12912   0.00000  Uiso   1.00
O87    O     0.30460   0.87512   0.10053   0.00000  Uiso   1.00
C164   C     0.72054   0.07535   0.76789   0.00000  Uiso   1.00
H100   H     0.69986   0.04347   0.74334   0.00000  Uiso   1.00
O88    O     0.75793   0.06246   0.80117   0.00000  Uiso   1.00
C165   C     0.92194   0.71373   0.29044   0.00000  Uiso   1.00
H101   H     0.95025   0.68102   0.30123   0.00000  Uiso   1.00
O89    O     0.93732   0.76049   0.29818   0.00000  Uiso   1.00
C166   C     0.12163   0.32978   0.64363   0.00000  Uiso   1.00
H102   H     0.08535   0.35524   0.64589   0.00000  Uiso   1.00
O90    O     0.13177   0.30769   0.59604   0.00000  Uiso   1.00
C167   C     0.66098   0.13496   0.13844   0.00000  Uiso   1.00
H103   H     0.61883   0.12472   0.12912   0.00000  Uiso   1.00
O91    O     0.69540   0.12488   0.10053   0.00000  Uiso   1.00
C168   C     0.27946   0.92465   0.76789   0.00000  Uiso   1.00
H104   H     0.30014   0.95653   0.74335   0.00000  Uiso   1.00
O92    O     0.24207   0.93754   0.80117   0.00000  Uiso   1.00
C169   C     0.86504   0.33902   0.86156   0.00000  Uiso   1.00
H105   H     0.87528   0.38117   0.87088   0.00000  Uiso   1.00
O93    O     0.87512   0.30460   0.89947   0.00000  Uiso   1.00
C170   C     0.07535   0.72054   0.23211   0.00000  Uiso   1.00
H106   H     0.04347   0.69985   0.25666   0.00000  Uiso   1.00
O94    O     0.06246   0.75793   0.19883   0.00000  Uiso   1.00
C171   C     0.71373   0.92194   0.70956   0.00000  Uiso   1.00
H107   H     0.68102   0.95024   0.69877   0.00000  Uiso   1.00
O95    O     0.76049   0.93732   0.70182   0.00000  Uiso   1.00
C172   C     0.32978   0.12163   0.35638   0.00000  Uiso   1.00
H108   H     0.35524   0.08535   0.35412   0.00000  Uiso   1.00
O96    O     0.30769   0.13177   0.40396   0.00000  Uiso   1.00
C173   C     0.13496   0.66098   0.86156   0.00000  Uiso   1.00
H109   H     0.12472   0.61883   0.87088   0.00000  Uiso   1.00
O97    O     0.12488   0.69540   0.89947   0.00000  Uiso   1.00
C174   C     0.92465   0.27946   0.23211   0.00000  Uiso   1.00
H110   H     0.95653   0.30014   0.25666   0.00000  Uiso   1.00
O98    O     0.93754   0.24207   0.19883   0.00000  Uiso   1.00
C175   C     0.28627   0.07806   0.70956   0.00000  Uiso   1.00
H111   H     0.31898   0.04975   0.69877   0.00000  Uiso   1.00
O99    O     0.23951   0.06268   0.70183   0.00000  Uiso   1.00
C176   C     0.67022   0.87836   0.35638   0.00000  Uiso   1.00
H112   H     0.64477   0.91465   0.35412   0.00000  Uiso   1.00
O100   O     0.69230   0.86823   0.40397   0.00000  Uiso   1.00
C177   C     0.57806   0.78627   0.79044   0.00000  Uiso   1.00
H113   H     0.54975   0.81898   0.80123   0.00000  Uiso   1.00
O101   O     0.56268   0.73951   0.79818   0.00000  Uiso   1.00
C178   C     0.37837   0.17022   0.14363   0.00000  Uiso   1.00
H114   H     0.41465   0.14476   0.14589   0.00000  Uiso   1.00
O102   O     0.36823   0.19231   0.09604   0.00000  Uiso   1.00
C179   C     0.83902   0.36504   0.63844   0.00000  Uiso   1.00
H115   H     0.88117   0.37528   0.62912   0.00000  Uiso   1.00
O103   O     0.80460   0.37512   0.60053   0.00000  Uiso   1.00
C180   C     0.22054   0.57535   0.26789   0.00000  Uiso   1.00
H116   H     0.19986   0.54347   0.24335   0.00000  Uiso   1.00
O104   O     0.25793   0.56246   0.30117   0.00000  Uiso   1.00
C181   C     0.42194   0.21373   0.79044   0.00000  Uiso   1.00
H117   H     0.45025   0.18102   0.80123   0.00000  Uiso   1.00
O105   O     0.43732   0.26049   0.79817   0.00000  Uiso   1.00
C182   C     0.62164   0.82978   0.14362   0.00000  Uiso   1.00
H118   H     0.58535   0.85524   0.14589   0.00000  Uiso   1.00
O106   O     0.63177   0.80769   0.09604   0.00000  Uiso   1.00
C183   C     0.16098   0.63496   0.63844   0.00000  Uiso   1.00
H119   H     0.11883   0.62472   0.62912   0.00000  Uiso   1.00
O107   O     0.19540   0.62488   0.60053   0.00000  Uiso   1.00
C184   C     0.77946   0.42465   0.26789   0.00000  Uiso   1.00
H120   H     0.80014   0.45653   0.24335   0.00000  Uiso   1.00
O108   O     0.74207   0.43754   0.30117   0.00000  Uiso   1.00
C185   C     0.36504   0.83902   0.36156   0.00000  Uiso   1.00
H121   H     0.37528   0.88117   0.37088   0.00000  Uiso   1.00
O109   O     0.37512   0.80460   0.39947   0.00000  Uiso   1.00
C186   C     0.57535   0.22054   0.73211   0.00000  Uiso   1.00
H122   H     0.54347   0.19985   0.75666   0.00000  Uiso   1.00
O110   O     0.56246   0.25793   0.69883   0.00000  Uiso   1.00
C187   C     0.21374   0.42194   0.20956   0.00000  Uiso   1.00
H123   H     0.18102   0.45025   0.19877   0.00000  Uiso   1.00
O111   O     0.26049   0.43732   0.20183   0.00000  Uiso   1.00
C188   C     0.82978   0.62164   0.85638   0.00000  Uiso   1.00
H124   H     0.85524   0.58535   0.85412   0.00000  Uiso   1.00
O112   O     0.80770   0.63177   0.90397   0.00000  Uiso   1.00
C189   C     0.63496   0.16098   0.36156   0.00000  Uiso   1.00
H125   H     0.62472   0.11883   0.37088   0.00000  Uiso   1.00
O113   O     0.62488   0.19540   0.39947   0.00000  Uiso   1.00
C190   C     0.42465   0.77946   0.73211   0.00000  Uiso   1.00
H126   H     0.45653   0.80014   0.75666   0.00000  Uiso   1.00
O114   O     0.43754   0.74207   0.69883   0.00000  Uiso   1.00
C191   C     0.78627   0.57806   0.20956   0.00000  Uiso   1.00
H127   H     0.81898   0.54975   0.19877   0.00000  Uiso   1.00
O115   O     0.73951   0.56268   0.20182   0.00000  Uiso   1.00
C192   C     0.17022   0.37837   0.85638   0.00000  Uiso   1.00
H128   H     0.14476   0.41465   0.85412   0.00000  Uiso   1.00
O116   O     0.19231   0.36823   0.90396   0.00000  Uiso   1.00
loop_
_geom_bond_atom_site_label_1
_geom_bond_atom_site_label_2
_geom_bond_distance
_geom_bond_site_symmetry_2
_ccdc_geom_bond_type
C1     C12     1.478   .     S
C1     C49     1.411   .     A
C1     C75     1.411   .     A
C2     C11     1.478   .     S
C2     C76     1.411   .     A
C2     C50     1.411   .     A
C3     C73     1.406   .     A
C3     C51     1.406   .     A
C3     C10     1.472   .     S
C4     C9      1.472   .     S
C4     C52     1.406   .     A
C4     C74     1.406   .     A
C5     C79     1.411   .     A
C5     C53     1.411   .     A
C5     C16     1.478   .     S
C6     C54     1.411   .     A
C6     C15     1.478   .     S
C6     C80     1.411   .     A
C7     C55     1.406   .     A
C7     C77     1.406   .     A
C7     C14     1.472   .     S
C8     C56     1.406   .     A
C8     C13     1.472   .     S
C8     C78     1.406   .     A
C9     C67     1.406   .     A
C9     C57     1.406   .     A
C10    C68     1.406   .     A
C10    C58     1.406   .     A
C11    C59     1.411   .     A
C11    C65     1.411   .     A
C12    C66     1.411   .     A
C12    C60     1.411   .     A
C13    C71     1.406   .     A
C13    C61     1.406   .     A
C14    C62     1.406   .     A
C14    C72     1.406   .     A
C15    C69     1.411   .     A
C15    C63     1.411   .     A
C16    C70     1.411   .     A
C16    C64     1.411   .     A
C17    C18     1.197   .     S
C17    C32     1.420   .     S
C18    C31     1.419   .     S
C19    C30     1.419   .     S
C19    C20     1.197   .     S
C20    C29     1.420   .     S
C21    C28     1.420   .     S
C21    C22     1.197   1_556 S
C22    C27     1.419   .     S
C22    C21     1.197   1_554 S
C23    C26     1.419   .     S
C23    C24     1.197   1_556 S
C24    C25     1.420   .     S
C24    C23     1.197   1_554 S
C25    O5      1.278   .     S
C25    O9      1.278   .     S
C26    O6      1.278   .     S
C26    O10     1.278   .     S
C27    O11     1.278   .     A
C27    O7      1.278   .     A
C28    O8      1.278   .     S
C28    O12     1.278   .     S
C29    O17     1.278   .     A
C29    O13     1.278   1_545 S
C30    O14     1.278   .     A
C30    O18     1.278   1_545 S
C31    O15     1.278   1_455 A
C31    O19     1.278   .     S
C32    O20     1.278   1_455 A
C32    O16     1.278   .     S
C33    O21     1.278   .     A
C33    C122    1.481   .     S
C33    O51     1.278   .     A
C34    O22     1.278   .     A
C34    O52     1.278   .     A
C34    C121    1.482   .     S
C35    O49     1.275   .     A
C35    O23     1.275   .     A
C35    C128    1.465   .     S
C36    O50     1.275   .     A
C36    C127    1.465   .     S
C36    O24     1.275   .     A
C37    O47     1.278   .     A
C37    C126    1.481   .     S
C37    O25     1.278   .     A
C38    O48     1.278   .     A
C38    O26     1.278   .     A
C38    C125    1.482   .     S
C39    C124    1.465   .     S
C39    O27     1.275   .     A
C39    O45     1.275   .     A
C40    O46     1.275   .     A
C40    C123    1.465   .     S
C40    O28     1.275   .     A
C41    O43     1.275   .     A
C41    O29     1.275   .     A
C41    C114    1.465   .     S
C42    O30     1.275   .     A
C42    C113    1.465   .     S
C42    O44     1.275   .     A
C43    C120    1.481   .     S
C43    O31     1.278   .     A
C43    O41     1.278   .     A
C44    C119    1.482   .     S
C44    O32     1.278   .     A
C44    O42     1.278   .     A
C45    C118    1.465   .     S
C45    O33     1.275   .     A
C45    O39     1.275   .     A
C46    C117    1.465   .     S
C46    O40     1.275   .     A
C46    O34     1.275   .     A
C47    O37     1.278   .     A
C47    C116    1.481   .     S
C47    O35     1.278   .     A
C48    O36     1.278   .     A
C48    O38     1.278   .     A
C48    C115    1.482   .     S
C49    O53     1.386   .     S
C49    C81     1.409   .     A
C50    O54     1.386   .     S
C50    C82     1.409   .     A
C51    C83     1.407   .     A
C51    O55     1.387   .     S
C52    O56     1.387   .     S
C52    C84     1.407   .     A
C53    C85     1.409   .     A
C53    O57     1.386   .     S
C54    C86     1.409   .     A
C54    O58     1.386   .     S
C55    O59     1.387   .     S
C55    C87     1.407   .     A
C56    C88     1.407   .     A
C56    O60     1.387   .     S
C57    C89     1.407   .     A
C57    O61     1.387   .     S
C58    O62     1.387   .     S
C58    C90     1.407   .     A
C59    C91     1.409   .     A
C59    O63     1.386   .     S
C60    C92     1.409   .     A
C60    O64     1.386   .     S
C61    O65     1.387   .     S
C61    C93     1.407   .     A
C62    C94     1.407   .     A
C62    O66     1.387   .     S
C63    C95     1.409   .     A
C63    O67     1.386   .     S
C64    O68     1.386   .     S
C64    C96     1.409   .     A
C65    O69     1.386   .     S
C65    C97     1.409   .     A
C66    O70     1.386   .     S
C66    C98     1.409   .     A
C67    C99     1.407   .     A
C67    O71     1.387   .     S
C68    C100    1.407   .     A
C68    O72     1.387   .     S
C69    C101    1.409   .     A
C69    O73     1.386   .     S
C70    O74     1.386   .     S
C70    C102    1.409   .     A
C71    C103    1.407   .     A
C71    O75     1.387   .     S
C72    C104    1.407   .     A
C72    O76     1.387   .     S
C73    O77     1.387   .     S
C73    C105    1.407   .     A
C74    O78     1.387   .     S
C74    C106    1.407   .     A
C75    C107    1.409   .     A
C75    O79     1.386   .     S
C76    O80     1.386   .     S
C76    C108    1.409   .     A
C77    O81     1.387   .     S
C77    C109    1.407   .     A
C78    O82     1.387   .     S
C78    C110    1.407   .     A
C79    O83     1.386   .     S
C79    C111    1.409   .     A
C80    C112    1.409   .     A
C80    O84     1.386   .     S
C81    C113    1.416   .     A
C81    C161    1.497   .     S
C82    C114    1.417   .     A
C82    C162    1.498   .     S
C83    C115    1.423   .     A
C83    C163    1.490   .     S
C84    C164    1.490   .     S
C84    C116    1.423   .     A
C85    C117    1.416   .     A
C85    C165    1.497   .     S
C86    C166    1.498   .     S
C86    C118    1.417   .     A
C87    C167    1.490   .     S
C87    C119    1.423   .     A
C88    C120    1.423   .     A
C88    C168    1.490   .     S
C89    C121    1.423   .     A
C89    C169    1.490   .     S
C90    C170    1.490   .     S
C90    C122    1.423   .     A
C91    C123    1.416   .     A
C91    C171    1.497   .     S
C92    C124    1.417   .     A
C92    C172    1.498   .     S
C93    C173    1.490   .     S
C93    C125    1.423   .     A
C94    C126    1.423   .     A
C94    C174    1.490   .     S
C95    C127    1.416   .     A
C95    C175    1.497   .     S
C96    C176    1.498   .     S
C96    C128    1.417   .     A
C97    C177    1.497   .     S
C97    C123    1.416   .     A
C98    C124    1.417   .     A
C98    C178    1.498   .     S
C99    C121    1.423   .     A
C99    C179    1.490   .     S
C100   C180    1.490   .     S
C100   C122    1.423   .     A
C101   C181    1.497   .     S
C101   C127    1.416   .     A
C102   C128    1.417   .     A
C102   C182    1.498   .     S
C103   C183    1.490   .     S
C103   C125    1.423   .     A
C104   C184    1.490   .     S
C104   C126    1.423   .     A
C105   C115    1.423   .     A
C105   C185    1.490   .     S
C106   C116    1.423   .     A
C106   C186    1.490   .     S
C107   C113    1.416   .     A
C107   C187    1.497   .     S
C108   C114    1.417   .     A
C108   C188    1.498   .     S
C109   C189    1.490   .     S
C109   C119    1.423   .     A
C110   C190    1.490   .     S
C110   C120    1.423   .     A
C111   C117    1.416   .     A
C111   C191    1.497   .     S
C112   C192    1.498   .     S
C112   C118    1.417   .     A
O1     Zn5     1.940   1_455 S
O1     Zn16    1.940   .     S
O1     Zn1     1.940   .     S
O1     Zn12    1.940   .     S
O2     Zn15    1.940   .     S
O2     Zn6     1.940   .     S
O2     Zn2     1.940   1_455 S
O2     Zn11    1.940   .     S
O3     Zn3     1.940   1_545 S
O3     Zn7     1.940   .     S
O3     Zn10    1.940   .     S
O3     Zn14    1.940   .     S
O4     Zn4     1.940   .     S
O4     Zn8     1.940   1_545 S
O4     Zn9     1.940   .     S
O4     Zn13    1.940   .     S
O5     Zn16    1.910   .     S
O6     Zn15    1.910   .     S
O7     Zn10    1.910   .     S
O8     Zn9     1.910   .     S
O9     Zn12    1.910   .     S
O10    Zn11    1.910   .     S
O11    Zn14    1.910   .     S
O12    Zn13    1.910   .     S
O13    Zn8     1.910   .     S
O13    C29     1.278   1_565 S
O14    Zn7     1.910   .     S
O15    C31     1.278   1_655 A
O15    Zn2     1.910   .     S
O16    Zn1     1.910   .     S
O17    Zn4     1.910   .     S
O18    Zn3     1.910   .     S
O18    C30     1.278   1_565 S
O19    Zn6     1.910   .     S
O20    Zn5     1.910   .     S
O20    C32     1.278   1_655 A
O21    Zn12    1.944   .     S
O22    Zn11    1.944   1_655 S
O23    Zn14    1.933   1_565 S
O24    Zn13    1.933   .     S
O25    Zn16    1.944   1_655 S
O26    Zn15    1.944   .     S
O27    Zn10    1.933   .     S
O28    Zn9     1.933   1_565 S
O29    Zn15    1.933   1_655 S
O30    Zn16    1.933   .     S
O31    Zn13    1.944   1_565 S
O32    Zn14    1.944   .     S
O33    Zn11    1.933   .     S
O34    Zn12    1.933   1_655 S
O35    Zn9     1.944   .     S
O36    Zn10    1.944   1_565 S
O37    Zn4     1.944   .     S
O38    Zn3     1.944   .     S
O39    Zn6     1.933   .     S
O40    Zn5     1.933   .     S
O41    Zn8     1.944   .     S
O42    Zn7     1.944   .     S
O43    Zn2     1.933   .     S
O44    Zn1     1.933   .     S
O45    Zn7     1.933   .     S
O46    Zn8     1.933   .     S
O47    Zn5     1.944   .     S
O48    Zn6     1.944   .     S
O49    Zn3     1.933   .     S
O50    Zn4     1.933   .     S
O51    Zn1     1.944   .     S
O52    Zn2     1.944   .     S
Zn2    O2      1.940   1_655 S
Zn3    O3      1.940   1_565 S
Zn5    O1      1.940   1_655 S
Zn8    O4      1.940   1_565 S
Zn9    O28     1.933   1_545 S
Zn10   O36     1.944   1_545 S
Zn11   O22     1.944   1_455 S
Zn12   O34     1.933   1_455 S
Zn13   O31     1.944   1_545 S
Zn14   O23     1.933   1_545 S
Zn15   O29     1.933   1_455 S
Zn16   O25     1.944   1_455 S
O53    C129    1.411   .     S
C129   H2      1.115   .     S
C129   H1      1.109   .     S
C129   H3      1.109   .     S
O54    C130    1.411   .     S
C130   H5      1.115   .     S
C130   H6      1.109   .     S
C130   H4      1.109   .     S
O55    C131    1.410   .     S
C131   H7      1.109   .     S
C131   H9      1.109   .     S
C131   H8      1.115   .     S
O56    C132    1.410   .     S
C132   H10     1.109   .     S
C132   H11     1.115   .     S
C132   H12     1.109   .     S
O57    C133    1.411   .     S
C133   H14     1.115   .     S
C133   H15     1.109   .     S
C133   H13     1.109   .     S
O58    C134    1.411   .     S
C134   H16     1.109   .     S
C134   H18     1.109   .     S
C134   H17     1.115   .     S
O59    C135    1.410   .     S
C135   H19     1.109   .     S
C135   H21     1.109   .     S
C135   H20     1.115   .     S
O60    C136    1.410   .     S
C136   H23     1.115   .     S
C136   H24     1.109   .     S
C136   H22     1.109   .     S
O61    C137    1.410   .     S
C137   H26     1.115   .     S
C137   H27     1.109   .     S
C137   H25     1.109   .     S
O62    C138    1.410   .     S
C138   H30     1.109   .     S
C138   H28     1.109   .     S
C138   H29     1.115   .     S
O63    C139    1.411   .     S
C139   H31     1.109   .     S
C139   H32     1.115   .     S
C139   H33     1.109   .     S
O64    C140    1.411   .     S
C140   H34     1.109   .     S
C140   H36     1.109   .     S
C140   H35     1.115   .     S
O65    C141    1.410   .     S
C141   H37     1.109   .     S
C141   H39     1.109   .     S
C141   H38     1.115   .     S
O66    C142    1.410   .     S
C142   H41     1.115   .     S
C142   H40     1.109   .     S
C142   H42     1.109   .     S
O67    C143    1.411   .     S
C143   H43     1.109   .     S
C143   H45     1.109   .     S
C143   H44     1.115   .     S
O68    C144    1.411   .     S
C144   H48     1.109   .     S
C144   H47     1.115   .     S
C144   H46     1.110   .     S
O69    C145    1.411   .     S
C145   H49     1.110   .     S
C145   H51     1.109   .     S
C145   H50     1.115   .     S
O70    C146    1.411   .     S
C146   H54     1.109   .     S
C146   H52     1.109   .     S
C146   H53     1.115   .     S
O71    C147    1.410   .     S
C147   H57     1.109   .     S
C147   H56     1.115   .     S
C147   H55     1.109   .     S
O72    C148    1.410   .     S
C148   H58     1.109   .     S
C148   H60     1.109   .     S
C148   H59     1.115   .     S
O73    C149    1.411   .     S
C149   H62     1.115   .     S
C149   H61     1.109   .     S
C149   H63     1.109   .     S
O74    C150    1.411   .     S
C150   H65     1.115   .     S
C150   H66     1.109   .     S
C150   H64     1.109   .     S
O75    C151    1.410   .     S
C151   H69     1.109   .     S
C151   H68     1.115   .     S
C151   H67     1.109   .     S
O76    C152    1.410   .     S
C152   H71     1.115   .     S
C152   H70     1.109   .     S
C152   H72     1.109   .     S
O77    C153    1.410   .     S
C153   H75     1.109   .     S
C153   H74     1.115   .     S
C153   H73     1.109   .     S
O78    C154    1.410   .     S
C154   H76     1.109   .     S
C154   H77     1.115   .     S
C154   H78     1.109   .     S
O79    C155    1.411   .     S
C155   H80     1.115   .     S
C155   H79     1.110   .     S
C155   H81     1.109   .     S
O80    C156    1.411   .     S
C156   H82     1.109   .     S
C156   H84     1.109   .     S
C156   H83     1.115   .     S
O81    C157    1.410   .     S
C157   H86     1.115   .     S
C157   H87     1.109   .     S
C157   H85     1.109   .     S
O82    C158    1.410   .     S
C158   H89     1.115   .     S
C158   H88     1.109   .     S
C158   H90     1.109   .     S
O83    C159    1.411   .     S
C159   H91     1.109   .     S
C159   H93     1.109   .     S
C159   H92     1.115   .     S
O84    C160    1.411   .     S
C160   H95     1.115   .     S
C160   H94     1.109   .     S
C160   H96     1.109   .     S
C161   H97     1.084   .     S
C161   O85     1.221   .     D
C162   H98     1.084   .     S
C162   O86     1.221   .     D
C163   O87     1.221   .     D
C163   H99     1.085   .     S
C164   O88     1.221   .     D
C164   H100    1.084   .     S
C165   O89     1.221   .     D
C165   H101    1.084   .     S
C166   H102    1.084   .     S
C166   O90     1.221   .     D
C167   O91     1.221   .     D
C167   H103    1.085   .     S
C168   H104    1.084   .     S
C168   O92     1.221   .     D
C169   H105    1.085   .     S
C169   O93     1.221   .     D
C170   O94     1.221   .     D
C170   H106    1.084   .     S
C171   H107    1.084   .     S
C171   O95     1.221   .     D
C172   O96     1.221   .     D
C172   H108    1.084   .     S
C173   H109    1.085   .     S
C173   O97     1.221   .     D
C174   O98     1.221   .     D
C174   H110    1.084   .     S
C175   H111    1.084   .     S
C175   O99     1.221   .     D
C176   O100    1.221   .     D
C176   H112    1.084   .     S
C177   H113    1.084   .     S
C177   O101    1.221   .     D
C178   O102    1.221   .     D
C178   H114    1.084   .     S
C179   O103    1.221   .     D
C179   H115    1.085   .     S
C180   O104    1.221   .     D
C180   H116    1.084   .     S
C181   O105    1.221   .     D
C181   H117    1.084   .     S
C182   H118    1.084   .     S
C182   O106    1.221   .     D
C183   O107    1.221   .     D
C183   H119    1.085   .     S
C184   H120    1.084   .     S
C184   O108    1.221   .     D
C185   H121    1.085   .     S
C185   O109    1.221   .     D
C186   H122    1.084   .     S
C186   O110    1.221   .     D
C187   O111    1.221   .     D
C187   H123    1.084   .     S
C188   H124    1.084   .     S
C188   O112    1.221   .     D
C189   O113    1.221   .     D
C189   H125    1.085   .     S
C190   H126    1.084   .     S
C190   O114    1.221   .     D
C191   O115    1.221   .     D
C191   H127    1.084   .     S
C192   O116    1.221   .     D
C192   H128    1.084   .     S
