data_str_m1_o2_o5_pcu_sym.46
_audit_creation_date              2020-01-03
_audit_creation_method            'Materials Studio'
_symmetry_space_group_name_H-M    'P1'
_symmetry_Int_Tables_number       1
_symmetry_cell_setting            triclinic
loop_
_symmetry_equiv_pos_as_xyz
  x,y,z
_cell_length_a                    24.4532
_cell_length_b                    24.4066
_cell_length_c                    22.4396
_cell_angle_alpha                 89.9662
_cell_angle_beta                  90.0519
_cell_angle_gamma                 90.0325
loop_
_atom_site_label
_atom_site_type_symbol
_atom_site_fract_x
_atom_site_fract_y
_atom_site_fract_z
_atom_site_U_iso_or_equiv
_atom_site_adp_type
_atom_site_occupancy
C1     C     0.22819   0.27125   0.25146   0.00000  Uiso   1.00
C2     C     0.22832   0.72944   0.25042   0.00000  Uiso   1.00
C3     C     0.15957   0.67636   0.30336   0.00000  Uiso   1.00
C4     C     0.32877   0.16569   0.69567   0.00000  Uiso   1.00
C5     C     0.69420   0.85981   0.28677   0.00000  Uiso   1.00
C6     C     0.20052   0.63477   0.77201   0.00000  Uiso   1.00
C7     C     0.84580   0.31909   0.30147   0.00000  Uiso   1.00
C8     C     0.36228   0.80189   0.22228   0.00000  Uiso   1.00
C9     C     0.67593   0.16048   0.69668   0.00000  Uiso   1.00
C10    C     0.19792   0.36224   0.22180   0.00000  Uiso   1.00
C11    C     0.83826   0.67515   0.69676   0.00000  Uiso   1.00
C12    C     0.63562   0.20068   0.22916   0.00000  Uiso   1.00
C13    C     0.72819   0.77125   0.75147   0.00000  Uiso   1.00
C14    C     0.31960   0.84405   0.69929   0.00000  Uiso   1.00
C15    C     0.83664   0.67263   0.30471   0.00000  Uiso   1.00
C16    C     0.14141   0.30548   0.71483   0.00000  Uiso   1.00
C17    C     0.14719   0.35261   0.25027   0.00000  Uiso   1.00
C18    C     0.85202   0.64719   0.75022   0.00000  Uiso   1.00
C19    C     0.35252   0.85287   0.25026   0.00000  Uiso   1.00
C20    C     0.64734   0.14777   0.74996   0.00000  Uiso   1.00
C21    C     0.85295   0.64822   0.25011   0.00000  Uiso   1.00
C22    C     0.14733   0.35292   0.75049   0.00000  Uiso   1.00
C23    C     0.64751   0.14734   0.25042   0.00000  Uiso   1.00
C24    C     0.27053   0.22836   0.25115   0.00000  Uiso   1.00
C25    C     0.35297   0.85221   0.75018   0.00000  Uiso   1.00
C26    C     0.85251   0.35287   0.75026   0.00000  Uiso   1.00
C27    C     0.14734   0.64776   0.24996   0.00000  Uiso   1.00
C28    C     0.64719   0.85261   0.75027   0.00000  Uiso   1.00
C29    C     0.35202   0.14719   0.25022   0.00000  Uiso   1.00
C30    C     0.14751   0.64734   0.75042   0.00000  Uiso   1.00
C31    C     0.85297   0.35221   0.25018   0.00000  Uiso   1.00
C32    C     0.35295   0.14822   0.75010   0.00000  Uiso   1.00
C33    C     0.64732   0.85292   0.25048   0.00000  Uiso   1.00
C34    C     0.08393   0.29018   0.31143   0.00000  Uiso   1.00
C35    C     0.22888   0.72854   0.75191   0.00000  Uiso   1.00
C36    C     0.04438   0.25928   0.27096   0.00000  Uiso   1.00
C37    C     0.83442   0.62940   0.86183   0.00000  Uiso   1.00
C38    C     0.87053   0.66296   0.90362   0.00000  Uiso   1.00
C39    C     0.28943   0.91697   0.30941   0.00000  Uiso   1.00
C40    C     0.25844   0.95584   0.26821   0.00000  Uiso   1.00
C41    C     0.62913   0.16648   0.86122   0.00000  Uiso   1.00
C42    C     0.66252   0.13048   0.90329   0.00000  Uiso   1.00
C43    C     0.84320   0.64104   0.13550   0.00000  Uiso   1.00
C44    C     0.82174   0.58256   0.12923   0.00000  Uiso   1.00
C45    C     0.20186   0.40944   0.82646   0.00000  Uiso   1.00
C46    C     0.77181   0.27085   0.25136   0.00000  Uiso   1.00
C47    C     0.17485   0.40062   0.88696   0.00000  Uiso   1.00
C48    C     0.71597   0.07850   0.29512   0.00000  Uiso   1.00
C49    C     0.74810   0.04668   0.24825   0.00000  Uiso   1.00
C50    C     0.38160   0.82442   0.85634   0.00000  Uiso   1.00
C51    C     0.35261   0.85686   0.90507   0.00000  Uiso   1.00
C52    C     0.91553   0.28922   0.69083   0.00000  Uiso   1.00
C53    C     0.91693   0.31468   0.62869   0.00000  Uiso   1.00
C54    C     0.16559   0.63085   0.13827   0.00000  Uiso   1.00
C55    C     0.18854   0.57269   0.13928   0.00000  Uiso   1.00
C56    C     0.71007   0.91497   0.68867   0.00000  Uiso   1.00
C57    C     0.27232   0.23031   0.75080   0.00000  Uiso   1.00
C58    C     0.68449   0.91437   0.62659   0.00000  Uiso   1.00
C59    C     0.36643   0.16393   0.13775   0.00000  Uiso   1.00
C60    C     0.42458   0.18666   0.13680   0.00000  Uiso   1.00
C61    C     0.08094   0.71543   0.70167   0.00000  Uiso   1.00
C62    C     0.07710   0.69432   0.63776   0.00000  Uiso   1.00
C63    C     0.82460   0.37905   0.14371   0.00000  Uiso   1.00
C64    C     0.79775   0.43488   0.15252   0.00000  Uiso   1.00
C65    C     0.36292   0.15880   0.86410   0.00000  Uiso   1.00
C66    C     0.32709   0.11962   0.89997   0.00000  Uiso   1.00
C67    C     0.59230   0.79562   0.17489   0.00000  Uiso   1.00
C68    C     0.72934   0.77261   0.25102   0.00000  Uiso   1.00
C69    C     0.55759   0.74819   0.19812   0.00000  Uiso   1.00
C70    C     0.58393   0.79018   0.81143   0.00000  Uiso   1.00
C71    C     0.54438   0.75928   0.77095   0.00000  Uiso   1.00
C72    C     0.33442   0.12940   0.36183   0.00000  Uiso   1.00
C73    C     0.37053   0.16296   0.40361   0.00000  Uiso   1.00
C74    C     0.78936   0.41705   0.80924   0.00000  Uiso   1.00
C75    C     0.75834   0.45585   0.76799   0.00000  Uiso   1.00
C76    C     0.12918   0.66643   0.36124   0.00000  Uiso   1.00
C77    C     0.16257   0.63040   0.40328   0.00000  Uiso   1.00
C78    C     0.34319   0.14103   0.63551   0.00000  Uiso   1.00
C79    C     0.00001   0.50005   0.47331   0.00000  Uiso   1.00
C80    C     0.32172   0.08255   0.62925   0.00000  Uiso   1.00
C81    C     0.70180   0.90936   0.32656   0.00000  Uiso   1.00
C82    C     0.67480   0.90047   0.38707   0.00000  Uiso   1.00
C83    C     0.21599   0.57850   0.79507   0.00000  Uiso   1.00
C84    C     0.24812   0.54671   0.74818   0.00000  Uiso   1.00
C85    C     0.88160   0.32442   0.35634   0.00000  Uiso   1.00
C86    C     0.85261   0.35686   0.40507   0.00000  Uiso   1.00
C87    C     0.41546   0.78932   0.19062   0.00000  Uiso   1.00
C88    C     0.41666   0.81474   0.12846   0.00000  Uiso   1.00
C89    C     0.66562   0.13081   0.63828   0.00000  Uiso   1.00
C90    C     0.99997   0.50005   0.52668   0.00000  Uiso   1.00
C91    C     0.68859   0.07266   0.63933   0.00000  Uiso   1.00
C92    C     0.21007   0.41497   0.18868   0.00000  Uiso   1.00
C93    C     0.18449   0.41438   0.12660   0.00000  Uiso   1.00
C94    C     0.86643   0.66393   0.63775   0.00000  Uiso   1.00
C95    C     0.92457   0.68666   0.63679   0.00000  Uiso   1.00
C96    C     0.58095   0.21542   0.20165   0.00000  Uiso   1.00
C97    C     0.57713   0.19434   0.13773   0.00000  Uiso   1.00
C98    C     0.32459   0.87905   0.64371   0.00000  Uiso   1.00
C99    C     0.29774   0.93488   0.65252   0.00000  Uiso   1.00
C100   C     0.86289   0.65877   0.36410   0.00000  Uiso   1.00
C101   C     0.50000  -0.00001   0.47333   0.00000  Uiso   1.00
C102   C     0.82707   0.61959   0.39997   0.00000  Uiso   1.00
C103   C     0.09224   0.29552   0.67504   0.00000  Uiso   1.00
C104   C     0.05761   0.24806   0.69835   0.00000  Uiso   1.00
C105   C     0.77053   0.72836   0.75115   0.00000  Uiso   1.00
C106   C     0.50000   0.00002   0.52668   0.00000  Uiso   1.00
C107   C     0.50001   0.00005   0.97331   0.00000  Uiso   1.00
C108   C     0.49997   0.00005   0.02668   0.00000  Uiso   1.00
C109   C    -0.00000   0.50000   0.97333   0.00000  Uiso   1.00
C110   C    -0.00000   0.50002   0.02668   0.00000  Uiso   1.00
C111   C    -0.00000   0.50001   0.08999   0.00000  Uiso   1.00
C112   C    -0.00000   0.49999   0.91001   0.00000  Uiso   1.00
C113   C     0.49998   0.00003   0.09002   0.00000  Uiso   1.00
C114   C     0.50001   0.00002   0.90998   0.00000  Uiso   1.00
C115   C     0.50000   0.00001   0.58999   0.00000  Uiso   1.00
C116   C     0.27105   0.77195   0.25061   0.00000  Uiso   1.00
C117   C     0.50000  -0.00001   0.41001   0.00000  Uiso   1.00
C118   C     0.99998   0.50003   0.59002   0.00000  Uiso   1.00
C119   C     0.00001   0.50002   0.40998   0.00000  Uiso   1.00
C120   C     0.10515   0.60511   0.24986   0.00000  Uiso   1.00
C121   C     0.89499   0.39494   0.74997   0.00000  Uiso   1.00
C122   C     0.60500   0.89500   0.25012   0.00000  Uiso   1.00
C123   C     0.39495   0.10528   0.74997   0.00000  Uiso   1.00
C124   C     0.89487   0.39499   0.24979   0.00000  Uiso   1.00
C125   C     0.10495   0.60520   0.74987   0.00000  Uiso   1.00
C126   C     0.39482   0.10511   0.24996   0.00000  Uiso   1.00
C127   C     0.72830   0.22946   0.75041   0.00000  Uiso   1.00
C128   C     0.60514   0.89508   0.74982   0.00000  Uiso   1.00
C129   C     0.89482   0.60511   0.74996   0.00000  Uiso   1.00
C130   C     0.10514   0.39508   0.24982   0.00000  Uiso   1.00
C131   C     0.39487   0.89499   0.74979   0.00000  Uiso   1.00
C132   C     0.60495   0.10520   0.24987   0.00000  Uiso   1.00
C133   C     0.10500   0.39500   0.75012   0.00000  Uiso   1.00
C134   C     0.89495   0.60528   0.24997   0.00000  Uiso   1.00
C135   C     0.60515   0.10512   0.74986   0.00000  Uiso   1.00
C136   C     0.39500   0.89493   0.24997   0.00000  Uiso   1.00
C137   C     0.17795   0.26195   0.27956   0.00000  Uiso   1.00
C138   C     0.77229   0.73029   0.25081   0.00000  Uiso   1.00
C139   C     0.78389   0.70052   0.80363   0.00000  Uiso   1.00
C140   C     0.26149   0.82255   0.27799   0.00000  Uiso   1.00
C141   C     0.70014   0.21678   0.80281   0.00000  Uiso   1.00
C142   C     0.78911   0.70694   0.19699   0.00000  Uiso   1.00
C143   C     0.23479   0.31945   0.78653   0.00000  Uiso   1.00
C144   C     0.74059   0.17572   0.27246   0.00000  Uiso   1.00
C145   C     0.30499   0.77888   0.80142   0.00000  Uiso   1.00
C146   C     0.82136   0.26187   0.72311   0.00000  Uiso   1.00
C147   C     0.21594   0.70147   0.19775   0.00000  Uiso   1.00
C148   C     0.73792   0.82133   0.72296   0.00000  Uiso   1.00
C149   C     0.22937   0.27263   0.75101   0.00000  Uiso   1.00
C150   C     0.29750   0.21534   0.19812   0.00000  Uiso   1.00
C151   C     0.17651   0.74075   0.73062   0.00000  Uiso   1.00
C152   C     0.77951   0.30320   0.20058   0.00000  Uiso   1.00
C153   C     0.29607   0.21298   0.80424   0.00000  Uiso   1.00
C154   C     0.68282   0.76605   0.21540   0.00000  Uiso   1.00
C155   C     0.67795   0.76195   0.77956   0.00000  Uiso   1.00
C156   C     0.28389   0.20052   0.30363   0.00000  Uiso   1.00
C157   C     0.76144   0.32260   0.77790   0.00000  Uiso   1.00
C158   C     0.20018   0.71674   0.30283   0.00000  Uiso   1.00
C159   C     0.28912   0.20695   0.69698   0.00000  Uiso   1.00
C160   C     0.72889   0.22853   0.25190   0.00000  Uiso   1.00
C161   C     0.73474   0.81940   0.28659   0.00000  Uiso   1.00
C162   C     0.24059   0.67573   0.77245   0.00000  Uiso   1.00
C163   C     0.80499   0.27888   0.30141   0.00000  Uiso   1.00
C164   C     0.32134   0.76189   0.22304   0.00000  Uiso   1.00
C165   C     0.71595   0.20146   0.69775   0.00000  Uiso   1.00
C166   C     0.23792   0.32133   0.22296   0.00000  Uiso   1.00
C167   C     0.79750   0.71534   0.69812   0.00000  Uiso   1.00
C168   C     0.67652   0.24074   0.23061   0.00000  Uiso   1.00
C169   C     0.27950   0.80321   0.70058   0.00000  Uiso   1.00
C170   C     0.79603   0.71295   0.30425   0.00000  Uiso   1.00
C171   C     0.27180   0.77086   0.75136   0.00000  Uiso   1.00
C172   C     0.18282   0.26603   0.71545   0.00000  Uiso   1.00
C173   C     0.13720   0.30218   0.27950   0.00000  Uiso   1.00
C174   C     0.82414   0.65978   0.80393   0.00000  Uiso   1.00
C175   C     0.30177   0.86329   0.27832   0.00000  Uiso   1.00
C176   C     0.65954   0.17639   0.80335   0.00000  Uiso   1.00
C177   C     0.82876   0.66569   0.19567   0.00000  Uiso   1.00
C178   C     0.19423   0.35985   0.78672   0.00000  Uiso   1.00
C179   C     0.70052   0.13477   0.27203   0.00000  Uiso   1.00
C180   C     0.34580   0.81909   0.80147   0.00000  Uiso   1.00
C181   C     0.86230   0.30186   0.72236   0.00000  Uiso   1.00
C182   C     0.77103   0.27197   0.75059   0.00000  Uiso   1.00
C183   C     0.17591   0.66050   0.19667   0.00000  Uiso   1.00
C184   C     0.69792   0.86224   0.72180   0.00000  Uiso   1.00
C185   C     0.33826   0.17515   0.19676   0.00000  Uiso   1.00
C186   C     0.13562   0.70069   0.72917   0.00000  Uiso   1.00
C187   C     0.81960   0.34405   0.19929   0.00000  Uiso   1.00
C188   C     0.33666   0.17265   0.80471   0.00000  Uiso   1.00
C189   C     0.64143   0.80551   0.21476   0.00000  Uiso   1.00
C190   C     0.63720   0.80218   0.77950   0.00000  Uiso   1.00
C191   C     0.32414   0.15978   0.30393   0.00000  Uiso   1.00
C192   C     0.80172   0.36334   0.77823   0.00000  Uiso   1.00
H1     H     0.17022   0.22294   0.30109   0.00000  Uiso   1.00
H2     H     0.23770   0.71179   0.15720   0.00000  Uiso   1.00
H3     H     0.80115   0.45910   0.11079   0.00000  Uiso   1.00
H4     H     0.86809   0.38428   0.13087   0.00000  Uiso   1.00
H5     H     0.80437   0.35866   0.10525   0.00000  Uiso   1.00
H6     H     0.28693   0.13884   0.90981   0.00000  Uiso   1.00
H7     H     0.32027   0.08100   0.87491   0.00000  Uiso   1.00
H8     H     0.34758   0.10965   0.94280   0.00000  Uiso   1.00
H9     H     0.40424   0.14077   0.85858   0.00000  Uiso   1.00
H10    H     0.36913   0.19699   0.89024   0.00000  Uiso   1.00
H11    H     0.58197   0.70993   0.20104   0.00000  Uiso   1.00
H12    H     0.54108   0.75821   0.24291   0.00000  Uiso   1.00
H13    H     0.77694   0.82847   0.70144   0.00000  Uiso   1.00
H14    H     0.52306   0.74074   0.16708   0.00000  Uiso   1.00
H15    H     0.56579   0.83230   0.17082   0.00000  Uiso   1.00
H16    H     0.60672   0.78583   0.12916   0.00000  Uiso   1.00
H17    H     0.50561   0.75136   0.79522   0.00000  Uiso   1.00
H18    H     0.53502   0.78382   0.73054   0.00000  Uiso   1.00
H19    H     0.56232   0.71941   0.75732   0.00000  Uiso   1.00
H20    H     0.59203   0.76510   0.85187   0.00000  Uiso   1.00
H21    H     0.56410   0.82837   0.82735   0.00000  Uiso   1.00
H22    H     0.37780   0.13960   0.44536   0.00000  Uiso   1.00
H23    H     0.41059   0.17169   0.38234   0.00000  Uiso   1.00
H24    H     0.28651   0.23670   0.15748   0.00000  Uiso   1.00
H25    H     0.35028   0.20229   0.41510   0.00000  Uiso   1.00
H26    H     0.29476   0.12088   0.38422   0.00000  Uiso   1.00
H27    H     0.35358   0.08881   0.35422   0.00000  Uiso   1.00
H28    H     0.75011   0.49497   0.79158   0.00000  Uiso   1.00
H29    H     0.78288   0.46484   0.72754   0.00000  Uiso   1.00
H30    H     0.71870   0.43738   0.75447   0.00000  Uiso   1.00
H31    H     0.76432   0.40928   0.84972   0.00000  Uiso   1.00
H32    H     0.82730   0.43748   0.82496   0.00000  Uiso   1.00
H33    H     0.13919   0.62330   0.44498   0.00000  Uiso   1.00
H34    H     0.17124   0.59018   0.38222   0.00000  Uiso   1.00
H35    H     0.16767   0.78168   0.71455   0.00000  Uiso   1.00
H36    H     0.20184   0.65073   0.41478   0.00000  Uiso   1.00
H37    H     0.12077   0.70629   0.38340   0.00000  Uiso   1.00
H38    H     0.08862   0.64724   0.35364   0.00000  Uiso   1.00
H39    H     0.32993   0.06746   0.58345   0.00000  Uiso   1.00
H40    H     0.34228   0.05463   0.66111   0.00000  Uiso   1.00
H41    H     0.27690   0.08146   0.63717   0.00000  Uiso   1.00
H42    H     0.32502   0.16561   0.59875   0.00000  Uiso   1.00
H43    H     0.38795   0.14222   0.62784   0.00000  Uiso   1.00
H44    H     0.68134   0.93714   0.41547   0.00000  Uiso   1.00
H45    H     0.63013   0.89394   0.38181   0.00000  Uiso   1.00
H46    H     0.75399   0.29654   0.16173   0.00000  Uiso   1.00
H47    H     0.69300   0.86432   0.40971   0.00000  Uiso   1.00
H48    H     0.74608   0.91753   0.33365   0.00000  Uiso   1.00
H49    H     0.68470   0.94671   0.30538   0.00000  Uiso   1.00
H50    H     0.26057   0.50636   0.76649   0.00000  Uiso   1.00
H51    H     0.22247   0.53984   0.70799   0.00000  Uiso   1.00
H52    H     0.28561   0.56950   0.73526   0.00000  Uiso   1.00
H53    H     0.24142   0.58283   0.83591   0.00000  Uiso   1.00
H54    H     0.17960   0.55424   0.80837   0.00000  Uiso   1.00
H55    H     0.87979   0.36049   0.44454   0.00000  Uiso   1.00
H56    H     0.84247   0.39868   0.38895   0.00000  Uiso   1.00
H57    H     0.28288   0.23093   0.84600   0.00000  Uiso   1.00
H58    H     0.81440   0.33571   0.41877   0.00000  Uiso   1.00
H59    H     0.89191   0.28297   0.37360   0.00000  Uiso   1.00
H60    H     0.92125   0.34445   0.34603   0.00000  Uiso   1.00
H61    H     0.38210   0.79890   0.10129   0.00000  Uiso   1.00
H62    H     0.41390   0.86004   0.13096   0.00000  Uiso   1.00
H63    H     0.45561   0.80385   0.10600   0.00000  Uiso   1.00
H64    H     0.45074   0.80432   0.21711   0.00000  Uiso   1.00
H65    H     0.42093   0.74430   0.18601   0.00000  Uiso   1.00
H66    H     0.73291   0.07343   0.65019   0.00000  Uiso   1.00
H67    H     0.66691   0.04689   0.67247   0.00000  Uiso   1.00
H68    H     0.67844   0.72962   0.18822   0.00000  Uiso   1.00
H69    H     0.68322   0.05374   0.59472   0.00000  Uiso   1.00
H70    H     0.62134   0.13000   0.62765   0.00000  Uiso   1.00
H71    H     0.68541   0.15296   0.60072   0.00000  Uiso   1.00
H72    H     0.19893   0.37813   0.10118   0.00000  Uiso   1.00
H73    H     0.13921   0.41331   0.12947   0.00000  Uiso   1.00
H74    H     0.19670   0.45189   0.10202   0.00000  Uiso   1.00
H75    H     0.19514   0.45095   0.21416   0.00000  Uiso   1.00
H76    H     0.25496   0.42064   0.18368   0.00000  Uiso   1.00
H77    H     0.92422   0.73131   0.64636   0.00000  Uiso   1.00
H78    H     0.95084   0.66565   0.67000   0.00000  Uiso   1.00
H79    H     0.67022   0.72294   0.80109   0.00000  Uiso   1.00
H80    H     0.94256   0.68014   0.59194   0.00000  Uiso   1.00
H81    H     0.86670   0.61944   0.62779   0.00000  Uiso   1.00
H82    H     0.84357   0.68336   0.60045   0.00000  Uiso   1.00
H83    H     0.61264   0.20895   0.11125   0.00000  Uiso   1.00
H84    H     0.57608   0.14888   0.13692   0.00000  Uiso   1.00
H85    H     0.53926   0.21004   0.11658   0.00000  Uiso   1.00
H86    H     0.54662   0.19900   0.22860   0.00000  Uiso   1.00
H87    H     0.57552   0.26065   0.20075   0.00000  Uiso   1.00
H88    H     0.25373   0.92972   0.66344   0.00000  Uiso   1.00
H89    H     0.31801   0.95791   0.68897   0.00000  Uiso   1.00
H90    H     0.26290   0.21066   0.34471   0.00000  Uiso   1.00
H91    H     0.30115   0.95910   0.61079   0.00000  Uiso   1.00
H92    H     0.36808   0.88429   0.63088   0.00000  Uiso   1.00
H93    H     0.30437   0.85866   0.60525   0.00000  Uiso   1.00
H94    H     0.78691   0.63880   0.40981   0.00000  Uiso   1.00
H95    H     0.82025   0.58097   0.37491   0.00000  Uiso   1.00
H96    H     0.84756   0.60962   0.44280   0.00000  Uiso   1.00
H97    H     0.90422   0.64075   0.35859   0.00000  Uiso   1.00
H98    H     0.86910   0.69697   0.39025   0.00000  Uiso   1.00
H99    H     0.08203   0.20983   0.70123   0.00000  Uiso   1.00
H100   H     0.04117   0.25808   0.74317   0.00000  Uiso   1.00
H101   H     0.72222   0.33061   0.79860   0.00000  Uiso   1.00
H102   H     0.02304   0.24057   0.66737   0.00000  Uiso   1.00
H103   H     0.06568   0.33218   0.67101   0.00000  Uiso   1.00
H104   H     0.10660   0.28573   0.62929   0.00000  Uiso   1.00
H105   H     0.76290   0.71066   0.84471   0.00000  Uiso   1.00
H106   H     0.21003   0.73830   0.34369   0.00000  Uiso   1.00
H107   H     0.27101   0.22103   0.65563   0.00000  Uiso   1.00
H108   H     0.77093   0.82472   0.31390   0.00000  Uiso   1.00
H109   H     0.28140   0.66612   0.78822   0.00000  Uiso   1.00
H110   H     0.79890   0.25387   0.34080   0.00000  Uiso   1.00
H111   H     0.32870   0.72257   0.20209   0.00000  Uiso   1.00
H112   H     0.73773   0.21176   0.65721   0.00000  Uiso   1.00
H113   H     0.27694   0.32848   0.20143   0.00000  Uiso   1.00
H114   H     0.78650   0.73669   0.65748   0.00000  Uiso   1.00
H115   H     0.66768   0.28168   0.21452   0.00000  Uiso   1.00
H116   H     0.22228   0.83054   0.29875   0.00000  Uiso   1.00
H117   H     0.25398   0.79655   0.66173   0.00000  Uiso   1.00
H118   H     0.78284   0.73088   0.34601   0.00000  Uiso   1.00
H119   H     0.17843   0.22958   0.68831   0.00000  Uiso   1.00
H120   H     0.00561   0.25136   0.29523   0.00000  Uiso   1.00
H121   H     0.03501   0.28382   0.23054   0.00000  Uiso   1.00
H122   H     0.06232   0.21941   0.25732   0.00000  Uiso   1.00
H123   H     0.09203   0.26510   0.35187   0.00000  Uiso   1.00
H124   H     0.06410   0.32837   0.32735   0.00000  Uiso   1.00
H125   H     0.87780   0.63960   0.94536   0.00000  Uiso   1.00
H126   H     0.91059   0.67169   0.88234   0.00000  Uiso   1.00
H127   H     0.70997   0.23837   0.84366   0.00000  Uiso   1.00
H128   H     0.85028   0.70229   0.91510   0.00000  Uiso   1.00
H129   H     0.79477   0.62088   0.88422   0.00000  Uiso   1.00
H130   H     0.85359   0.58881   0.85422   0.00000  Uiso   1.00
H131   H     0.25023   0.99494   0.29185   0.00000  Uiso   1.00
H132   H     0.28299   0.96486   0.22777   0.00000  Uiso   1.00
H133   H     0.21879   0.93741   0.25466   0.00000  Uiso   1.00
H134   H     0.26439   0.90918   0.34987   0.00000  Uiso   1.00
H135   H     0.32739   0.93736   0.32516   0.00000  Uiso   1.00
H136   H     0.63913   0.12339   0.94498   0.00000  Uiso   1.00
H137   H     0.67120   0.09024   0.88225   0.00000  Uiso   1.00
H138   H     0.77101   0.72103   0.15563   0.00000  Uiso   1.00
H139   H     0.70178   0.15081   0.91479   0.00000  Uiso   1.00
H140   H     0.62071   0.20634   0.88335   0.00000  Uiso   1.00
H141   H     0.58858   0.14727   0.85362   0.00000  Uiso   1.00
H142   H     0.82995   0.56747   0.08343   0.00000  Uiso   1.00
H143   H     0.84230   0.55464   0.16109   0.00000  Uiso   1.00
H144   H     0.77691   0.58145   0.13715   0.00000  Uiso   1.00
H145   H     0.82503   0.66563   0.09875   0.00000  Uiso   1.00
H146   H     0.88796   0.64224   0.12784   0.00000  Uiso   1.00
H147   H     0.18142   0.43731   0.91532   0.00000  Uiso   1.00
H148   H     0.13018   0.39411   0.88172   0.00000  Uiso   1.00
H149   H     0.27100   0.32479   0.81381   0.00000  Uiso   1.00
H150   H     0.19303   0.36448   0.90965   0.00000  Uiso   1.00
H151   H     0.24614   0.41759   0.83354   0.00000  Uiso   1.00
H152   H     0.18478   0.44677   0.80522   0.00000  Uiso   1.00
H153   H     0.76052   0.00633   0.26658   0.00000  Uiso   1.00
H154   H     0.72247   0.03982   0.20805   0.00000  Uiso   1.00
H155   H     0.78561   0.06946   0.23533   0.00000  Uiso   1.00
H156   H     0.74139   0.08284   0.33595   0.00000  Uiso   1.00
H157   H     0.67957   0.05426   0.30842   0.00000  Uiso   1.00
H158   H     0.37979   0.86048   0.94455   0.00000  Uiso   1.00
H159   H     0.34247   0.89867   0.88896   0.00000  Uiso   1.00
H160   H     0.78139   0.16612   0.28824   0.00000  Uiso   1.00
H161   H     0.31440   0.83571   0.91878   0.00000  Uiso   1.00
H162   H     0.39191   0.78297   0.87359   0.00000  Uiso   1.00
H163   H     0.42125   0.84445   0.84603   0.00000  Uiso   1.00
H164   H     0.88239   0.29894   0.60142   0.00000  Uiso   1.00
H165   H     0.91427   0.35999   0.63121   0.00000  Uiso   1.00
H166   H     0.95590   0.30371   0.60632   0.00000  Uiso   1.00
H167   H     0.95077   0.30415   0.71744   0.00000  Uiso   1.00
H168   H     0.92094   0.24420   0.68620   0.00000  Uiso   1.00
H169   H     0.23287   0.57345   0.15014   0.00000  Uiso   1.00
H170   H     0.16687   0.54691   0.17242   0.00000  Uiso   1.00
H171   H     0.29889   0.75388   0.84080   0.00000  Uiso   1.00
H172   H     0.18317   0.55379   0.09467   0.00000  Uiso   1.00
H173   H     0.12130   0.63005   0.12764   0.00000  Uiso   1.00
H174   H     0.18537   0.65301   0.10071   0.00000  Uiso   1.00
H175   H     0.69893   0.87811   0.60118   0.00000  Uiso   1.00
H176   H     0.63921   0.91330   0.62946   0.00000  Uiso   1.00
H177   H     0.69670   0.95187   0.60200   0.00000  Uiso   1.00
H178   H     0.69514   0.95094   0.71415   0.00000  Uiso   1.00
H179   H     0.75496   0.92063   0.68368   0.00000  Uiso   1.00
H180   H     0.42422   0.23132   0.14636   0.00000  Uiso   1.00
H181   H     0.45085   0.16566   0.17000   0.00000  Uiso   1.00
H182   H     0.82873   0.22252   0.70223   0.00000  Uiso   1.00
H183   H     0.44256   0.18015   0.09194   0.00000  Uiso   1.00
H184   H     0.36671   0.11944   0.12779   0.00000  Uiso   1.00
H185   H     0.34358   0.18336   0.10045   0.00000  Uiso   1.00
H186   H     0.11262   0.70889   0.61127   0.00000  Uiso   1.00
H187   H     0.07600   0.64887   0.63697   0.00000  Uiso   1.00
H188   H     0.03924   0.71007   0.61660   0.00000  Uiso   1.00
H189   H     0.04662   0.69902   0.72864   0.00000  Uiso   1.00
H190   H     0.07552   0.76066   0.70076   0.00000  Uiso   1.00
H191   H     0.75374   0.42972   0.16344   0.00000  Uiso   1.00
H192   H     0.81803   0.45792   0.18897   0.00000  Uiso   1.00
O1     O     0.00000   0.50000   0.25000   0.00000  Uiso   1.00
O2     O     0.00000   0.45454   0.88202   0.00000  Uiso   1.00
O3     O     0.54546   0.00000   0.11798   0.00000  Uiso   1.00
O4     O     0.45454   0.00000   0.88202   0.00000  Uiso   1.00
O5     O     0.50000   0.95454   0.61798   0.00000  Uiso   1.00
O6     O     0.50000   0.04546   0.38202   0.00000  Uiso   1.00
O7     O     0.95454   0.50000   0.61798   0.00000  Uiso   1.00
O8     O     0.04546   0.50000   0.38202   0.00000  Uiso   1.00
O9     O     0.50000   0.04546   0.61798   0.00000  Uiso   1.00
O10    O     0.50000   0.95454   0.38202   0.00000  Uiso   1.00
O11    O     0.04546   0.50000   0.61798   0.00000  Uiso   1.00
O12    O     0.00000   0.50000   0.75000   0.00000  Uiso   1.00
O13    O     0.95454   0.50000   0.38202   0.00000  Uiso   1.00
O14    O     0.06399   0.60947   0.21539   0.00000  Uiso   1.00
O15    O     0.93601   0.39053   0.78461   0.00000  Uiso   1.00
O16    O     0.60947   0.93601   0.21539   0.00000  Uiso   1.00
O17    O     0.39053   0.06399   0.78461   0.00000  Uiso   1.00
O18    O     0.93601   0.39053   0.21539   0.00000  Uiso   1.00
O19    O     0.06399   0.60947   0.78461   0.00000  Uiso   1.00
O20    O     0.39053   0.06399   0.21539   0.00000  Uiso   1.00
O21    O     0.60947   0.93601   0.78461   0.00000  Uiso   1.00
O22    O     0.93601   0.60947   0.78461   0.00000  Uiso   1.00
O23    O     0.50000   0.00000   0.25000   0.00000  Uiso   1.00
O24    O     0.06399   0.39053   0.21539   0.00000  Uiso   1.00
O25    O     0.39053   0.93601   0.78461   0.00000  Uiso   1.00
O26    O     0.60947   0.06399   0.21539   0.00000  Uiso   1.00
O27    O     0.06399   0.39053   0.78461   0.00000  Uiso   1.00
O28    O     0.93601   0.60947   0.21539   0.00000  Uiso   1.00
O29    O     0.60947   0.06399   0.78461   0.00000  Uiso   1.00
O30    O     0.39053   0.93601   0.21539   0.00000  Uiso   1.00
O31    O     0.56399   0.10947   0.71539   0.00000  Uiso   1.00
O32    O     0.43601   0.89053   0.28461   0.00000  Uiso   1.00
O33    O     0.10947   0.43601   0.71539   0.00000  Uiso   1.00
O34    O     0.50000   0.00000   0.75000   0.00000  Uiso   1.00
O35    O     0.89053   0.56399   0.28461   0.00000  Uiso   1.00
O36    O     0.43601   0.89053   0.71539   0.00000  Uiso   1.00
O37    O     0.56399   0.10947   0.28461   0.00000  Uiso   1.00
O38    O     0.89053   0.56399   0.71539   0.00000  Uiso   1.00
O39    O     0.10947   0.43601   0.28461   0.00000  Uiso   1.00
O40    O     0.43601   0.10947   0.28461   0.00000  Uiso   1.00
O41    O     0.56399   0.89053   0.71539   0.00000  Uiso   1.00
O42    O     0.89053   0.43601   0.28461   0.00000  Uiso   1.00
O43    O     0.10947   0.56399   0.71539   0.00000  Uiso   1.00
O44    O     0.56399   0.89053   0.28461   0.00000  Uiso   1.00
O45    O     0.00000   0.45454   0.11798   0.00000  Uiso   1.00
O46    O     0.43601   0.10947   0.71539   0.00000  Uiso   1.00
O47    O     0.10947   0.56399   0.28461   0.00000  Uiso   1.00
O48    O     0.89053   0.43601   0.71539   0.00000  Uiso   1.00
O49    O     0.00000   0.54546   0.88202   0.00000  Uiso   1.00
O50    O     0.45454   0.00000   0.11798   0.00000  Uiso   1.00
O51    O     0.54546   0.00000   0.88202   0.00000  Uiso   1.00
O52    O     0.00000   0.54546   0.11798   0.00000  Uiso   1.00
Zn1    Zn    0.06497   0.50000   0.29947   0.00000  Uiso   1.00
Zn2    Zn    0.43503  -0.00000   0.20053   0.00000  Uiso   1.00
Zn3    Zn    0.00000   0.43503   0.79947   0.00000  Uiso   1.00
Zn4    Zn    0.00000   0.56497   0.20053   0.00000  Uiso   1.00
Zn5    Zn    0.43503  -0.00000   0.79947   0.00000  Uiso   1.00
Zn6    Zn    0.56497   0.00000   0.20053   0.00000  Uiso   1.00
Zn7    Zn    0.00000   0.56497   0.79947   0.00000  Uiso   1.00
Zn8    Zn    0.00000   0.43503   0.20053   0.00000  Uiso   1.00
Zn9    Zn    0.93503   0.50000   0.70053   0.00000  Uiso   1.00
Zn10   Zn    0.50000   0.93503   0.29947   0.00000  Uiso   1.00
Zn11   Zn    0.50000   0.06497   0.70053   0.00000  Uiso   1.00
Zn12   Zn    0.93503   0.50000   0.29947   0.00000  Uiso   1.00
Zn13   Zn    0.06497   0.50000   0.70053   0.00000  Uiso   1.00
Zn14   Zn    0.50000   0.06497   0.29947   0.00000  Uiso   1.00
Zn15   Zn    0.50000   0.93503   0.70053   0.00000  Uiso   1.00
Zn16   Zn    0.56497   0.00000   0.79947   0.00000  Uiso   1.00
loop_
_geom_bond_atom_site_label_1
_geom_bond_atom_site_label_2
_geom_bond_distance
_geom_bond_site_symmetry_2
_ccdc_geom_bond_type
C1     C137    1.400   .     A
C1     C166    1.399   .     A
C1     C24     1.473   .     S
C2     C116    1.472   .     S
C2     C147    1.398   .     A
C2     C158    1.398   .     A
C3     C158    1.399   .     A
C3     C27     1.419   .     A
C3     C76     1.516   .     S
C4     C32     1.422   .     A
C4     C159    1.399   .     A
C4     C78     1.520   .     S
C5     C161    1.399   .     A
C5     C33     1.415   .     A
C5     C81     1.515   .     S
C6     C30     1.417   .     A
C6     C83     1.515   .     S
C6     C162    1.399   .     A
C7     C163    1.399   .     A
C7     C85     1.516   .     S
C7     C31     1.417   .     A
C8     C19     1.415   .     A
C8     C164    1.398   .     A
C8     C87     1.514   .     S
C9     C89     1.518   .     S
C9     C20     1.420   .     A
C9     C165    1.399   .     A
C10    C166    1.398   .     A
C10    C92     1.515   .     S
C10    C17     1.415   .     A
C11    C167    1.399   .     A
C11    C18     1.420   .     A
C11    C94     1.518   .     S
C12    C23     1.417   .     A
C12    C96     1.516   .     S
C12    C168    1.399   .     A
C13    C105    1.473   .     S
C13    C155    1.400   .     A
C13    C148    1.399   .     A
C14    C98     1.516   .     S
C14    C169    1.398   .     A
C14    C25     1.417   .     A
C15    C170    1.398   .     A
C15    C100    1.517   .     S
C15    C21     1.420   .     A
C16    C22     1.415   .     A
C16    C103    1.517   .     S
C16    C172    1.398   .     A
C17    C173    1.416   .     A
C17    C130    1.460   .     S
C18    C174    1.419   .     A
C18    C129    1.467   .     S
C19    C136    1.460   .     S
C19    C175    1.415   .     A
C20    C176    1.419   .     A
C20    C135    1.465   .     S
C21    C177    1.422   .     A
C21    C134    1.468   .     S
C22    C133    1.458   .     S
C22    C178    1.415   .     A
C23    C179    1.417   .     A
C23    C132    1.463   .     S
C24    C156    1.398   .     A
C24    C150    1.398   .     A
C25    C180    1.417   .     A
C25    C131    1.463   .     S
C26    C121    1.460   .     S
C26    C192    1.415   .     A
C26    C181    1.415   .     A
C27    C120    1.465   .     S
C27    C183    1.420   .     A
C28    C184    1.415   .     A
C28    C190    1.416   .     A
C28    C128    1.460   .     S
C29    C191    1.419   .     A
C29    C185    1.420   .     A
C29    C126    1.467   .     S
C30    C125    1.463   .     S
C30    C186    1.417   .     A
C31    C187    1.417   .     A
C31    C124    1.463   .     S
C32    C123    1.468   .     S
C32    C188    1.420   .     A
C33    C189    1.415   .     A
C33    C122    1.458   .     S
C34    H124    1.110   .     S
C34    C36     1.526   .     S
C34    C173    1.515   .     S
C34    H123    1.112   .     S
C35    C171    1.472   .     S
C35    C151    1.399   .     A
C35    C162    1.398   .     A
C36    H120    1.111   .     S
C36    H121    1.110   .     S
C36    H122    1.111   .     S
C37    C38     1.526   .     S
C37    H130    1.110   .     S
C37    C174    1.516   .     S
C37    H129    1.112   .     S
C38    H126    1.110   .     S
C38    H125    1.111   .     S
C38    H128    1.111   .     S
C39    C175    1.515   .     S
C39    C40     1.526   .     S
C39    H134    1.112   .     S
C39    H135    1.110   .     S
C40    H132    1.110   .     S
C40    H133    1.111   .     S
C40    H131    1.111   .     S
C41    H141    1.110   .     S
C41    C42     1.526   .     S
C41    H140    1.112   .     S
C41    C176    1.516   .     S
C42    H139    1.111   .     S
C42    H136    1.110   .     S
C42    H137    1.110   .     S
C43    C44     1.527   .     S
C43    H146    1.108   .     S
C43    C177    1.520   .     S
C43    H145    1.112   .     S
C44    H143    1.108   .     S
C44    H142    1.110   .     S
C44    H144    1.111   .     S
C45    C47     1.526   .     S
C45    C178    1.515   .     S
C45    H151    1.112   .     S
C45    H152    1.110   .     S
C46    C160    1.472   .     S
C46    C163    1.399   .     A
C46    C152    1.399   .     A
C47    H150    1.111   .     S
C47    H148    1.110   .     S
C47    H147    1.110   .     S
C48    H156    1.112   .     S
C48    H157    1.110   .     S
C48    C49     1.526   .     S
C48    C179    1.515   .     S
C49    H154    1.111   .     S
C49    H153    1.110   .     S
C49    H155    1.111   .     S
C50    H163    1.110   .     S
C50    C51     1.526   .     S
C50    H162    1.112   .     S
C50    C180    1.516   .     S
C51    H158    1.110   .     S
C51    H161    1.111   .     S
C51    H159    1.111   .     S
C52    H168    1.112   .     S
C52    C53     1.527   .     S
C52    C181    1.514   .     S
C52    H167    1.109   .     S
C53    H166    1.110   .     S
C53    H165    1.109   .     S
C53    H164    1.111   .     S
C54    C183    1.518   .     S
C54    C55     1.527   .     S
C54    H173    1.109   .     S
C54    H174    1.112   .     S
C55    H172    1.110   .     S
C55    H170    1.109   .     S
C55    H169    1.111   .     S
C56    H179    1.112   .     S
C56    H178    1.110   .     S
C56    C184    1.515   .     S
C56    C58     1.527   .     S
C57    C159    1.398   .     A
C57    C153    1.397   .     A
C57    C149    1.473   .     S
C58    H176    1.109   .     S
C58    H177    1.109   .     S
C58    H175    1.111   .     S
C59    H185    1.112   .     S
C59    C60     1.526   .     S
C59    C185    1.518   .     S
C59    H184    1.109   .     S
C60    H181    1.109   .     S
C60    H183    1.110   .     S
C60    H180    1.111   .     S
C61    H189    1.110   .     S
C61    C62     1.527   .     S
C61    H190    1.112   .     S
C61    C186    1.516   .     S
C62    H186    1.111   .     S
C62    H188    1.109   .     S
C62    H187    1.110   .     S
C63    H5      1.112   .     S
C63    C187    1.516   .     S
C63    H4      1.109   .     S
C63    C64     1.526   .     S
C64    H191    1.111   .     S
C64    H3      1.110   .     S
C64    H192    1.109   .     S
C65    H10     1.112   .     S
C65    C188    1.517   .     S
C65    H9      1.109   .     S
C65    C66     1.526   .     S
C66    H8      1.111   .     S
C66    H6      1.111   .     S
C66    H7      1.110   .     S
C67    H16     1.112   .     S
C67    C69     1.527   .     S
C67    H15     1.109   .     S
C67    C189    1.517   .     S
C68    C138    1.474   .     S
C68    C161    1.400   .     A
C68    C154    1.399   .     A
C69    H14     1.109   .     S
C69    H12     1.111   .     S
C69    H11     1.110   .     S
C70    C190    1.515   .     S
C70    H20     1.112   .     S
C70    C71     1.526   .     S
C70    H21     1.110   .     S
C71    H19     1.111   .     S
C71    H17     1.111   .     S
C71    H18     1.110   .     S
C72    C191    1.516   .     S
C72    C73     1.526   .     S
C72    H26     1.112   .     S
C72    H27     1.110   .     S
C73    H22     1.111   .     S
C73    H23     1.110   .     S
C73    H25     1.111   .     S
C74    H31     1.112   .     S
C74    H32     1.110   .     S
C74    C75     1.526   .     S
C74    C192    1.515   .     S
C75    H30     1.111   .     S
C75    H28     1.111   .     S
C75    H29     1.110   .     S
C76    H38     1.110   .     S
C76    H37     1.112   .     S
C76    C77     1.526   .     S
C77    H34     1.110   .     S
C77    H36     1.111   .     S
C77    H33     1.110   .     S
C78    C80     1.527   .     S
C78    H42     1.112   .     S
C78    H43     1.108   .     S
C79    C119    1.421   .     S
C79    C90     1.198   1_455 S
C80    H40     1.108   .     S
C80    H41     1.111   .     S
C80    H39     1.110   .     S
C81    H48     1.112   .     S
C81    H49     1.110   .     S
C81    C82     1.526   .     S
C82    H47     1.111   .     S
C82    H44     1.110   .     S
C82    H45     1.110   .     S
C83    C84     1.526   .     S
C83    H53     1.112   .     S
C83    H54     1.110   .     S
C84    H52     1.111   .     S
C84    H51     1.111   .     S
C84    H50     1.109   .     S
C85    C86     1.526   .     S
C85    H59     1.112   .     S
C85    H60     1.110   .     S
C86    H56     1.111   .     S
C86    H55     1.111   .     S
C86    H58     1.111   .     S
C87    H64     1.109   .     S
C87    H65     1.112   .     S
C87    C88     1.527   .     S
C88    H61     1.111   .     S
C88    H63     1.110   .     S
C88    H62     1.109   .     S
C89    H71     1.112   .     S
C89    C91     1.527   .     S
C89    H70     1.109   .     S
C90    C118    1.421   .     S
C90    C79     1.198   1_655 S
C91    H66     1.111   .     S
C91    H69     1.110   .     S
C91    H67     1.109   .     S
C92    H76     1.112   .     S
C92    C93     1.527   .     S
C92    H75     1.110   .     S
C93    H74     1.109   .     S
C93    H73     1.109   .     S
C93    H72     1.111   .     S
C94    H81     1.109   .     S
C94    H82     1.112   .     S
C94    C95     1.526   .     S
C95    H80     1.110   .     S
C95    H78     1.109   .     S
C95    H77     1.111   .     S
C96    H87     1.112   .     S
C96    H86     1.110   .     S
C96    C97     1.527   .     S
C97    H83     1.111   .     S
C97    H85     1.109   .     S
C97    H84     1.110   .     S
C98    C99     1.526   .     S
C98    H92     1.109   .     S
C98    H93     1.112   .     S
C99    H89     1.109   .     S
C99    H88     1.111   .     S
C99    H91     1.110   .     S
C100   H98     1.112   .     S
C100   H97     1.109   .     S
C100   C102    1.526   .     S
C101   C117    1.421   .     S
C101   C106    1.197   .     S
C102   H96     1.111   .     S
C102   H94     1.111   .     S
C102   H95     1.110   .     S
C103   H104    1.112   .     S
C103   C104    1.527   .     S
C103   H103    1.109   .     S
C104   H100    1.111   .     S
C104   H102    1.109   .     S
C104   H99     1.110   .     S
C105   C139    1.398   .     A
C105   C167    1.398   .     A
C106   C115    1.421   .     S
C107   C114    1.421   .     S
C107   C108    1.198   1_556 S
C108   C113    1.421   .     S
C108   C107    1.198   1_554 S
C109   C112    1.421   .     S
C109   C110    1.197   1_556 S
C110   C111    1.421   .     S
C110   C109    1.197   1_554 S
C111   O52     1.275   .     A
C111   O45     1.275   .     S
C112   O2      1.275   .     A
C112   O49     1.275   .     S
C113   O50     1.277   .     A
C113   O3      1.276   .     A
C114   O51     1.277   .     A
C114   O4      1.276   .     A
C115   O9      1.275   .     A
C115   O5      1.275   1_545 S
C116   C164    1.399   .     A
C116   C140    1.400   .     A
C117   O10     1.275   1_545 A
C117   O6      1.275   .     S
C118   O7      1.277   .     A
C118   O11     1.276   1_655 S
C119   O8      1.277   .     A
C119   O13     1.276   1_455 S
C120   O14     1.273   .     A
C120   O47     1.275   .     A
C121   O15     1.273   .     A
C121   O48     1.272   .     A
C122   O16     1.273   .     A
C122   O44     1.272   .     A
C123   O17     1.277   .     A
C123   O46     1.274   .     A
C124   O42     1.275   .     A
C124   O18     1.273   .     A
C125   O43     1.274   .     A
C125   O19     1.274   .     A
C126   O40     1.276   .     A
C126   O20     1.273   .     A
C127   C141    1.398   .     A
C127   C182    1.472   .     S
C127   C165    1.398   .     A
C128   O21     1.273   .     A
C128   O41     1.273   .     A
C129   O22     1.276   .     A
C129   O38     1.273   .     A
C130   O39     1.273   .     A
C130   O24     1.273   .     A
C131   O36     1.273   .     A
C131   O25     1.275   .     A
C132   O26     1.274   .     A
C132   O37     1.274   .     A
C133   O33     1.273   .     A
C133   O27     1.272   .     A
C134   O28     1.274   .     A
C134   O35     1.277   .     A
C135   O31     1.273   .     A
C135   O29     1.275   .     A
C136   O32     1.273   .     A
C136   O30     1.272   .     A
C137   C173    1.399   .     A
C137   H1      1.084   .     S
C138   C142    1.398   .     A
C138   C170    1.397   .     A
C139   C174    1.399   .     A
C139   H105    1.084   .     S
C140   H116    1.084   .     S
C140   C175    1.399   .     A
C141   C176    1.399   .     A
C141   H127    1.084   .     S
C142   C177    1.399   .     A
C142   H138    1.084   .     S
C143   C178    1.399   .     A
C143   C149    1.400   .     A
C143   H149    1.084   .     S
C144   C160    1.398   .     A
C144   H160    1.084   .     S
C144   C179    1.399   .     A
C145   H171    1.084   .     S
C145   C180    1.399   .     A
C145   C171    1.399   .     A
C146   H182    1.084   .     S
C146   C181    1.398   .     A
C146   C182    1.399   .     A
C147   H2      1.084   .     S
C147   C183    1.399   .     A
C148   H13     1.084   .     S
C148   C184    1.398   .     A
C149   C172    1.399   .     A
C150   C185    1.399   .     A
C150   H24     1.084   .     S
C151   H35     1.084   .     S
C151   C186    1.399   .     A
C152   C187    1.398   .     A
C152   H46     1.084   .     S
C153   C188    1.398   .     A
C153   H57     1.084   .     S
C154   C189    1.398   .     A
C154   H68     1.084   .     S
C155   C190    1.400   .     A
C155   H79     1.084   .     S
C156   C191    1.399   .     A
C156   H90     1.084   .     S
C157   C182    1.400   .     A
C157   H101    1.084   .     S
C157   C192    1.399   .     A
C158   H106    1.084   .     S
C159   H107    1.084   .     S
C160   C168    1.399   .     A
C161   H108    1.084   .     S
C162   H109    1.084   .     S
C163   H110    1.084   .     S
C164   H111    1.084   .     S
C165   H112    1.084   .     S
C166   H113    1.084   .     S
C167   H114    1.084   .     S
C168   H115    1.084   .     S
C169   C171    1.399   .     A
C169   H117    1.084   .     S
C170   H118    1.084   .     S
C172   H119    1.084   .     S
O1     Zn1     1.937   .     S
O1     Zn4     1.935   .     S
O1     Zn8     1.936   .     S
O1     Zn12    1.939   1_455 S
O2     Zn3     1.913   .     S
O3     Zn6     1.912   .     S
O4     Zn5     1.912   .     S
O5     Zn15    1.912   .     S
O5     C115    1.275   1_565 S
O6     Zn14    1.912   .     S
O7     Zn9     1.913   .     S
O8     Zn1     1.913   .     S
O9     Zn11    1.913   .     S
O10    Zn10    1.913   .     S
O10    C117    1.275   1_565 A
O11    Zn13    1.912   .     S
O11    C118    1.276   1_455 S
O12    Zn3     1.935   .     S
O12    Zn13    1.939   .     S
O12    Zn7     1.936   .     S
O12    Zn9     1.937   1_455 S
O13    Zn12    1.912   .     S
O13    C119    1.276   1_655 S
O14    Zn4     1.933   .     S
O15    Zn3     1.933   1_655 S
O16    Zn6     1.933   1_565 S
O17    Zn5     1.933   .     S
O18    Zn8     1.933   1_655 S
O19    Zn7     1.933   .     S
O20    Zn2     1.933   .     S
O21    Zn16    1.933   1_565 S
O22    Zn7     1.934   1_655 S
O23    Zn14    1.936   .     S
O23    Zn2     1.937   .     S
O23    Zn6     1.939   .     S
O23    Zn10    1.935   1_545 S
O24    Zn8     1.934   .     S
O25    Zn5     1.932   1_565 S
O26    Zn6     1.932   .     S
O27    Zn3     1.935   .     S
O28    Zn4     1.935   1_655 S
O29    Zn16    1.932   .     S
O30    Zn2     1.932   1_565 S
O31    Zn11    1.933   .     S
O32    Zn10    1.933   .     S
O33    Zn13    1.933   .     S
O34    Zn11    1.935   .     S
O34    Zn5     1.939   .     S
O34    Zn15    1.936   1_545 S
O34    Zn16    1.937   .     S
O35    Zn12    1.933   .     S
O36    Zn15    1.933   .     S
O37    Zn14    1.933   .     S
O38    Zn9     1.933   .     S
O39    Zn1     1.933   .     S
O40    Zn14    1.934   .     S
O41    Zn15    1.934   .     S
O42    Zn12    1.932   .     S
O43    Zn13    1.932   .     S
O44    Zn10    1.935   .     S
O45    Zn8     1.912   .     S
O46    Zn11    1.935   .     S
O47    Zn1     1.932   .     S
O48    Zn9     1.932   .     S
O49    Zn7     1.912   .     S
O50    Zn2     1.913   .     S
O51    Zn16    1.913   .     S
O52    Zn4     1.913   .     S
Zn2    O30     1.932   1_545 S
Zn3    O15     1.933   1_455 S
Zn4    O28     1.935   1_455 S
Zn5    O25     1.932   1_545 S
Zn6    O16     1.933   1_545 S
Zn7    O22     1.934   1_455 S
Zn8    O18     1.933   1_455 S
Zn9    O12     1.937   1_655 S
Zn10   O23     1.935   1_565 S
Zn12   O1      1.939   1_655 S
Zn15   O34     1.936   1_565 S
Zn16   O21     1.933   1_545 S
