data_str_m1_o10_o16_pcu_sym.152
_audit_creation_date              2020-01-03
_audit_creation_method            'Materials Studio'
_symmetry_space_group_name_H-M    'P1'
_symmetry_Int_Tables_number       1
_symmetry_cell_setting            triclinic
loop_
_symmetry_equiv_pos_as_xyz
  x,y,z
_cell_length_a                    32.7581
_cell_length_b                    32.5482
_cell_length_c                    30.9824
_cell_angle_alpha                 96.0450
_cell_angle_beta                  74.8560
_cell_angle_gamma                 99.0095
loop_
_atom_site_label
_atom_site_type_symbol
_atom_site_fract_x
_atom_site_fract_y
_atom_site_fract_z
_atom_site_U_iso_or_equiv
_atom_site_adp_type
_atom_site_occupancy
C1     C     0.05315   0.15971   0.25920   0.00000  Uiso   1.00
C2     C     0.16724   0.15796   0.05999   0.00000  Uiso   1.00
C3     C     0.22990   0.12583   0.05620   0.00000  Uiso   1.00
C4     C     0.28075   0.17354   0.24003   0.00000  Uiso   1.00
C5     C     0.13674   0.18717   0.42014   0.00000  Uiso   1.00
C6     C     0.32619   0.17722   0.23807   0.00000  Uiso   1.00
C7     C     0.00808   0.15437   0.26296   0.00000  Uiso   1.00
C8     C     0.18277   0.32304   0.23569   0.00000  Uiso   1.00
C9     C     0.15312   0.01164   0.26232   0.00000  Uiso   1.00
C10    C     0.15558   0.05593   0.26072   0.00000  Uiso   1.00
C11    C     0.17712   0.27804   0.24000   0.00000  Uiso   1.00
C12    C     0.07766   0.17783   0.48580   0.00000  Uiso   1.00
C13    C     0.18561   0.14814   0.12940   0.00000  Uiso   1.00
C14    C     0.14877   0.18464   0.37079   0.00000  Uiso   1.00
C15    C     0.24292   0.12856   0.00970   0.00000  Uiso   1.00
C16    C     0.19353   0.14241   0.08111   0.00000  Uiso   1.00
C17    C     0.09366   0.18930   0.44206   0.00000  Uiso   1.00
C18    C     0.31741   0.11760   0.28740   0.00000  Uiso   1.00
C19    C     0.22115   0.00853   0.20208   0.00000  Uiso   1.00
C20    C     0.28302   0.17501   0.42569   0.00000  Uiso   1.00
C21    C     0.27833   0.10569   0.48356   0.00000  Uiso   1.00
C22    C     0.10421   0.16479   0.00852   0.00000  Uiso   1.00
C23    C     0.14894   0.16798   0.48965   0.00000  Uiso   1.00
C24    C     0.16522   0.17910   0.44472   0.00000  Uiso   1.00
C25    C     0.17756   0.15777   0.01296   0.00000  Uiso   1.00
C26    C     0.21933   0.15000   0.48880   0.00000  Uiso   1.00
C27    C     0.23652   0.16668   0.44633   0.00000  Uiso   1.00
C28    C     0.20962   0.18225   0.42555   0.00000  Uiso   1.00
F29    F     0.13598   0.17931   0.08582   0.00000  Uiso   1.00
F30    F     0.06587   0.19802   0.41967   0.00000  Uiso   1.00
F31    F     0.08496   0.14503   0.04652   0.00000  Uiso   1.00
F32    F     0.03520   0.17589   0.00506   0.00000  Uiso   1.00
F33    F     0.22757   0.20346   0.38811   0.00000  Uiso   1.00
F34    F     0.01994   0.20617   0.21188   0.00000  Uiso   1.00
H35    H     0.24858   0.11180   0.07339   0.00000  Uiso   1.00
H36    H     0.12544   0.32991   0.28571   0.00000  Uiso   1.00
H37    H     0.32148   0.11346   0.32027   0.00000  Uiso   1.00
H38    H     0.24492   0.32246   0.18363   0.00000  Uiso   1.00
H39    H     0.29483   0.17383   0.38948   0.00000  Uiso   1.00
H40    H     0.28276   0.09897   0.44773   0.00000  Uiso   1.00
O41    O     0.16667   0.16667   0.25000   0.00000  Uiso   1.00
O42    O     0.15451   0.12637   0.15458   0.00000  Uiso   1.00
O43    O     0.12940   0.20391   0.34968   0.00000  Uiso   1.00
O44    O     0.20824   0.17759   0.14606   0.00000  Uiso   1.00
O45    O     0.17451   0.15880   0.34968   0.00000  Uiso   1.00
O46    O     0.29601   0.09017   0.26969   0.00000  Uiso   1.00
O47    O     0.22683   0.04524   0.19418   0.00000  Uiso   1.00
O48    O     0.30829   0.18570   0.44887   0.00000  Uiso   1.00
O49    O     0.30250   0.09333   0.00186   0.00000  Uiso   1.00
O50    O     0.17930   0.08019   0.28213   0.00000  Uiso   1.00
O51    O     0.14632   0.26085   0.27013   0.00000  Uiso   1.00
O52    O     0.07412   0.13291   0.23413   0.00000  Uiso   1.00
O53    O     0.26693   0.19272   0.21360   0.00000  Uiso   1.00
O54    O     0.07071   0.18878   0.28213   0.00000  Uiso   1.00
O55    O     0.25491   0.15226   0.27013   0.00000  Uiso   1.00
O56    O     0.13760   0.06944   0.23413   0.00000  Uiso   1.00
O57    O     0.20345   0.25620   0.21360   0.00000  Uiso   1.00
Zn58   Zn    0.19338   0.13994   0.28734   0.00000  Uiso   1.00
Zn59   Zn    0.13379   0.12458   0.21875   0.00000  Uiso   1.00
Zn60   Zn    0.21056   0.19775   0.20657   0.00000  Uiso   1.00
Zn61   Zn    0.12893   0.20439   0.28733   0.00000  Uiso   1.00
C62    C     0.38648   0.15971   0.25920   0.00000  Uiso   1.00
C63    C     0.50057   0.15796   0.05999   0.00000  Uiso   1.00
C64    C     0.56323   0.12583   0.05620   0.00000  Uiso   1.00
C65    C     0.61409   0.17354   0.24003   0.00000  Uiso   1.00
C66    C     0.47007   0.18717   0.42014   0.00000  Uiso   1.00
C67    C     0.65952   0.17722   0.23807   0.00000  Uiso   1.00
C68    C     0.34141   0.15437   0.26296   0.00000  Uiso   1.00
C69    C     0.51610   0.32304   0.23569   0.00000  Uiso   1.00
C70    C     0.48646   0.01164   0.26232   0.00000  Uiso   1.00
C71    C     0.48891   0.05593   0.26072   0.00000  Uiso   1.00
C72    C     0.51045   0.27804   0.24000   0.00000  Uiso   1.00
C73    C     0.41099   0.17783   0.48580   0.00000  Uiso   1.00
C74    C     0.51895   0.14814   0.12940   0.00000  Uiso   1.00
C75    C     0.48211   0.18464   0.37079   0.00000  Uiso   1.00
C76    C     0.57625   0.12856   0.00970   0.00000  Uiso   1.00
C77    C     0.52686   0.14241   0.08111   0.00000  Uiso   1.00
C78    C     0.42699   0.18930   0.44206   0.00000  Uiso   1.00
C79    C     0.65074   0.11760   0.28740   0.00000  Uiso   1.00
C80    C     0.55448   0.00853   0.20208   0.00000  Uiso   1.00
C81    C     0.61636   0.17501   0.42569   0.00000  Uiso   1.00
C82    C     0.61166   0.10569   0.48356   0.00000  Uiso   1.00
C83    C     0.43754   0.16479   0.00852   0.00000  Uiso   1.00
C84    C     0.48227   0.16798   0.48965   0.00000  Uiso   1.00
C85    C     0.49856   0.17910   0.44472   0.00000  Uiso   1.00
C86    C     0.51090   0.15777   0.01296   0.00000  Uiso   1.00
C87    C     0.55267   0.15000   0.48880   0.00000  Uiso   1.00
C88    C     0.56985   0.16668   0.44633   0.00000  Uiso   1.00
C89    C     0.54295   0.18225   0.42555   0.00000  Uiso   1.00
F90    F     0.46931   0.17931   0.08582   0.00000  Uiso   1.00
F91    F     0.39920   0.19802   0.41967   0.00000  Uiso   1.00
F92    F     0.41830   0.14503   0.04652   0.00000  Uiso   1.00
F93    F     0.36854   0.17589   0.00506   0.00000  Uiso   1.00
F94    F     0.56090   0.20346   0.38811   0.00000  Uiso   1.00
F95    F     0.35328   0.20617   0.21188   0.00000  Uiso   1.00
H96    H     0.58191   0.11180   0.07339   0.00000  Uiso   1.00
H97    H     0.45877   0.32991   0.28571   0.00000  Uiso   1.00
H98    H     0.65482   0.11346   0.32027   0.00000  Uiso   1.00
H99    H     0.57825   0.32246   0.18363   0.00000  Uiso   1.00
H100   H     0.62816   0.17383   0.38948   0.00000  Uiso   1.00
H101   H     0.61609   0.09897   0.44773   0.00000  Uiso   1.00
O102   O     0.50000   0.16667   0.25000   0.00000  Uiso   1.00
O103   O     0.48784   0.12637   0.15458   0.00000  Uiso   1.00
O104   O     0.46274   0.20391   0.34968   0.00000  Uiso   1.00
O105   O     0.54157   0.17759   0.14606   0.00000  Uiso   1.00
O106   O     0.50785   0.15880   0.34968   0.00000  Uiso   1.00
O107   O     0.62934   0.09017   0.26969   0.00000  Uiso   1.00
O108   O     0.56016   0.04524   0.19418   0.00000  Uiso   1.00
O109   O     0.64163   0.18570   0.44887   0.00000  Uiso   1.00
O110   O     0.63583   0.09333   0.00186   0.00000  Uiso   1.00
O111   O     0.51264   0.08019   0.28213   0.00000  Uiso   1.00
O112   O     0.47965   0.26085   0.27013   0.00000  Uiso   1.00
O113   O     0.40745   0.13291   0.23413   0.00000  Uiso   1.00
O114   O     0.60026   0.19272   0.21360   0.00000  Uiso   1.00
O115   O     0.40405   0.18878   0.28213   0.00000  Uiso   1.00
O116   O     0.58824   0.15226   0.27013   0.00000  Uiso   1.00
O117   O     0.47093   0.06944   0.23413   0.00000  Uiso   1.00
O118   O     0.53678   0.25620   0.21360   0.00000  Uiso   1.00
Zn119  Zn    0.52672   0.13994   0.28734   0.00000  Uiso   1.00
Zn120  Zn    0.46713   0.12458   0.21875   0.00000  Uiso   1.00
Zn121  Zn    0.54389   0.19775   0.20657   0.00000  Uiso   1.00
Zn122  Zn    0.46226   0.20439   0.28733   0.00000  Uiso   1.00
C123   C     0.71981   0.15971   0.25920   0.00000  Uiso   1.00
C124   C     0.83390   0.15796   0.05999   0.00000  Uiso   1.00
C125   C     0.89656   0.12583   0.05620   0.00000  Uiso   1.00
C126   C     0.94742   0.17354   0.24003   0.00000  Uiso   1.00
C127   C     0.80340   0.18717   0.42014   0.00000  Uiso   1.00
C128   C     0.99285   0.17722   0.23807   0.00000  Uiso   1.00
C129   C     0.67474   0.15437   0.26296   0.00000  Uiso   1.00
C130   C     0.84943   0.32304   0.23569   0.00000  Uiso   1.00
C131   C     0.81979   0.01164   0.26232   0.00000  Uiso   1.00
C132   C     0.82224   0.05593   0.26072   0.00000  Uiso   1.00
C133   C     0.84378   0.27804   0.24000   0.00000  Uiso   1.00
C134   C     0.74432   0.17783   0.48580   0.00000  Uiso   1.00
C135   C     0.85228   0.14814   0.12940   0.00000  Uiso   1.00
C136   C     0.81544   0.18464   0.37079   0.00000  Uiso   1.00
C137   C     0.90958   0.12856   0.00970   0.00000  Uiso   1.00
C138   C     0.86020   0.14241   0.08111   0.00000  Uiso   1.00
C139   C     0.76032   0.18930   0.44206   0.00000  Uiso   1.00
C140   C     0.98408   0.11760   0.28740   0.00000  Uiso   1.00
C141   C     0.88781   0.00853   0.20208   0.00000  Uiso   1.00
C142   C     0.94969   0.17501   0.42569   0.00000  Uiso   1.00
C143   C     0.94500   0.10569   0.48356   0.00000  Uiso   1.00
C144   C     0.77087   0.16479   0.00852   0.00000  Uiso   1.00
C145   C     0.81560   0.16798   0.48965   0.00000  Uiso   1.00
C146   C     0.83189   0.17910   0.44472   0.00000  Uiso   1.00
C147   C     0.84423   0.15777   0.01296   0.00000  Uiso   1.00
C148   C     0.88600   0.15000   0.48880   0.00000  Uiso   1.00
C149   C     0.90318   0.16668   0.44633   0.00000  Uiso   1.00
C150   C     0.87628   0.18225   0.42555   0.00000  Uiso   1.00
F151   F     0.80264   0.17931   0.08582   0.00000  Uiso   1.00
F152   F     0.73253   0.19802   0.41967   0.00000  Uiso   1.00
F153   F     0.75163   0.14503   0.04652   0.00000  Uiso   1.00
F154   F     0.70187   0.17589   0.00506   0.00000  Uiso   1.00
F155   F     0.89424   0.20346   0.38811   0.00000  Uiso   1.00
F156   F     0.68661   0.20617   0.21188   0.00000  Uiso   1.00
H157   H     0.91525   0.11180   0.07339   0.00000  Uiso   1.00
H158   H     0.79211   0.32991   0.28571   0.00000  Uiso   1.00
H159   H     0.98815   0.11346   0.32027   0.00000  Uiso   1.00
H160   H     0.91159   0.32246   0.18363   0.00000  Uiso   1.00
H161   H     0.96149   0.17383   0.38948   0.00000  Uiso   1.00
H162   H     0.94943   0.09897   0.44773   0.00000  Uiso   1.00
O163   O     0.83333   0.16667   0.25000   0.00000  Uiso   1.00
O164   O     0.82118   0.12637   0.15458   0.00000  Uiso   1.00
O165   O     0.79607   0.20391   0.34968   0.00000  Uiso   1.00
O166   O     0.87491   0.17759   0.14606   0.00000  Uiso   1.00
O167   O     0.84118   0.15880   0.34968   0.00000  Uiso   1.00
O168   O     0.96267   0.09017   0.26969   0.00000  Uiso   1.00
O169   O     0.89349   0.04524   0.19418   0.00000  Uiso   1.00
O170   O     0.97496   0.18570   0.44887   0.00000  Uiso   1.00
O171   O     0.96917   0.09333   0.00186   0.00000  Uiso   1.00
O172   O     0.84597   0.08019   0.28213   0.00000  Uiso   1.00
O173   O     0.81298   0.26085   0.27013   0.00000  Uiso   1.00
O174   O     0.74078   0.13291   0.23413   0.00000  Uiso   1.00
O175   O     0.93360   0.19272   0.21360   0.00000  Uiso   1.00
O176   O     0.73738   0.18878   0.28213   0.00000  Uiso   1.00
O177   O     0.92158   0.15226   0.27013   0.00000  Uiso   1.00
O178   O     0.80426   0.06944   0.23413   0.00000  Uiso   1.00
O179   O     0.87012   0.25620   0.21360   0.00000  Uiso   1.00
Zn180  Zn    0.86005   0.13994   0.28734   0.00000  Uiso   1.00
Zn181  Zn    0.80046   0.12458   0.21875   0.00000  Uiso   1.00
Zn182  Zn    0.87723   0.19775   0.20657   0.00000  Uiso   1.00
Zn183  Zn    0.79560   0.20439   0.28733   0.00000  Uiso   1.00
C184   C     0.05315   0.49304   0.25920   0.00000  Uiso   1.00
C185   C     0.16724   0.49130   0.05999   0.00000  Uiso   1.00
C186   C     0.22990   0.45916   0.05620   0.00000  Uiso   1.00
C187   C     0.28075   0.50687   0.24003   0.00000  Uiso   1.00
C188   C     0.13674   0.52050   0.42014   0.00000  Uiso   1.00
C189   C     0.32619   0.51056   0.23807   0.00000  Uiso   1.00
C190   C     0.00808   0.48770   0.26296   0.00000  Uiso   1.00
C191   C     0.18277   0.65638   0.23569   0.00000  Uiso   1.00
C192   C     0.15312   0.34498   0.26232   0.00000  Uiso   1.00
C193   C     0.15558   0.38927   0.26072   0.00000  Uiso   1.00
C194   C     0.17712   0.61137   0.24000   0.00000  Uiso   1.00
C195   C     0.07766   0.51117   0.48580   0.00000  Uiso   1.00
C196   C     0.18561   0.48147   0.12940   0.00000  Uiso   1.00
C197   C     0.14877   0.51798   0.37079   0.00000  Uiso   1.00
C198   C     0.24292   0.46190   0.00970   0.00000  Uiso   1.00
C199   C     0.19353   0.47575   0.08111   0.00000  Uiso   1.00
C200   C     0.09366   0.52263   0.44206   0.00000  Uiso   1.00
C201   C     0.31741   0.45093   0.28740   0.00000  Uiso   1.00
C202   C     0.22115   0.34186   0.20208   0.00000  Uiso   1.00
C203   C     0.28302   0.50835   0.42569   0.00000  Uiso   1.00
C204   C     0.27833   0.43902   0.48356   0.00000  Uiso   1.00
C205   C     0.10421   0.49812   0.00852   0.00000  Uiso   1.00
C206   C     0.14894   0.50131   0.48965   0.00000  Uiso   1.00
C207   C     0.16522   0.51243   0.44472   0.00000  Uiso   1.00
C208   C     0.17756   0.49111   0.01296   0.00000  Uiso   1.00
C209   C     0.21933   0.48333   0.48880   0.00000  Uiso   1.00
C210   C     0.23652   0.50001   0.44633   0.00000  Uiso   1.00
C211   C     0.20962   0.51558   0.42555   0.00000  Uiso   1.00
F212   F     0.13598   0.51265   0.08582   0.00000  Uiso   1.00
F213   F     0.06587   0.53135   0.41967   0.00000  Uiso   1.00
F214   F     0.08496   0.47836   0.04652   0.00000  Uiso   1.00
F215   F     0.03520   0.50922   0.00506   0.00000  Uiso   1.00
F216   F     0.22757   0.53680   0.38811   0.00000  Uiso   1.00
F217   F     0.01994   0.53951   0.21188   0.00000  Uiso   1.00
H218   H     0.24858   0.44513   0.07339   0.00000  Uiso   1.00
H219   H     0.12544   0.66324   0.28571   0.00000  Uiso   1.00
H220   H     0.32148   0.44679   0.32027   0.00000  Uiso   1.00
H221   H     0.24492   0.65580   0.18363   0.00000  Uiso   1.00
H222   H     0.29483   0.50716   0.38948   0.00000  Uiso   1.00
H223   H     0.28276   0.43231   0.44773   0.00000  Uiso   1.00
O224   O     0.16667   0.50000   0.25000   0.00000  Uiso   1.00
O225   O     0.15451   0.45970   0.15458   0.00000  Uiso   1.00
O226   O     0.12940   0.53724   0.34968   0.00000  Uiso   1.00
O227   O     0.20824   0.51092   0.14606   0.00000  Uiso   1.00
O228   O     0.17451   0.49213   0.34968   0.00000  Uiso   1.00
O229   O     0.29601   0.42350   0.26969   0.00000  Uiso   1.00
O230   O     0.22683   0.37857   0.19418   0.00000  Uiso   1.00
O231   O     0.30829   0.51904   0.44887   0.00000  Uiso   1.00
O232   O     0.30250   0.42667   0.00186   0.00000  Uiso   1.00
O233   O     0.17930   0.41352   0.28213   0.00000  Uiso   1.00
O234   O     0.14632   0.59418   0.27013   0.00000  Uiso   1.00
O235   O     0.07412   0.46625   0.23413   0.00000  Uiso   1.00
O236   O     0.26693   0.52605   0.21360   0.00000  Uiso   1.00
O237   O     0.07071   0.52211   0.28213   0.00000  Uiso   1.00
O238   O     0.25491   0.48559   0.27013   0.00000  Uiso   1.00
O239   O     0.13760   0.40277   0.23413   0.00000  Uiso   1.00
O240   O     0.20345   0.58953   0.21360   0.00000  Uiso   1.00
Zn241  Zn    0.19338   0.47327   0.28734   0.00000  Uiso   1.00
Zn242  Zn    0.13379   0.45791   0.21875   0.00000  Uiso   1.00
Zn243  Zn    0.21056   0.53109   0.20657   0.00000  Uiso   1.00
Zn244  Zn    0.12893   0.53773   0.28733   0.00000  Uiso   1.00
C245   C     0.38648   0.49304   0.25920   0.00000  Uiso   1.00
C246   C     0.50057   0.49130   0.05999   0.00000  Uiso   1.00
C247   C     0.56323   0.45916   0.05620   0.00000  Uiso   1.00
C248   C     0.61409   0.50687   0.24003   0.00000  Uiso   1.00
C249   C     0.47007   0.52050   0.42014   0.00000  Uiso   1.00
C250   C     0.65952   0.51056   0.23807   0.00000  Uiso   1.00
C251   C     0.34141   0.48770   0.26296   0.00000  Uiso   1.00
C252   C     0.51610   0.65638   0.23569   0.00000  Uiso   1.00
C253   C     0.48646   0.34498   0.26232   0.00000  Uiso   1.00
C254   C     0.48891   0.38927   0.26072   0.00000  Uiso   1.00
C255   C     0.51045   0.61137   0.24000   0.00000  Uiso   1.00
C256   C     0.41099   0.51117   0.48580   0.00000  Uiso   1.00
C257   C     0.51895   0.48147   0.12940   0.00000  Uiso   1.00
C258   C     0.48211   0.51798   0.37079   0.00000  Uiso   1.00
C259   C     0.57625   0.46190   0.00970   0.00000  Uiso   1.00
C260   C     0.52686   0.47575   0.08111   0.00000  Uiso   1.00
C261   C     0.42699   0.52263   0.44206   0.00000  Uiso   1.00
C262   C     0.65074   0.45093   0.28740   0.00000  Uiso   1.00
C263   C     0.55448   0.34186   0.20208   0.00000  Uiso   1.00
C264   C     0.61636   0.50835   0.42569   0.00000  Uiso   1.00
C265   C     0.61166   0.43902   0.48356   0.00000  Uiso   1.00
C266   C     0.43754   0.49812   0.00852   0.00000  Uiso   1.00
C267   C     0.48227   0.50131   0.48965   0.00000  Uiso   1.00
C268   C     0.49856   0.51243   0.44472   0.00000  Uiso   1.00
C269   C     0.51090   0.49111   0.01296   0.00000  Uiso   1.00
C270   C     0.55267   0.48333   0.48880   0.00000  Uiso   1.00
C271   C     0.56985   0.50001   0.44633   0.00000  Uiso   1.00
C272   C     0.54295   0.51558   0.42555   0.00000  Uiso   1.00
F273   F     0.46931   0.51265   0.08582   0.00000  Uiso   1.00
F274   F     0.39920   0.53135   0.41967   0.00000  Uiso   1.00
F275   F     0.41830   0.47836   0.04652   0.00000  Uiso   1.00
F276   F     0.36854   0.50922   0.00506   0.00000  Uiso   1.00
F277   F     0.56090   0.53680   0.38811   0.00000  Uiso   1.00
F278   F     0.35328   0.53951   0.21188   0.00000  Uiso   1.00
H279   H     0.58191   0.44513   0.07339   0.00000  Uiso   1.00
H280   H     0.45877   0.66324   0.28571   0.00000  Uiso   1.00
H281   H     0.65482   0.44679   0.32027   0.00000  Uiso   1.00
H282   H     0.57825   0.65580   0.18363   0.00000  Uiso   1.00
H283   H     0.62816   0.50716   0.38948   0.00000  Uiso   1.00
H284   H     0.61609   0.43231   0.44773   0.00000  Uiso   1.00
O285   O     0.50000   0.50000   0.25000   0.00000  Uiso   1.00
O286   O     0.48784   0.45970   0.15458   0.00000  Uiso   1.00
O287   O     0.46274   0.53724   0.34968   0.00000  Uiso   1.00
O288   O     0.54157   0.51092   0.14606   0.00000  Uiso   1.00
O289   O     0.50785   0.49213   0.34968   0.00000  Uiso   1.00
O290   O     0.62934   0.42350   0.26969   0.00000  Uiso   1.00
O291   O     0.56016   0.37857   0.19418   0.00000  Uiso   1.00
O292   O     0.64163   0.51904   0.44887   0.00000  Uiso   1.00
O293   O     0.63583   0.42667   0.00186   0.00000  Uiso   1.00
O294   O     0.51264   0.41352   0.28213   0.00000  Uiso   1.00
O295   O     0.47965   0.59418   0.27013   0.00000  Uiso   1.00
O296   O     0.40745   0.46625   0.23413   0.00000  Uiso   1.00
O297   O     0.60026   0.52605   0.21360   0.00000  Uiso   1.00
O298   O     0.40405   0.52211   0.28213   0.00000  Uiso   1.00
O299   O     0.58824   0.48559   0.27013   0.00000  Uiso   1.00
O300   O     0.47093   0.40277   0.23413   0.00000  Uiso   1.00
O301   O     0.53678   0.58953   0.21360   0.00000  Uiso   1.00
Zn302  Zn    0.52672   0.47327   0.28734   0.00000  Uiso   1.00
Zn303  Zn    0.46713   0.45791   0.21875   0.00000  Uiso   1.00
Zn304  Zn    0.54389   0.53109   0.20657   0.00000  Uiso   1.00
Zn305  Zn    0.46226   0.53773   0.28733   0.00000  Uiso   1.00
C306   C     0.71981   0.49304   0.25920   0.00000  Uiso   1.00
C307   C     0.83390   0.49130   0.05999   0.00000  Uiso   1.00
C308   C     0.89656   0.45916   0.05620   0.00000  Uiso   1.00
C309   C     0.94742   0.50687   0.24003   0.00000  Uiso   1.00
C310   C     0.80340   0.52050   0.42014   0.00000  Uiso   1.00
C311   C     0.99285   0.51056   0.23807   0.00000  Uiso   1.00
C312   C     0.67474   0.48770   0.26296   0.00000  Uiso   1.00
C313   C     0.84943   0.65638   0.23569   0.00000  Uiso   1.00
C314   C     0.81979   0.34498   0.26232   0.00000  Uiso   1.00
C315   C     0.82224   0.38927   0.26072   0.00000  Uiso   1.00
C316   C     0.84378   0.61137   0.24000   0.00000  Uiso   1.00
C317   C     0.74432   0.51117   0.48580   0.00000  Uiso   1.00
C318   C     0.85228   0.48147   0.12940   0.00000  Uiso   1.00
C319   C     0.81544   0.51798   0.37079   0.00000  Uiso   1.00
C320   C     0.90958   0.46190   0.00970   0.00000  Uiso   1.00
C321   C     0.86020   0.47575   0.08111   0.00000  Uiso   1.00
C322   C     0.76032   0.52263   0.44206   0.00000  Uiso   1.00
C323   C     0.98408   0.45093   0.28740   0.00000  Uiso   1.00
C324   C     0.88781   0.34186   0.20208   0.00000  Uiso   1.00
C325   C     0.94969   0.50835   0.42569   0.00000  Uiso   1.00
C326   C     0.94500   0.43902   0.48356   0.00000  Uiso   1.00
C327   C     0.77087   0.49812   0.00852   0.00000  Uiso   1.00
C328   C     0.81560   0.50131   0.48965   0.00000  Uiso   1.00
C329   C     0.83189   0.51243   0.44472   0.00000  Uiso   1.00
C330   C     0.84423   0.49111   0.01296   0.00000  Uiso   1.00
C331   C     0.88600   0.48333   0.48880   0.00000  Uiso   1.00
C332   C     0.90318   0.50001   0.44633   0.00000  Uiso   1.00
C333   C     0.87628   0.51558   0.42555   0.00000  Uiso   1.00
F334   F     0.80264   0.51265   0.08582   0.00000  Uiso   1.00
F335   F     0.73253   0.53135   0.41967   0.00000  Uiso   1.00
F336   F     0.75163   0.47836   0.04652   0.00000  Uiso   1.00
F337   F     0.70187   0.50922   0.00506   0.00000  Uiso   1.00
F338   F     0.89424   0.53680   0.38811   0.00000  Uiso   1.00
F339   F     0.68661   0.53951   0.21188   0.00000  Uiso   1.00
H340   H     0.91525   0.44513   0.07339   0.00000  Uiso   1.00
H341   H     0.79211   0.66324   0.28571   0.00000  Uiso   1.00
H342   H     0.98815   0.44679   0.32027   0.00000  Uiso   1.00
H343   H     0.91159   0.65580   0.18363   0.00000  Uiso   1.00
H344   H     0.96149   0.50716   0.38948   0.00000  Uiso   1.00
H345   H     0.94943   0.43231   0.44773   0.00000  Uiso   1.00
O346   O     0.83333   0.50000   0.25000   0.00000  Uiso   1.00
O347   O     0.82118   0.45970   0.15458   0.00000  Uiso   1.00
O348   O     0.79607   0.53724   0.34968   0.00000  Uiso   1.00
O349   O     0.87491   0.51092   0.14606   0.00000  Uiso   1.00
O350   O     0.84118   0.49213   0.34968   0.00000  Uiso   1.00
O351   O     0.96267   0.42350   0.26969   0.00000  Uiso   1.00
O352   O     0.89349   0.37857   0.19418   0.00000  Uiso   1.00
O353   O     0.97496   0.51904   0.44887   0.00000  Uiso   1.00
O354   O     0.96917   0.42667   0.00186   0.00000  Uiso   1.00
O355   O     0.84597   0.41352   0.28213   0.00000  Uiso   1.00
O356   O     0.81298   0.59418   0.27013   0.00000  Uiso   1.00
O357   O     0.74078   0.46625   0.23413   0.00000  Uiso   1.00
O358   O     0.93360   0.52605   0.21360   0.00000  Uiso   1.00
O359   O     0.73738   0.52211   0.28213   0.00000  Uiso   1.00
O360   O     0.92158   0.48559   0.27013   0.00000  Uiso   1.00
O361   O     0.80426   0.40277   0.23413   0.00000  Uiso   1.00
O362   O     0.87012   0.58953   0.21360   0.00000  Uiso   1.00
Zn363  Zn    0.86005   0.47327   0.28734   0.00000  Uiso   1.00
Zn364  Zn    0.80046   0.45791   0.21875   0.00000  Uiso   1.00
Zn365  Zn    0.87723   0.53109   0.20657   0.00000  Uiso   1.00
Zn366  Zn    0.79560   0.53773   0.28733   0.00000  Uiso   1.00
C367   C     0.05315   0.82638   0.25920   0.00000  Uiso   1.00
C368   C     0.16724   0.82463   0.05999   0.00000  Uiso   1.00
C369   C     0.22990   0.79250   0.05620   0.00000  Uiso   1.00
C370   C     0.28075   0.84020   0.24003   0.00000  Uiso   1.00
C371   C     0.13674   0.85383   0.42014   0.00000  Uiso   1.00
C372   C     0.32619   0.84389   0.23807   0.00000  Uiso   1.00
C373   C     0.00808   0.82103   0.26296   0.00000  Uiso   1.00
C374   C     0.18277   0.98971   0.23569   0.00000  Uiso   1.00
C375   C     0.15312   0.67831   0.26232   0.00000  Uiso   1.00
C376   C     0.15558   0.72260   0.26072   0.00000  Uiso   1.00
C377   C     0.17712   0.94470   0.24000   0.00000  Uiso   1.00
C378   C     0.07766   0.84450   0.48580   0.00000  Uiso   1.00
C379   C     0.18561   0.81480   0.12940   0.00000  Uiso   1.00
C380   C     0.14877   0.85131   0.37079   0.00000  Uiso   1.00
C381   C     0.24292   0.79523   0.00970   0.00000  Uiso   1.00
C382   C     0.19353   0.80908   0.08111   0.00000  Uiso   1.00
C383   C     0.09366   0.85596   0.44206   0.00000  Uiso   1.00
C384   C     0.31741   0.78427   0.28740   0.00000  Uiso   1.00
C385   C     0.22115   0.67520   0.20208   0.00000  Uiso   1.00
C386   C     0.28302   0.84168   0.42569   0.00000  Uiso   1.00
C387   C     0.27833   0.77235   0.48356   0.00000  Uiso   1.00
C388   C     0.10421   0.83146   0.00852   0.00000  Uiso   1.00
C389   C     0.14894   0.83464   0.48965   0.00000  Uiso   1.00
C390   C     0.16522   0.84576   0.44472   0.00000  Uiso   1.00
C391   C     0.17756   0.82444   0.01296   0.00000  Uiso   1.00
C392   C     0.21933   0.81666   0.48880   0.00000  Uiso   1.00
C393   C     0.23652   0.83335   0.44633   0.00000  Uiso   1.00
C394   C     0.20962   0.84891   0.42555   0.00000  Uiso   1.00
F395   F     0.13598   0.84598   0.08582   0.00000  Uiso   1.00
F396   F     0.06587   0.86469   0.41967   0.00000  Uiso   1.00
F397   F     0.08496   0.81169   0.04652   0.00000  Uiso   1.00
F398   F     0.03520   0.84255   0.00506   0.00000  Uiso   1.00
F399   F     0.22757   0.87013   0.38811   0.00000  Uiso   1.00
F400   F     0.01994   0.87284   0.21188   0.00000  Uiso   1.00
H401   H     0.24858   0.77847   0.07339   0.00000  Uiso   1.00
H402   H     0.12544   0.99658   0.28571   0.00000  Uiso   1.00
H403   H     0.32148   0.78013   0.32027   0.00000  Uiso   1.00
H404   H     0.24492   0.98913   0.18363   0.00000  Uiso   1.00
H405   H     0.29483   0.84049   0.38948   0.00000  Uiso   1.00
H406   H     0.28276   0.76564   0.44773   0.00000  Uiso   1.00
O407   O     0.16667   0.83333   0.25000   0.00000  Uiso   1.00
O408   O     0.15451   0.79304   0.15458   0.00000  Uiso   1.00
O409   O     0.12940   0.87058   0.34968   0.00000  Uiso   1.00
O410   O     0.20824   0.84425   0.14606   0.00000  Uiso   1.00
O411   O     0.17451   0.82546   0.34968   0.00000  Uiso   1.00
O412   O     0.29601   0.75683   0.26969   0.00000  Uiso   1.00
O413   O     0.22683   0.71191   0.19418   0.00000  Uiso   1.00
O414   O     0.30829   0.85237   0.44887   0.00000  Uiso   1.00
O415   O     0.30250   0.76000   0.00186   0.00000  Uiso   1.00
O416   O     0.17930   0.74686   0.28213   0.00000  Uiso   1.00
O417   O     0.14632   0.92751   0.27013   0.00000  Uiso   1.00
O418   O     0.07412   0.79958   0.23413   0.00000  Uiso   1.00
O419   O     0.26693   0.85939   0.21360   0.00000  Uiso   1.00
O420   O     0.07071   0.85544   0.28213   0.00000  Uiso   1.00
O421   O     0.25491   0.81892   0.27013   0.00000  Uiso   1.00
O422   O     0.13760   0.73610   0.23413   0.00000  Uiso   1.00
O423   O     0.20345   0.92286   0.21360   0.00000  Uiso   1.00
Zn424  Zn    0.19338   0.80661   0.28734   0.00000  Uiso   1.00
Zn425  Zn    0.13379   0.79124   0.21875   0.00000  Uiso   1.00
Zn426  Zn    0.21056   0.86442   0.20657   0.00000  Uiso   1.00
Zn427  Zn    0.12893   0.87106   0.28733   0.00000  Uiso   1.00
C428   C     0.38648   0.82638   0.25920   0.00000  Uiso   1.00
C429   C     0.50057   0.82463   0.05999   0.00000  Uiso   1.00
C430   C     0.56323   0.79250   0.05620   0.00000  Uiso   1.00
C431   C     0.61409   0.84020   0.24003   0.00000  Uiso   1.00
C432   C     0.47007   0.85383   0.42014   0.00000  Uiso   1.00
C433   C     0.65952   0.84389   0.23807   0.00000  Uiso   1.00
C434   C     0.34141   0.82103   0.26296   0.00000  Uiso   1.00
C435   C     0.51610   0.98971   0.23569   0.00000  Uiso   1.00
C436   C     0.48646   0.67831   0.26232   0.00000  Uiso   1.00
C437   C     0.48891   0.72260   0.26072   0.00000  Uiso   1.00
C438   C     0.51045   0.94470   0.24000   0.00000  Uiso   1.00
C439   C     0.41099   0.84450   0.48580   0.00000  Uiso   1.00
C440   C     0.51895   0.81480   0.12940   0.00000  Uiso   1.00
C441   C     0.48211   0.85131   0.37079   0.00000  Uiso   1.00
C442   C     0.57625   0.79523   0.00970   0.00000  Uiso   1.00
C443   C     0.52686   0.80908   0.08111   0.00000  Uiso   1.00
C444   C     0.42699   0.85596   0.44206   0.00000  Uiso   1.00
C445   C     0.65074   0.78427   0.28740   0.00000  Uiso   1.00
C446   C     0.55448   0.67520   0.20208   0.00000  Uiso   1.00
C447   C     0.61636   0.84168   0.42569   0.00000  Uiso   1.00
C448   C     0.61166   0.77235   0.48356   0.00000  Uiso   1.00
C449   C     0.43754   0.83146   0.00852   0.00000  Uiso   1.00
C450   C     0.48227   0.83464   0.48965   0.00000  Uiso   1.00
C451   C     0.49856   0.84576   0.44472   0.00000  Uiso   1.00
C452   C     0.51090   0.82444   0.01296   0.00000  Uiso   1.00
C453   C     0.55267   0.81666   0.48880   0.00000  Uiso   1.00
C454   C     0.56985   0.83335   0.44633   0.00000  Uiso   1.00
C455   C     0.54295   0.84891   0.42555   0.00000  Uiso   1.00
F456   F     0.46931   0.84598   0.08582   0.00000  Uiso   1.00
F457   F     0.39920   0.86469   0.41967   0.00000  Uiso   1.00
F458   F     0.41830   0.81169   0.04652   0.00000  Uiso   1.00
F459   F     0.36854   0.84255   0.00506   0.00000  Uiso   1.00
F460   F     0.56090   0.87013   0.38811   0.00000  Uiso   1.00
F461   F     0.35328   0.87284   0.21188   0.00000  Uiso   1.00
H462   H     0.58191   0.77847   0.07339   0.00000  Uiso   1.00
H463   H     0.45877   0.99658   0.28571   0.00000  Uiso   1.00
H464   H     0.65482   0.78013   0.32027   0.00000  Uiso   1.00
H465   H     0.57825   0.98913   0.18363   0.00000  Uiso   1.00
H466   H     0.62816   0.84049   0.38948   0.00000  Uiso   1.00
H467   H     0.61609   0.76564   0.44773   0.00000  Uiso   1.00
O468   O     0.50000   0.83333   0.25000   0.00000  Uiso   1.00
O469   O     0.48784   0.79304   0.15458   0.00000  Uiso   1.00
O470   O     0.46274   0.87058   0.34968   0.00000  Uiso   1.00
O471   O     0.54157   0.84425   0.14606   0.00000  Uiso   1.00
O472   O     0.50785   0.82546   0.34968   0.00000  Uiso   1.00
O473   O     0.62934   0.75683   0.26969   0.00000  Uiso   1.00
O474   O     0.56016   0.71191   0.19418   0.00000  Uiso   1.00
O475   O     0.64163   0.85237   0.44887   0.00000  Uiso   1.00
O476   O     0.63583   0.76000   0.00186   0.00000  Uiso   1.00
O477   O     0.51264   0.74686   0.28213   0.00000  Uiso   1.00
O478   O     0.47965   0.92751   0.27013   0.00000  Uiso   1.00
O479   O     0.40745   0.79958   0.23413   0.00000  Uiso   1.00
O480   O     0.60026   0.85939   0.21360   0.00000  Uiso   1.00
O481   O     0.40405   0.85544   0.28213   0.00000  Uiso   1.00
O482   O     0.58824   0.81892   0.27013   0.00000  Uiso   1.00
O483   O     0.47093   0.73610   0.23413   0.00000  Uiso   1.00
O484   O     0.53678   0.92286   0.21360   0.00000  Uiso   1.00
Zn485  Zn    0.52672   0.80661   0.28734   0.00000  Uiso   1.00
Zn486  Zn    0.46713   0.79124   0.21875   0.00000  Uiso   1.00
Zn487  Zn    0.54389   0.86442   0.20657   0.00000  Uiso   1.00
Zn488  Zn    0.46226   0.87106   0.28733   0.00000  Uiso   1.00
C489   C     0.71981   0.82638   0.25920   0.00000  Uiso   1.00
C490   C     0.83390   0.82463   0.05999   0.00000  Uiso   1.00
C491   C     0.89656   0.79250   0.05620   0.00000  Uiso   1.00
C492   C     0.94742   0.84020   0.24003   0.00000  Uiso   1.00
C493   C     0.80340   0.85383   0.42014   0.00000  Uiso   1.00
C494   C     0.99285   0.84389   0.23807   0.00000  Uiso   1.00
C495   C     0.67474   0.82103   0.26296   0.00000  Uiso   1.00
C496   C     0.84943   0.98971   0.23569   0.00000  Uiso   1.00
C497   C     0.81979   0.67831   0.26232   0.00000  Uiso   1.00
C498   C     0.82224   0.72260   0.26072   0.00000  Uiso   1.00
C499   C     0.84378   0.94470   0.24000   0.00000  Uiso   1.00
C500   C     0.74432   0.84450   0.48580   0.00000  Uiso   1.00
C501   C     0.85228   0.81480   0.12940   0.00000  Uiso   1.00
C502   C     0.81544   0.85131   0.37079   0.00000  Uiso   1.00
C503   C     0.90958   0.79523   0.00970   0.00000  Uiso   1.00
C504   C     0.86020   0.80908   0.08111   0.00000  Uiso   1.00
C505   C     0.76032   0.85596   0.44206   0.00000  Uiso   1.00
C506   C     0.98408   0.78427   0.28740   0.00000  Uiso   1.00
C507   C     0.88781   0.67520   0.20208   0.00000  Uiso   1.00
C508   C     0.94969   0.84168   0.42569   0.00000  Uiso   1.00
C509   C     0.94500   0.77235   0.48356   0.00000  Uiso   1.00
C510   C     0.77087   0.83146   0.00852   0.00000  Uiso   1.00
C511   C     0.81560   0.83464   0.48965   0.00000  Uiso   1.00
C512   C     0.83189   0.84576   0.44472   0.00000  Uiso   1.00
C513   C     0.84423   0.82444   0.01296   0.00000  Uiso   1.00
C514   C     0.88600   0.81666   0.48880   0.00000  Uiso   1.00
C515   C     0.90318   0.83335   0.44633   0.00000  Uiso   1.00
C516   C     0.87628   0.84891   0.42555   0.00000  Uiso   1.00
F517   F     0.80264   0.84598   0.08582   0.00000  Uiso   1.00
F518   F     0.73253   0.86469   0.41967   0.00000  Uiso   1.00
F519   F     0.75163   0.81169   0.04652   0.00000  Uiso   1.00
F520   F     0.70187   0.84255   0.00506   0.00000  Uiso   1.00
F521   F     0.89424   0.87013   0.38811   0.00000  Uiso   1.00
F522   F     0.68661   0.87284   0.21188   0.00000  Uiso   1.00
H523   H     0.91525   0.77847   0.07339   0.00000  Uiso   1.00
H524   H     0.79211   0.99658   0.28571   0.00000  Uiso   1.00
H525   H     0.98815   0.78013   0.32027   0.00000  Uiso   1.00
H526   H     0.91159   0.98913   0.18363   0.00000  Uiso   1.00
H527   H     0.96149   0.84049   0.38948   0.00000  Uiso   1.00
H528   H     0.94943   0.76564   0.44773   0.00000  Uiso   1.00
O529   O     0.83333   0.83333   0.25000   0.00000  Uiso   1.00
O530   O     0.82118   0.79304   0.15458   0.00000  Uiso   1.00
O531   O     0.79607   0.87058   0.34968   0.00000  Uiso   1.00
O532   O     0.87491   0.84425   0.14606   0.00000  Uiso   1.00
O533   O     0.84118   0.82546   0.34968   0.00000  Uiso   1.00
O534   O     0.96267   0.75683   0.26969   0.00000  Uiso   1.00
O535   O     0.89349   0.71191   0.19418   0.00000  Uiso   1.00
O536   O     0.97496   0.85237   0.44887   0.00000  Uiso   1.00
O537   O     0.96917   0.76000   0.00186   0.00000  Uiso   1.00
O538   O     0.84597   0.74686   0.28213   0.00000  Uiso   1.00
O539   O     0.81298   0.92751   0.27013   0.00000  Uiso   1.00
O540   O     0.74078   0.79958   0.23413   0.00000  Uiso   1.00
O541   O     0.93360   0.85939   0.21360   0.00000  Uiso   1.00
O542   O     0.73738   0.85544   0.28213   0.00000  Uiso   1.00
O543   O     0.92158   0.81892   0.27013   0.00000  Uiso   1.00
O544   O     0.80426   0.73610   0.23413   0.00000  Uiso   1.00
O545   O     0.87012   0.92286   0.21360   0.00000  Uiso   1.00
Zn546  Zn    0.86005   0.80661   0.28734   0.00000  Uiso   1.00
Zn547  Zn    0.80046   0.79124   0.21875   0.00000  Uiso   1.00
Zn548  Zn    0.87723   0.86442   0.20657   0.00000  Uiso   1.00
Zn549  Zn    0.79560   0.87106   0.28733   0.00000  Uiso   1.00
C550   C     0.05315   0.15971   0.75920   0.00000  Uiso   1.00
C551   C     0.16724   0.15796   0.55999   0.00000  Uiso   1.00
C552   C     0.22990   0.12583   0.55620   0.00000  Uiso   1.00
C553   C     0.28075   0.17354   0.74003   0.00000  Uiso   1.00
C554   C     0.13674   0.18717   0.92014   0.00000  Uiso   1.00
C555   C     0.32619   0.17722   0.73807   0.00000  Uiso   1.00
C556   C     0.00808   0.15437   0.76296   0.00000  Uiso   1.00
C557   C     0.18277   0.32304   0.73569   0.00000  Uiso   1.00
C558   C     0.15312   0.01164   0.76232   0.00000  Uiso   1.00
C559   C     0.15558   0.05593   0.76072   0.00000  Uiso   1.00
C560   C     0.17712   0.27804   0.74000   0.00000  Uiso   1.00
C561   C     0.07766   0.17783   0.98580   0.00000  Uiso   1.00
C562   C     0.18561   0.14814   0.62940   0.00000  Uiso   1.00
C563   C     0.14877   0.18464   0.87079   0.00000  Uiso   1.00
C564   C     0.24292   0.12856   0.50970   0.00000  Uiso   1.00
C565   C     0.19353   0.14241   0.58111   0.00000  Uiso   1.00
C566   C     0.09366   0.18930   0.94206   0.00000  Uiso   1.00
C567   C     0.31741   0.11760   0.78740   0.00000  Uiso   1.00
C568   C     0.22115   0.00853   0.70208   0.00000  Uiso   1.00
C569   C     0.28302   0.17501   0.92569   0.00000  Uiso   1.00
C570   C     0.27833   0.10569   0.98356   0.00000  Uiso   1.00
C571   C     0.10421   0.16479   0.50852   0.00000  Uiso   1.00
C572   C     0.14894   0.16798   0.98965   0.00000  Uiso   1.00
C573   C     0.16522   0.17910   0.94472   0.00000  Uiso   1.00
C574   C     0.17756   0.15777   0.51296   0.00000  Uiso   1.00
C575   C     0.21933   0.15000   0.98880   0.00000  Uiso   1.00
C576   C     0.23652   0.16668   0.94633   0.00000  Uiso   1.00
C577   C     0.20962   0.18225   0.92555   0.00000  Uiso   1.00
F578   F     0.13598   0.17931   0.58582   0.00000  Uiso   1.00
F579   F     0.06587   0.19802   0.91967   0.00000  Uiso   1.00
F580   F     0.08496   0.14503   0.54652   0.00000  Uiso   1.00
F581   F     0.03520   0.17589   0.50506   0.00000  Uiso   1.00
F582   F     0.22757   0.20346   0.88811   0.00000  Uiso   1.00
F583   F     0.01994   0.20617   0.71188   0.00000  Uiso   1.00
H584   H     0.24858   0.11180   0.57339   0.00000  Uiso   1.00
H585   H     0.12544   0.32991   0.78571   0.00000  Uiso   1.00
H586   H     0.32148   0.11346   0.82027   0.00000  Uiso   1.00
H587   H     0.24492   0.32246   0.68363   0.00000  Uiso   1.00
H588   H     0.29483   0.17383   0.88948   0.00000  Uiso   1.00
H589   H     0.28276   0.09897   0.94773   0.00000  Uiso   1.00
O590   O     0.16667   0.16667   0.75000   0.00000  Uiso   1.00
O591   O     0.15451   0.12637   0.65458   0.00000  Uiso   1.00
O592   O     0.12940   0.20391   0.84968   0.00000  Uiso   1.00
O593   O     0.20824   0.17759   0.64606   0.00000  Uiso   1.00
O594   O     0.17451   0.15880   0.84968   0.00000  Uiso   1.00
O595   O     0.29601   0.09017   0.76969   0.00000  Uiso   1.00
O596   O     0.22683   0.04524   0.69418   0.00000  Uiso   1.00
O597   O     0.30829   0.18570   0.94887   0.00000  Uiso   1.00
O598   O     0.30250   0.09333   0.50186   0.00000  Uiso   1.00
O599   O     0.17930   0.08019   0.78213   0.00000  Uiso   1.00
O600   O     0.14632   0.26085   0.77013   0.00000  Uiso   1.00
O601   O     0.07412   0.13291   0.73413   0.00000  Uiso   1.00
O602   O     0.26693   0.19272   0.71360   0.00000  Uiso   1.00
O603   O     0.07071   0.18878   0.78213   0.00000  Uiso   1.00
O604   O     0.25491   0.15226   0.77013   0.00000  Uiso   1.00
O605   O     0.13760   0.06944   0.73413   0.00000  Uiso   1.00
O606   O     0.20345   0.25620   0.71360   0.00000  Uiso   1.00
Zn607  Zn    0.19338   0.13994   0.78734   0.00000  Uiso   1.00
Zn608  Zn    0.13379   0.12458   0.71875   0.00000  Uiso   1.00
Zn609  Zn    0.21056   0.19775   0.70657   0.00000  Uiso   1.00
Zn610  Zn    0.12893   0.20439   0.78733   0.00000  Uiso   1.00
C611   C     0.38648   0.15971   0.75920   0.00000  Uiso   1.00
C612   C     0.50057   0.15796   0.55999   0.00000  Uiso   1.00
C613   C     0.56323   0.12583   0.55620   0.00000  Uiso   1.00
C614   C     0.61409   0.17354   0.74003   0.00000  Uiso   1.00
C615   C     0.47007   0.18717   0.92014   0.00000  Uiso   1.00
C616   C     0.65952   0.17722   0.73807   0.00000  Uiso   1.00
C617   C     0.34141   0.15437   0.76296   0.00000  Uiso   1.00
C618   C     0.51610   0.32304   0.73569   0.00000  Uiso   1.00
C619   C     0.48646   0.01164   0.76232   0.00000  Uiso   1.00
C620   C     0.48891   0.05593   0.76072   0.00000  Uiso   1.00
C621   C     0.51045   0.27804   0.74000   0.00000  Uiso   1.00
C622   C     0.41099   0.17783   0.98580   0.00000  Uiso   1.00
C623   C     0.51895   0.14814   0.62940   0.00000  Uiso   1.00
C624   C     0.48211   0.18464   0.87079   0.00000  Uiso   1.00
C625   C     0.57625   0.12856   0.50970   0.00000  Uiso   1.00
C626   C     0.52686   0.14241   0.58111   0.00000  Uiso   1.00
C627   C     0.42699   0.18930   0.94206   0.00000  Uiso   1.00
C628   C     0.65074   0.11760   0.78740   0.00000  Uiso   1.00
C629   C     0.55448   0.00853   0.70208   0.00000  Uiso   1.00
C630   C     0.61636   0.17501   0.92569   0.00000  Uiso   1.00
C631   C     0.61166   0.10569   0.98356   0.00000  Uiso   1.00
C632   C     0.43754   0.16479   0.50852   0.00000  Uiso   1.00
C633   C     0.48227   0.16798   0.98965   0.00000  Uiso   1.00
C634   C     0.49856   0.17910   0.94472   0.00000  Uiso   1.00
C635   C     0.51090   0.15777   0.51296   0.00000  Uiso   1.00
C636   C     0.55267   0.15000   0.98880   0.00000  Uiso   1.00
C637   C     0.56985   0.16668   0.94633   0.00000  Uiso   1.00
C638   C     0.54295   0.18225   0.92555   0.00000  Uiso   1.00
F639   F     0.46931   0.17931   0.58582   0.00000  Uiso   1.00
F640   F     0.39920   0.19802   0.91967   0.00000  Uiso   1.00
F641   F     0.41830   0.14503   0.54652   0.00000  Uiso   1.00
F642   F     0.36854   0.17589   0.50506   0.00000  Uiso   1.00
F643   F     0.56090   0.20346   0.88811   0.00000  Uiso   1.00
F644   F     0.35328   0.20617   0.71188   0.00000  Uiso   1.00
H645   H     0.58191   0.11180   0.57339   0.00000  Uiso   1.00
H646   H     0.45877   0.32991   0.78571   0.00000  Uiso   1.00
H647   H     0.65482   0.11346   0.82027   0.00000  Uiso   1.00
H648   H     0.57825   0.32246   0.68363   0.00000  Uiso   1.00
H649   H     0.62816   0.17383   0.88948   0.00000  Uiso   1.00
H650   H     0.61609   0.09897   0.94773   0.00000  Uiso   1.00
O651   O     0.50000   0.16667   0.75000   0.00000  Uiso   1.00
O652   O     0.48784   0.12637   0.65458   0.00000  Uiso   1.00
O653   O     0.46274   0.20391   0.84968   0.00000  Uiso   1.00
O654   O     0.54157   0.17759   0.64606   0.00000  Uiso   1.00
O655   O     0.50785   0.15880   0.84968   0.00000  Uiso   1.00
O656   O     0.62934   0.09017   0.76969   0.00000  Uiso   1.00
O657   O     0.56016   0.04524   0.69418   0.00000  Uiso   1.00
O658   O     0.64163   0.18570   0.94887   0.00000  Uiso   1.00
O659   O     0.63583   0.09333   0.50186   0.00000  Uiso   1.00
O660   O     0.51264   0.08019   0.78213   0.00000  Uiso   1.00
O661   O     0.47965   0.26085   0.77013   0.00000  Uiso   1.00
O662   O     0.40745   0.13291   0.73413   0.00000  Uiso   1.00
O663   O     0.60026   0.19272   0.71360   0.00000  Uiso   1.00
O664   O     0.40405   0.18878   0.78213   0.00000  Uiso   1.00
O665   O     0.58824   0.15226   0.77013   0.00000  Uiso   1.00
O666   O     0.47093   0.06944   0.73413   0.00000  Uiso   1.00
O667   O     0.53678   0.25620   0.71360   0.00000  Uiso   1.00
Zn668  Zn    0.52672   0.13994   0.78734   0.00000  Uiso   1.00
Zn669  Zn    0.46713   0.12458   0.71875   0.00000  Uiso   1.00
Zn670  Zn    0.54389   0.19775   0.70657   0.00000  Uiso   1.00
Zn671  Zn    0.46226   0.20439   0.78733   0.00000  Uiso   1.00
C672   C     0.71981   0.15971   0.75920   0.00000  Uiso   1.00
C673   C     0.83390   0.15796   0.55999   0.00000  Uiso   1.00
C674   C     0.89656   0.12583   0.55620   0.00000  Uiso   1.00
C675   C     0.94742   0.17354   0.74003   0.00000  Uiso   1.00
C676   C     0.80340   0.18717   0.92014   0.00000  Uiso   1.00
C677   C     0.99285   0.17722   0.73807   0.00000  Uiso   1.00
C678   C     0.67474   0.15437   0.76296   0.00000  Uiso   1.00
C679   C     0.84943   0.32304   0.73569   0.00000  Uiso   1.00
C680   C     0.81979   0.01164   0.76232   0.00000  Uiso   1.00
C681   C     0.82224   0.05593   0.76072   0.00000  Uiso   1.00
C682   C     0.84378   0.27804   0.74000   0.00000  Uiso   1.00
C683   C     0.74432   0.17783   0.98580   0.00000  Uiso   1.00
C684   C     0.85228   0.14814   0.62940   0.00000  Uiso   1.00
C685   C     0.81544   0.18464   0.87079   0.00000  Uiso   1.00
C686   C     0.90958   0.12856   0.50970   0.00000  Uiso   1.00
C687   C     0.86020   0.14241   0.58111   0.00000  Uiso   1.00
C688   C     0.76032   0.18930   0.94206   0.00000  Uiso   1.00
C689   C     0.98408   0.11760   0.78740   0.00000  Uiso   1.00
C690   C     0.88781   0.00853   0.70208   0.00000  Uiso   1.00
C691   C     0.94969   0.17501   0.92569   0.00000  Uiso   1.00
C692   C     0.94500   0.10569   0.98356   0.00000  Uiso   1.00
C693   C     0.77087   0.16479   0.50852   0.00000  Uiso   1.00
C694   C     0.81560   0.16798   0.98965   0.00000  Uiso   1.00
C695   C     0.83189   0.17910   0.94472   0.00000  Uiso   1.00
C696   C     0.84423   0.15777   0.51296   0.00000  Uiso   1.00
C697   C     0.88600   0.15000   0.98880   0.00000  Uiso   1.00
C698   C     0.90318   0.16668   0.94633   0.00000  Uiso   1.00
C699   C     0.87628   0.18225   0.92555   0.00000  Uiso   1.00
F700   F     0.80264   0.17931   0.58582   0.00000  Uiso   1.00
F701   F     0.73253   0.19802   0.91967   0.00000  Uiso   1.00
F702   F     0.75163   0.14503   0.54652   0.00000  Uiso   1.00
F703   F     0.70187   0.17589   0.50506   0.00000  Uiso   1.00
F704   F     0.89424   0.20346   0.88811   0.00000  Uiso   1.00
F705   F     0.68661   0.20617   0.71188   0.00000  Uiso   1.00
H706   H     0.91525   0.11180   0.57339   0.00000  Uiso   1.00
H707   H     0.79211   0.32991   0.78571   0.00000  Uiso   1.00
H708   H     0.98815   0.11346   0.82027   0.00000  Uiso   1.00
H709   H     0.91159   0.32246   0.68363   0.00000  Uiso   1.00
H710   H     0.96149   0.17383   0.88948   0.00000  Uiso   1.00
H711   H     0.94943   0.09897   0.94773   0.00000  Uiso   1.00
O712   O     0.83333   0.16667   0.75000   0.00000  Uiso   1.00
O713   O     0.82118   0.12637   0.65458   0.00000  Uiso   1.00
O714   O     0.79607   0.20391   0.84968   0.00000  Uiso   1.00
O715   O     0.87491   0.17759   0.64606   0.00000  Uiso   1.00
O716   O     0.84118   0.15880   0.84968   0.00000  Uiso   1.00
O717   O     0.96267   0.09017   0.76969   0.00000  Uiso   1.00
O718   O     0.89349   0.04524   0.69418   0.00000  Uiso   1.00
O719   O     0.97496   0.18570   0.94887   0.00000  Uiso   1.00
O720   O     0.96917   0.09333   0.50186   0.00000  Uiso   1.00
O721   O     0.84597   0.08019   0.78213   0.00000  Uiso   1.00
O722   O     0.81298   0.26085   0.77013   0.00000  Uiso   1.00
O723   O     0.74078   0.13291   0.73413   0.00000  Uiso   1.00
O724   O     0.93360   0.19272   0.71360   0.00000  Uiso   1.00
O725   O     0.73738   0.18878   0.78213   0.00000  Uiso   1.00
O726   O     0.92158   0.15226   0.77013   0.00000  Uiso   1.00
O727   O     0.80426   0.06944   0.73413   0.00000  Uiso   1.00
O728   O     0.87012   0.25620   0.71360   0.00000  Uiso   1.00
Zn729  Zn    0.86005   0.13994   0.78734   0.00000  Uiso   1.00
Zn730  Zn    0.80046   0.12458   0.71875   0.00000  Uiso   1.00
Zn731  Zn    0.87723   0.19775   0.70657   0.00000  Uiso   1.00
Zn732  Zn    0.79560   0.20439   0.78733   0.00000  Uiso   1.00
C733   C     0.05315   0.49304   0.75920   0.00000  Uiso   1.00
C734   C     0.16724   0.49130   0.55999   0.00000  Uiso   1.00
C735   C     0.22990   0.45916   0.55620   0.00000  Uiso   1.00
C736   C     0.28075   0.50687   0.74003   0.00000  Uiso   1.00
C737   C     0.13674   0.52050   0.92014   0.00000  Uiso   1.00
C738   C     0.32619   0.51056   0.73807   0.00000  Uiso   1.00
C739   C     0.00808   0.48770   0.76296   0.00000  Uiso   1.00
C740   C     0.18277   0.65638   0.73569   0.00000  Uiso   1.00
C741   C     0.15312   0.34498   0.76232   0.00000  Uiso   1.00
C742   C     0.15558   0.38927   0.76072   0.00000  Uiso   1.00
C743   C     0.17712   0.61137   0.74000   0.00000  Uiso   1.00
C744   C     0.07766   0.51117   0.98580   0.00000  Uiso   1.00
C745   C     0.18561   0.48147   0.62940   0.00000  Uiso   1.00
C746   C     0.14877   0.51798   0.87079   0.00000  Uiso   1.00
C747   C     0.24292   0.46190   0.50970   0.00000  Uiso   1.00
C748   C     0.19353   0.47575   0.58111   0.00000  Uiso   1.00
C749   C     0.09366   0.52263   0.94206   0.00000  Uiso   1.00
C750   C     0.31741   0.45093   0.78740   0.00000  Uiso   1.00
C751   C     0.22115   0.34186   0.70208   0.00000  Uiso   1.00
C752   C     0.28302   0.50835   0.92569   0.00000  Uiso   1.00
C753   C     0.27833   0.43902   0.98356   0.00000  Uiso   1.00
C754   C     0.10421   0.49812   0.50852   0.00000  Uiso   1.00
C755   C     0.14894   0.50131   0.98965   0.00000  Uiso   1.00
C756   C     0.16522   0.51243   0.94472   0.00000  Uiso   1.00
C757   C     0.17756   0.49111   0.51296   0.00000  Uiso   1.00
C758   C     0.21933   0.48333   0.98880   0.00000  Uiso   1.00
C759   C     0.23652   0.50001   0.94633   0.00000  Uiso   1.00
C760   C     0.20962   0.51558   0.92555   0.00000  Uiso   1.00
F761   F     0.13598   0.51265   0.58582   0.00000  Uiso   1.00
F762   F     0.06587   0.53135   0.91967   0.00000  Uiso   1.00
F763   F     0.08496   0.47836   0.54652   0.00000  Uiso   1.00
F764   F     0.03520   0.50922   0.50506   0.00000  Uiso   1.00
F765   F     0.22757   0.53680   0.88811   0.00000  Uiso   1.00
F766   F     0.01994   0.53951   0.71188   0.00000  Uiso   1.00
H767   H     0.24858   0.44513   0.57339   0.00000  Uiso   1.00
H768   H     0.12544   0.66324   0.78571   0.00000  Uiso   1.00
H769   H     0.32148   0.44679   0.82027   0.00000  Uiso   1.00
H770   H     0.24492   0.65580   0.68363   0.00000  Uiso   1.00
H771   H     0.29483   0.50716   0.88948   0.00000  Uiso   1.00
H772   H     0.28276   0.43231   0.94773   0.00000  Uiso   1.00
O773   O     0.16667   0.50000   0.75000   0.00000  Uiso   1.00
O774   O     0.15451   0.45970   0.65458   0.00000  Uiso   1.00
O775   O     0.12940   0.53724   0.84968   0.00000  Uiso   1.00
O776   O     0.20824   0.51092   0.64606   0.00000  Uiso   1.00
O777   O     0.17451   0.49213   0.84968   0.00000  Uiso   1.00
O778   O     0.29601   0.42350   0.76969   0.00000  Uiso   1.00
O779   O     0.22683   0.37857   0.69418   0.00000  Uiso   1.00
O780   O     0.30829   0.51904   0.94887   0.00000  Uiso   1.00
O781   O     0.30250   0.42667   0.50186   0.00000  Uiso   1.00
O782   O     0.17930   0.41352   0.78213   0.00000  Uiso   1.00
O783   O     0.14632   0.59418   0.77013   0.00000  Uiso   1.00
O784   O     0.07412   0.46625   0.73413   0.00000  Uiso   1.00
O785   O     0.26693   0.52605   0.71360   0.00000  Uiso   1.00
O786   O     0.07071   0.52211   0.78213   0.00000  Uiso   1.00
O787   O     0.25491   0.48559   0.77013   0.00000  Uiso   1.00
O788   O     0.13760   0.40277   0.73413   0.00000  Uiso   1.00
O789   O     0.20345   0.58953   0.71360   0.00000  Uiso   1.00
Zn790  Zn    0.19338   0.47327   0.78734   0.00000  Uiso   1.00
Zn791  Zn    0.13379   0.45791   0.71875   0.00000  Uiso   1.00
Zn792  Zn    0.21056   0.53109   0.70657   0.00000  Uiso   1.00
Zn793  Zn    0.12893   0.53773   0.78733   0.00000  Uiso   1.00
C794   C     0.38648   0.49304   0.75920   0.00000  Uiso   1.00
C795   C     0.50057   0.49130   0.55999   0.00000  Uiso   1.00
C796   C     0.56323   0.45916   0.55620   0.00000  Uiso   1.00
C797   C     0.61409   0.50687   0.74003   0.00000  Uiso   1.00
C798   C     0.47007   0.52050   0.92014   0.00000  Uiso   1.00
C799   C     0.65952   0.51056   0.73807   0.00000  Uiso   1.00
C800   C     0.34141   0.48770   0.76296   0.00000  Uiso   1.00
C801   C     0.51610   0.65638   0.73569   0.00000  Uiso   1.00
C802   C     0.48646   0.34498   0.76232   0.00000  Uiso   1.00
C803   C     0.48891   0.38927   0.76072   0.00000  Uiso   1.00
C804   C     0.51045   0.61137   0.74000   0.00000  Uiso   1.00
C805   C     0.41099   0.51117   0.98580   0.00000  Uiso   1.00
C806   C     0.51895   0.48147   0.62940   0.00000  Uiso   1.00
C807   C     0.48211   0.51798   0.87079   0.00000  Uiso   1.00
C808   C     0.57625   0.46190   0.50970   0.00000  Uiso   1.00
C809   C     0.52686   0.47575   0.58111   0.00000  Uiso   1.00
C810   C     0.42699   0.52263   0.94206   0.00000  Uiso   1.00
C811   C     0.65074   0.45093   0.78740   0.00000  Uiso   1.00
C812   C     0.55448   0.34186   0.70208   0.00000  Uiso   1.00
C813   C     0.61636   0.50835   0.92569   0.00000  Uiso   1.00
C814   C     0.61166   0.43902   0.98356   0.00000  Uiso   1.00
C815   C     0.43754   0.49812   0.50852   0.00000  Uiso   1.00
C816   C     0.48227   0.50131   0.98965   0.00000  Uiso   1.00
C817   C     0.49856   0.51243   0.94472   0.00000  Uiso   1.00
C818   C     0.51090   0.49111   0.51296   0.00000  Uiso   1.00
C819   C     0.55267   0.48333   0.98880   0.00000  Uiso   1.00
C820   C     0.56985   0.50001   0.94633   0.00000  Uiso   1.00
C821   C     0.54295   0.51558   0.92555   0.00000  Uiso   1.00
F822   F     0.46931   0.51265   0.58582   0.00000  Uiso   1.00
F823   F     0.39920   0.53135   0.91967   0.00000  Uiso   1.00
F824   F     0.41830   0.47836   0.54652   0.00000  Uiso   1.00
F825   F     0.36854   0.50922   0.50506   0.00000  Uiso   1.00
F826   F     0.56090   0.53680   0.88811   0.00000  Uiso   1.00
F827   F     0.35328   0.53951   0.71188   0.00000  Uiso   1.00
H828   H     0.58191   0.44513   0.57339   0.00000  Uiso   1.00
H829   H     0.45877   0.66324   0.78571   0.00000  Uiso   1.00
H830   H     0.65482   0.44679   0.82027   0.00000  Uiso   1.00
H831   H     0.57825   0.65580   0.68363   0.00000  Uiso   1.00
H832   H     0.62816   0.50716   0.88948   0.00000  Uiso   1.00
H833   H     0.61609   0.43231   0.94773   0.00000  Uiso   1.00
O834   O     0.50000   0.50000   0.75000   0.00000  Uiso   1.00
O835   O     0.48784   0.45970   0.65458   0.00000  Uiso   1.00
O836   O     0.46274   0.53724   0.84968   0.00000  Uiso   1.00
O837   O     0.54157   0.51092   0.64606   0.00000  Uiso   1.00
O838   O     0.50785   0.49213   0.84968   0.00000  Uiso   1.00
O839   O     0.62934   0.42350   0.76969   0.00000  Uiso   1.00
O840   O     0.56016   0.37857   0.69418   0.00000  Uiso   1.00
O841   O     0.64163   0.51904   0.94887   0.00000  Uiso   1.00
O842   O     0.63583   0.42667   0.50186   0.00000  Uiso   1.00
O843   O     0.51264   0.41352   0.78213   0.00000  Uiso   1.00
O844   O     0.47965   0.59418   0.77013   0.00000  Uiso   1.00
O845   O     0.40745   0.46625   0.73413   0.00000  Uiso   1.00
O846   O     0.60026   0.52605   0.71360   0.00000  Uiso   1.00
O847   O     0.40405   0.52211   0.78213   0.00000  Uiso   1.00
O848   O     0.58824   0.48559   0.77013   0.00000  Uiso   1.00
O849   O     0.47093   0.40277   0.73413   0.00000  Uiso   1.00
O850   O     0.53678   0.58953   0.71360   0.00000  Uiso   1.00
Zn851  Zn    0.52672   0.47327   0.78734   0.00000  Uiso   1.00
Zn852  Zn    0.46713   0.45791   0.71875   0.00000  Uiso   1.00
Zn853  Zn    0.54389   0.53109   0.70657   0.00000  Uiso   1.00
Zn854  Zn    0.46226   0.53773   0.78733   0.00000  Uiso   1.00
C855   C     0.71981   0.49304   0.75920   0.00000  Uiso   1.00
C856   C     0.83390   0.49130   0.55999   0.00000  Uiso   1.00
C857   C     0.89656   0.45916   0.55620   0.00000  Uiso   1.00
C858   C     0.94742   0.50687   0.74003   0.00000  Uiso   1.00
C859   C     0.80340   0.52050   0.92014   0.00000  Uiso   1.00
C860   C     0.99285   0.51056   0.73807   0.00000  Uiso   1.00
C861   C     0.67474   0.48770   0.76296   0.00000  Uiso   1.00
C862   C     0.84943   0.65638   0.73569   0.00000  Uiso   1.00
C863   C     0.81979   0.34498   0.76232   0.00000  Uiso   1.00
C864   C     0.82224   0.38927   0.76072   0.00000  Uiso   1.00
C865   C     0.84378   0.61137   0.74000   0.00000  Uiso   1.00
C866   C     0.74432   0.51117   0.98580   0.00000  Uiso   1.00
C867   C     0.85228   0.48147   0.62940   0.00000  Uiso   1.00
C868   C     0.81544   0.51798   0.87079   0.00000  Uiso   1.00
C869   C     0.90958   0.46190   0.50970   0.00000  Uiso   1.00
C870   C     0.86020   0.47575   0.58111   0.00000  Uiso   1.00
C871   C     0.76032   0.52263   0.94206   0.00000  Uiso   1.00
C872   C     0.98408   0.45093   0.78740   0.00000  Uiso   1.00
C873   C     0.88781   0.34186   0.70208   0.00000  Uiso   1.00
C874   C     0.94969   0.50835   0.92569   0.00000  Uiso   1.00
C875   C     0.94500   0.43902   0.98356   0.00000  Uiso   1.00
C876   C     0.77087   0.49812   0.50852   0.00000  Uiso   1.00
C877   C     0.81560   0.50131   0.98965   0.00000  Uiso   1.00
C878   C     0.83189   0.51243   0.94472   0.00000  Uiso   1.00
C879   C     0.84423   0.49111   0.51296   0.00000  Uiso   1.00
C880   C     0.88600   0.48333   0.98880   0.00000  Uiso   1.00
C881   C     0.90318   0.50001   0.94633   0.00000  Uiso   1.00
C882   C     0.87628   0.51558   0.92555   0.00000  Uiso   1.00
F883   F     0.80264   0.51265   0.58582   0.00000  Uiso   1.00
F884   F     0.73253   0.53135   0.91967   0.00000  Uiso   1.00
F885   F     0.75163   0.47836   0.54652   0.00000  Uiso   1.00
F886   F     0.70187   0.50922   0.50506   0.00000  Uiso   1.00
F887   F     0.89424   0.53680   0.88811   0.00000  Uiso   1.00
F888   F     0.68661   0.53951   0.71188   0.00000  Uiso   1.00
H889   H     0.91525   0.44513   0.57339   0.00000  Uiso   1.00
H890   H     0.79211   0.66324   0.78571   0.00000  Uiso   1.00
H891   H     0.98815   0.44679   0.82027   0.00000  Uiso   1.00
H892   H     0.91159   0.65580   0.68363   0.00000  Uiso   1.00
H893   H     0.96149   0.50716   0.88948   0.00000  Uiso   1.00
H894   H     0.94943   0.43231   0.94773   0.00000  Uiso   1.00
O895   O     0.83333   0.50000   0.75000   0.00000  Uiso   1.00
O896   O     0.82118   0.45970   0.65458   0.00000  Uiso   1.00
O897   O     0.79607   0.53724   0.84968   0.00000  Uiso   1.00
O898   O     0.87491   0.51092   0.64606   0.00000  Uiso   1.00
O899   O     0.84118   0.49213   0.84968   0.00000  Uiso   1.00
O900   O     0.96267   0.42350   0.76969   0.00000  Uiso   1.00
O901   O     0.89349   0.37857   0.69418   0.00000  Uiso   1.00
O902   O     0.97496   0.51904   0.94887   0.00000  Uiso   1.00
O903   O     0.96917   0.42667   0.50186   0.00000  Uiso   1.00
O904   O     0.84597   0.41352   0.78213   0.00000  Uiso   1.00
O905   O     0.81298   0.59418   0.77013   0.00000  Uiso   1.00
O906   O     0.74078   0.46625   0.73413   0.00000  Uiso   1.00
O907   O     0.93360   0.52605   0.71360   0.00000  Uiso   1.00
O908   O     0.73738   0.52211   0.78213   0.00000  Uiso   1.00
O909   O     0.92158   0.48559   0.77013   0.00000  Uiso   1.00
O910   O     0.80426   0.40277   0.73413   0.00000  Uiso   1.00
O911   O     0.87012   0.58953   0.71360   0.00000  Uiso   1.00
Zn912  Zn    0.86005   0.47327   0.78734   0.00000  Uiso   1.00
Zn913  Zn    0.80046   0.45791   0.71875   0.00000  Uiso   1.00
Zn914  Zn    0.87723   0.53109   0.70657   0.00000  Uiso   1.00
Zn915  Zn    0.79560   0.53773   0.78733   0.00000  Uiso   1.00
C916   C     0.05315   0.82638   0.75920   0.00000  Uiso   1.00
C917   C     0.16724   0.82463   0.55999   0.00000  Uiso   1.00
C918   C     0.22990   0.79250   0.55620   0.00000  Uiso   1.00
C919   C     0.28075   0.84020   0.74003   0.00000  Uiso   1.00
C920   C     0.13674   0.85383   0.92014   0.00000  Uiso   1.00
C921   C     0.32619   0.84389   0.73807   0.00000  Uiso   1.00
C922   C     0.00808   0.82103   0.76296   0.00000  Uiso   1.00
C923   C     0.18277   0.98971   0.73569   0.00000  Uiso   1.00
C924   C     0.15312   0.67831   0.76232   0.00000  Uiso   1.00
C925   C     0.15558   0.72260   0.76072   0.00000  Uiso   1.00
C926   C     0.17712   0.94470   0.74000   0.00000  Uiso   1.00
C927   C     0.07766   0.84450   0.98580   0.00000  Uiso   1.00
C928   C     0.18561   0.81480   0.62940   0.00000  Uiso   1.00
C929   C     0.14877   0.85131   0.87079   0.00000  Uiso   1.00
C930   C     0.24292   0.79523   0.50970   0.00000  Uiso   1.00
C931   C     0.19353   0.80908   0.58111   0.00000  Uiso   1.00
C932   C     0.09366   0.85596   0.94206   0.00000  Uiso   1.00
C933   C     0.31741   0.78427   0.78740   0.00000  Uiso   1.00
C934   C     0.22115   0.67520   0.70208   0.00000  Uiso   1.00
C935   C     0.28302   0.84168   0.92569   0.00000  Uiso   1.00
C936   C     0.27833   0.77235   0.98356   0.00000  Uiso   1.00
C937   C     0.10421   0.83146   0.50852   0.00000  Uiso   1.00
C938   C     0.14894   0.83464   0.98965   0.00000  Uiso   1.00
C939   C     0.16522   0.84576   0.94472   0.00000  Uiso   1.00
C940   C     0.17756   0.82444   0.51296   0.00000  Uiso   1.00
C941   C     0.21933   0.81666   0.98880   0.00000  Uiso   1.00
C942   C     0.23652   0.83335   0.94633   0.00000  Uiso   1.00
C943   C     0.20962   0.84891   0.92555   0.00000  Uiso   1.00
F944   F     0.13598   0.84598   0.58582   0.00000  Uiso   1.00
F945   F     0.06587   0.86469   0.91967   0.00000  Uiso   1.00
F946   F     0.08496   0.81169   0.54652   0.00000  Uiso   1.00
F947   F     0.03520   0.84255   0.50506   0.00000  Uiso   1.00
F948   F     0.22757   0.87013   0.88811   0.00000  Uiso   1.00
F949   F     0.01994   0.87284   0.71188   0.00000  Uiso   1.00
H950   H     0.24858   0.77847   0.57339   0.00000  Uiso   1.00
H951   H     0.12544   0.99658   0.78571   0.00000  Uiso   1.00
H952   H     0.32148   0.78013   0.82027   0.00000  Uiso   1.00
H953   H     0.24492   0.98913   0.68363   0.00000  Uiso   1.00
H954   H     0.29483   0.84049   0.88948   0.00000  Uiso   1.00
H955   H     0.28276   0.76564   0.94773   0.00000  Uiso   1.00
O956   O     0.16667   0.83333   0.75000   0.00000  Uiso   1.00
O957   O     0.15451   0.79304   0.65458   0.00000  Uiso   1.00
O958   O     0.12940   0.87058   0.84968   0.00000  Uiso   1.00
O959   O     0.20824   0.84425   0.64606   0.00000  Uiso   1.00
O960   O     0.17451   0.82546   0.84968   0.00000  Uiso   1.00
O961   O     0.29601   0.75683   0.76969   0.00000  Uiso   1.00
O962   O     0.22683   0.71191   0.69418   0.00000  Uiso   1.00
O963   O     0.30829   0.85237   0.94887   0.00000  Uiso   1.00
O964   O     0.30250   0.76000   0.50186   0.00000  Uiso   1.00
O965   O     0.17930   0.74686   0.78213   0.00000  Uiso   1.00
O966   O     0.14632   0.92751   0.77013   0.00000  Uiso   1.00
O967   O     0.07412   0.79958   0.73413   0.00000  Uiso   1.00
O968   O     0.26693   0.85939   0.71360   0.00000  Uiso   1.00
O969   O     0.07071   0.85544   0.78213   0.00000  Uiso   1.00
O970   O     0.25491   0.81892   0.77013   0.00000  Uiso   1.00
O971   O     0.13760   0.73610   0.73413   0.00000  Uiso   1.00
O972   O     0.20345   0.92286   0.71360   0.00000  Uiso   1.00
Zn973  Zn    0.19338   0.80661   0.78734   0.00000  Uiso   1.00
Zn974  Zn    0.13379   0.79124   0.71875   0.00000  Uiso   1.00
Zn975  Zn    0.21056   0.86442   0.70657   0.00000  Uiso   1.00
Zn976  Zn    0.12893   0.87106   0.78733   0.00000  Uiso   1.00
C977   C     0.38648   0.82638   0.75920   0.00000  Uiso   1.00
C978   C     0.50057   0.82463   0.55999   0.00000  Uiso   1.00
C979   C     0.56323   0.79250   0.55620   0.00000  Uiso   1.00
C980   C     0.61409   0.84020   0.74003   0.00000  Uiso   1.00
C981   C     0.47007   0.85383   0.92014   0.00000  Uiso   1.00
C982   C     0.65952   0.84389   0.73807   0.00000  Uiso   1.00
C983   C     0.34141   0.82103   0.76296   0.00000  Uiso   1.00
C984   C     0.51610   0.98971   0.73569   0.00000  Uiso   1.00
C985   C     0.48646   0.67831   0.76232   0.00000  Uiso   1.00
C986   C     0.48891   0.72260   0.76072   0.00000  Uiso   1.00
C987   C     0.51045   0.94470   0.74000   0.00000  Uiso   1.00
C988   C     0.41099   0.84450   0.98580   0.00000  Uiso   1.00
C989   C     0.51895   0.81480   0.62940   0.00000  Uiso   1.00
C990   C     0.48211   0.85131   0.87079   0.00000  Uiso   1.00
C991   C     0.57625   0.79523   0.50970   0.00000  Uiso   1.00
C992   C     0.52686   0.80908   0.58111   0.00000  Uiso   1.00
C993   C     0.42699   0.85596   0.94206   0.00000  Uiso   1.00
C994   C     0.65074   0.78427   0.78740   0.00000  Uiso   1.00
C995   C     0.55448   0.67520   0.70208   0.00000  Uiso   1.00
C996   C     0.61636   0.84168   0.92569   0.00000  Uiso   1.00
C997   C     0.61166   0.77235   0.98356   0.00000  Uiso   1.00
C998   C     0.43754   0.83146   0.50852   0.00000  Uiso   1.00
C999   C     0.48227   0.83464   0.98965   0.00000  Uiso   1.00
C1000  C     0.49856   0.84576   0.94472   0.00000  Uiso   1.00
C1001  C     0.51090   0.82444   0.51296   0.00000  Uiso   1.00
C1002  C     0.55267   0.81666   0.98880   0.00000  Uiso   1.00
C1003  C     0.56985   0.83335   0.94633   0.00000  Uiso   1.00
C1004  C     0.54295   0.84891   0.92555   0.00000  Uiso   1.00
F1005  F     0.46931   0.84598   0.58582   0.00000  Uiso   1.00
F1006  F     0.39920   0.86469   0.91967   0.00000  Uiso   1.00
F1007  F     0.41830   0.81169   0.54652   0.00000  Uiso   1.00
F1008  F     0.36854   0.84255   0.50506   0.00000  Uiso   1.00
F1009  F     0.56090   0.87013   0.88811   0.00000  Uiso   1.00
F1010  F     0.35328   0.87284   0.71188   0.00000  Uiso   1.00
H1011  H     0.58191   0.77847   0.57339   0.00000  Uiso   1.00
H1012  H     0.45877   0.99658   0.78571   0.00000  Uiso   1.00
H1013  H     0.65482   0.78013   0.82027   0.00000  Uiso   1.00
H1014  H     0.57825   0.98913   0.68363   0.00000  Uiso   1.00
H1015  H     0.62816   0.84049   0.88948   0.00000  Uiso   1.00
H1016  H     0.61609   0.76564   0.94773   0.00000  Uiso   1.00
O1017  O     0.50000   0.83333   0.75000   0.00000  Uiso   1.00
O1018  O     0.48784   0.79304   0.65458   0.00000  Uiso   1.00
O1019  O     0.46274   0.87058   0.84968   0.00000  Uiso   1.00
O1020  O     0.54157   0.84425   0.64606   0.00000  Uiso   1.00
O1021  O     0.50785   0.82546   0.84968   0.00000  Uiso   1.00
O1022  O     0.62934   0.75683   0.76969   0.00000  Uiso   1.00
O1023  O     0.56016   0.71191   0.69418   0.00000  Uiso   1.00
O1024  O     0.64163   0.85237   0.94887   0.00000  Uiso   1.00
O1025  O     0.63583   0.76000   0.50186   0.00000  Uiso   1.00
O1026  O     0.51264   0.74686   0.78213   0.00000  Uiso   1.00
O1027  O     0.47965   0.92751   0.77013   0.00000  Uiso   1.00
O1028  O     0.40745   0.79958   0.73413   0.00000  Uiso   1.00
O1029  O     0.60026   0.85939   0.71360   0.00000  Uiso   1.00
O1030  O     0.40405   0.85544   0.78213   0.00000  Uiso   1.00
O1031  O     0.58824   0.81892   0.77013   0.00000  Uiso   1.00
O1032  O     0.47093   0.73610   0.73413   0.00000  Uiso   1.00
O1033  O     0.53678   0.92286   0.71360   0.00000  Uiso   1.00
Zn1034 Zn    0.52672   0.80661   0.78734   0.00000  Uiso   1.00
Zn1035 Zn    0.46713   0.79124   0.71875   0.00000  Uiso   1.00
Zn1036 Zn    0.54389   0.86442   0.70657   0.00000  Uiso   1.00
Zn1037 Zn    0.46226   0.87106   0.78733   0.00000  Uiso   1.00
C1038  C     0.71981   0.82638   0.75920   0.00000  Uiso   1.00
C1039  C     0.83390   0.82463   0.55999   0.00000  Uiso   1.00
C1040  C     0.89656   0.79250   0.55620   0.00000  Uiso   1.00
C1041  C     0.94742   0.84020   0.74003   0.00000  Uiso   1.00
C1042  C     0.80340   0.85383   0.92014   0.00000  Uiso   1.00
C1043  C     0.99285   0.84389   0.73807   0.00000  Uiso   1.00
C1044  C     0.67474   0.82103   0.76296   0.00000  Uiso   1.00
C1045  C     0.84943   0.98971   0.73569   0.00000  Uiso   1.00
C1046  C     0.81979   0.67831   0.76232   0.00000  Uiso   1.00
C1047  C     0.82224   0.72260   0.76072   0.00000  Uiso   1.00
C1048  C     0.84378   0.94470   0.74000   0.00000  Uiso   1.00
C1049  C     0.74432   0.84450   0.98580   0.00000  Uiso   1.00
C1050  C     0.85228   0.81480   0.62940   0.00000  Uiso   1.00
C1051  C     0.81544   0.85131   0.87079   0.00000  Uiso   1.00
C1052  C     0.90958   0.79523   0.50970   0.00000  Uiso   1.00
C1053  C     0.86020   0.80908   0.58111   0.00000  Uiso   1.00
C1054  C     0.76032   0.85596   0.94206   0.00000  Uiso   1.00
C1055  C     0.98408   0.78427   0.78740   0.00000  Uiso   1.00
C1056  C     0.88781   0.67520   0.70208   0.00000  Uiso   1.00
C1057  C     0.94969   0.84168   0.92569   0.00000  Uiso   1.00
C1058  C     0.94500   0.77235   0.98356   0.00000  Uiso   1.00
C1059  C     0.77087   0.83146   0.50852   0.00000  Uiso   1.00
C1060  C     0.81560   0.83464   0.98965   0.00000  Uiso   1.00
C1061  C     0.83189   0.84576   0.94472   0.00000  Uiso   1.00
C1062  C     0.84423   0.82444   0.51296   0.00000  Uiso   1.00
C1063  C     0.88600   0.81666   0.98880   0.00000  Uiso   1.00
C1064  C     0.90318   0.83335   0.94633   0.00000  Uiso   1.00
C1065  C     0.87628   0.84891   0.92555   0.00000  Uiso   1.00
F1066  F     0.80264   0.84598   0.58582   0.00000  Uiso   1.00
F1067  F     0.73253   0.86469   0.91967   0.00000  Uiso   1.00
F1068  F     0.75163   0.81169   0.54652   0.00000  Uiso   1.00
F1069  F     0.70187   0.84255   0.50506   0.00000  Uiso   1.00
F1070  F     0.89424   0.87013   0.88811   0.00000  Uiso   1.00
F1071  F     0.68661   0.87284   0.71188   0.00000  Uiso   1.00
H1072  H     0.91525   0.77847   0.57339   0.00000  Uiso   1.00
H1073  H     0.79211   0.99658   0.78571   0.00000  Uiso   1.00
H1074  H     0.98815   0.78013   0.82027   0.00000  Uiso   1.00
H1075  H     0.91159   0.98913   0.68363   0.00000  Uiso   1.00
H1076  H     0.96149   0.84049   0.88948   0.00000  Uiso   1.00
H1077  H     0.94943   0.76564   0.94773   0.00000  Uiso   1.00
O1078  O     0.83333   0.83333   0.75000   0.00000  Uiso   1.00
O1079  O     0.82118   0.79304   0.65458   0.00000  Uiso   1.00
O1080  O     0.79607   0.87058   0.84968   0.00000  Uiso   1.00
O1081  O     0.87491   0.84425   0.64606   0.00000  Uiso   1.00
O1082  O     0.84118   0.82546   0.84968   0.00000  Uiso   1.00
O1083  O     0.96267   0.75683   0.76969   0.00000  Uiso   1.00
O1084  O     0.89349   0.71191   0.69418   0.00000  Uiso   1.00
O1085  O     0.97496   0.85237   0.94887   0.00000  Uiso   1.00
O1086  O     0.96917   0.76000   0.50186   0.00000  Uiso   1.00
O1087  O     0.84597   0.74686   0.78213   0.00000  Uiso   1.00
O1088  O     0.81298   0.92751   0.77013   0.00000  Uiso   1.00
O1089  O     0.74078   0.79958   0.73413   0.00000  Uiso   1.00
O1090  O     0.93360   0.85939   0.71360   0.00000  Uiso   1.00
O1091  O     0.73738   0.85544   0.78213   0.00000  Uiso   1.00
O1092  O     0.92158   0.81892   0.77013   0.00000  Uiso   1.00
O1093  O     0.80426   0.73610   0.73413   0.00000  Uiso   1.00
O1094  O     0.87012   0.92286   0.71360   0.00000  Uiso   1.00
Zn1095 Zn    0.86005   0.80661   0.78734   0.00000  Uiso   1.00
Zn1096 Zn    0.80046   0.79124   0.71875   0.00000  Uiso   1.00
Zn1097 Zn    0.87723   0.86442   0.70657   0.00000  Uiso   1.00
Zn1098 Zn    0.79560   0.87106   0.78733   0.00000  Uiso   1.00
loop_
_geom_bond_atom_site_label_1
_geom_bond_atom_site_label_2
_geom_bond_distance
_geom_bond_site_symmetry_2
_ccdc_geom_bond_type
C1     O54     1.278   .     A
C1     O52     1.266   .     A
C1     C7      1.434   .     S
C2     C16     1.388   .     A
C2     F29     1.360   .     S
C2     C25     1.407   .     A
C3     H35     1.084   .     S
C3     C15     1.400   .     A
C3     C16     1.393   .     A
C4     O53     1.286   .     A
C4     O55     1.267   .     A
C4     C6      1.460   .     S
C5     C14     1.473   .     S
C5     C24     1.418   .     A
C5     C17     1.406   .     A
C6     C68     1.355   .     S
C6     F95     1.363   .     S
C7     C128    1.355   1_455 S
C7     C140    1.486   1_455 S
C8     C11     1.463   .     S
C8     C192    1.344   .     S
C8     C202    1.500   .     S
C9     C10     1.437   .     S
C9     C374    1.344   1_545 S
C9     H402    1.086   1_545 S
C10    O56     1.277   .     A
C10    O50     1.278   .     A
C11    O57     1.272   .     A
C11    O51     1.282   .     A
C12    C17     1.387   .     A
C12    C571    1.390   .     S
C12    F581    1.357   .     S
C13    O42     1.274   .     A
C13    C16     1.447   .     S
C13    O44     1.268   .     A
C14    O45     1.290   .     A
C14    O43     1.285   .     A
C15    C570    1.486   1_554 S
C15    C575    1.424   1_554 S
C17    F30     1.358   .     S
C18    O46     1.221   .     D
C18    H37     1.085   .     S
C18    C68     1.486   .     S
C19    O47     1.221   .     D
C19    C374    1.500   1_545 S
C19    H404    1.085   1_545 S
C20    O48     1.220   .     D
C20    C27     1.484   .     S
C20    H39     1.086   .     S
C21    H40     1.085   .     S
C21    C564    1.486   .     S
C21    O598    1.221   .     S
C22    F31     1.357   .     S
C22    C561    1.390   1_554 S
C22    C572    1.420   1_554 S
C23    C24     1.418   .     A
C23    C571    1.420   .     S
C23    C574    1.419   .     S
C24    C28     1.412   .     A
C25    C572    1.419   1_554 S
C25    C575    1.425   1_554 S
C26    C27     1.418   .     A
C26    C564    1.424   .     S
C26    C574    1.425   .     S
C27    C28     1.398   .     A
C28    F33     1.361   .     S
F32    C561    1.357   1_554 S
F34    C128    1.363   1_455 S
H36    C192    1.086   .     S
H38    C202    1.085   .     S
O41    Zn61    1.950   .     S
O41    Zn58    1.960   .     S
O41    Zn59    1.943   .     S
O41    Zn60    1.929   .     S
O42    Zn59    1.930   .     S
O43    Zn61    1.937   .     S
O44    Zn60    1.937   .     S
O45    Zn58    1.933   .     S
O49    C570    1.221   1_554 S
O50    Zn58    1.927   .     S
O51    Zn61    1.925   .     S
O52    Zn59    1.943   .     S
O53    Zn60    1.949   .     S
O54    Zn61    1.939   .     S
O55    Zn58    1.933   .     S
O56    Zn59    1.935   .     S
O57    Zn60    1.935   .     S
C62    O115    1.278   .     A
C62    O113    1.266   .     A
C62    C68     1.434   .     S
C63    C77     1.388   .     A
C63    F90     1.360   .     S
C63    C86     1.407   .     A
C64    H96     1.084   .     S
C64    C76     1.400   .     A
C64    C77     1.393   .     A
C65    O114    1.286   .     A
C65    O116    1.267   .     A
C65    C67     1.460   .     S
C66    C75     1.473   .     S
C66    C85     1.418   .     A
C66    C78     1.406   .     A
C67    C129    1.355   .     S
C67    F156    1.363   .     S
C69    C72     1.463   .     S
C69    C253    1.344   .     S
C69    C263    1.500   .     S
C70    C71     1.437   .     S
C70    C435    1.344   1_545 S
C70    H463    1.086   1_545 S
C71    O117    1.277   .     A
C71    O111    1.278   .     A
C72    O118    1.272   .     A
C72    O112    1.282   .     A
C73    C78     1.387   .     A
C73    C632    1.390   .     S
C73    F642    1.357   .     S
C74    O103    1.274   .     A
C74    C77     1.447   .     S
C74    O105    1.268   .     A
C75    O106    1.290   .     A
C75    O104    1.285   .     A
C76    C631    1.486   1_554 S
C76    C636    1.424   1_554 S
C78    F91     1.358   .     S
C79    O107    1.221   .     D
C79    H98     1.085   .     S
C79    C129    1.486   .     S
C80    O108    1.221   .     D
C80    C435    1.500   1_545 S
C80    H465    1.085   1_545 S
C81    O109    1.220   .     D
C81    C88     1.484   .     S
C81    H100    1.086   .     S
C82    H101    1.085   .     S
C82    C625    1.486   .     S
C82    O659    1.221   .     S
C83    F92     1.357   .     S
C83    C622    1.390   1_554 S
C83    C633    1.420   1_554 S
C84    C85     1.418   .     A
C84    C632    1.420   .     S
C84    C635    1.419   .     S
C85    C89     1.412   .     A
C86    C633    1.419   1_554 S
C86    C636    1.425   1_554 S
C87    C88     1.418   .     A
C87    C625    1.424   .     S
C87    C635    1.425   .     S
C88    C89     1.398   .     A
C89    F94     1.361   .     S
F93    C622    1.357   1_554 S
H97    C253    1.086   .     S
H99    C263    1.085   .     S
O102   Zn122   1.950   .     S
O102   Zn119   1.960   .     S
O102   Zn120   1.943   .     S
O102   Zn121   1.929   .     S
O103   Zn120   1.930   .     S
O104   Zn122   1.937   .     S
O105   Zn121   1.937   .     S
O106   Zn119   1.933   .     S
O110   C631    1.221   1_554 S
O111   Zn119   1.927   .     S
O112   Zn122   1.925   .     S
O113   Zn120   1.943   .     S
O114   Zn121   1.949   .     S
O115   Zn122   1.939   .     S
O116   Zn119   1.933   .     S
O117   Zn120   1.935   .     S
O118   Zn121   1.935   .     S
C123   O176    1.278   .     A
C123   O174    1.266   .     A
C123   C129    1.434   .     S
C124   C138    1.388   .     A
C124   F151    1.360   .     S
C124   C147    1.407   .     A
C125   H157    1.084   .     S
C125   C137    1.400   .     A
C125   C138    1.393   .     A
C126   O175    1.286   .     A
C126   O177    1.267   .     A
C126   C128    1.460   .     S
C127   C136    1.473   .     S
C127   C146    1.418   .     A
C127   C139    1.406   .     A
C128   C7      1.355   1_655 S
C128   F34     1.363   1_655 S
C130   C133    1.463   .     S
C130   C314    1.344   .     S
C130   C324    1.500   .     S
C131   C132    1.437   .     S
C131   C496    1.344   1_545 S
C131   H524    1.086   1_545 S
C132   O178    1.277   .     A
C132   O172    1.278   .     A
C133   O179    1.272   .     A
C133   O173    1.282   .     A
C134   C139    1.387   .     A
C134   C693    1.390   .     S
C134   F703    1.357   .     S
C135   O164    1.274   .     A
C135   C138    1.447   .     S
C135   O166    1.268   .     A
C136   O167    1.290   .     A
C136   O165    1.285   .     A
C137   C692    1.486   1_554 S
C137   C697    1.424   1_554 S
C139   F152    1.358   .     S
C140   O168    1.221   .     D
C140   H159    1.085   .     S
C140   C7      1.486   1_655 S
C141   O169    1.221   .     D
C141   C496    1.500   1_545 S
C141   H526    1.085   1_545 S
C142   O170    1.220   .     D
C142   C149    1.484   .     S
C142   H161    1.086   .     S
C143   H162    1.085   .     S
C143   C686    1.486   .     S
C143   O720    1.221   .     S
C144   F153    1.357   .     S
C144   C683    1.390   1_554 S
C144   C694    1.420   1_554 S
C145   C146    1.418   .     A
C145   C693    1.420   .     S
C145   C696    1.419   .     S
C146   C150    1.412   .     A
C147   C694    1.419   1_554 S
C147   C697    1.425   1_554 S
C148   C149    1.418   .     A
C148   C686    1.424   .     S
C148   C696    1.425   .     S
C149   C150    1.398   .     A
C150   F155    1.361   .     S
F154   C683    1.357   1_554 S
H158   C314    1.086   .     S
H160   C324    1.085   .     S
O163   Zn183   1.950   .     S
O163   Zn180   1.960   .     S
O163   Zn181   1.943   .     S
O163   Zn182   1.929   .     S
O164   Zn181   1.930   .     S
O165   Zn183   1.937   .     S
O166   Zn182   1.937   .     S
O167   Zn180   1.933   .     S
O171   C692    1.221   1_554 S
O172   Zn180   1.927   .     S
O173   Zn183   1.925   .     S
O174   Zn181   1.943   .     S
O175   Zn182   1.949   .     S
O176   Zn183   1.939   .     S
O177   Zn180   1.933   .     S
O178   Zn181   1.935   .     S
O179   Zn182   1.935   .     S
C184   O237    1.278   .     A
C184   O235    1.266   .     A
C184   C190    1.434   .     S
C185   C199    1.388   .     A
C185   F212    1.360   .     S
C185   C208    1.407   .     A
C186   H218    1.084   .     S
C186   C198    1.400   .     A
C186   C199    1.393   .     A
C187   O236    1.286   .     A
C187   O238    1.267   .     A
C187   C189    1.460   .     S
C188   C197    1.473   .     S
C188   C207    1.418   .     A
C188   C200    1.406   .     A
C189   C251    1.355   .     S
C189   F278    1.363   .     S
C190   C311    1.355   1_455 S
C190   C323    1.486   1_455 S
C191   C194    1.463   .     S
C191   C375    1.344   .     S
C191   C385    1.500   .     S
C192   C193    1.437   .     S
C193   O239    1.277   .     A
C193   O233    1.278   .     A
C194   O240    1.272   .     A
C194   O234    1.282   .     A
C195   C200    1.387   .     A
C195   C754    1.390   .     S
C195   F764    1.357   .     S
C196   O225    1.274   .     A
C196   C199    1.447   .     S
C196   O227    1.268   .     A
C197   O228    1.290   .     A
C197   O226    1.285   .     A
C198   C753    1.486   1_554 S
C198   C758    1.424   1_554 S
C200   F213    1.358   .     S
C201   O229    1.221   .     D
C201   H220    1.085   .     S
C201   C251    1.486   .     S
C202   O230    1.221   .     D
C203   O231    1.220   .     D
C203   C210    1.484   .     S
C203   H222    1.086   .     S
C204   H223    1.085   .     S
C204   C747    1.486   .     S
C204   O781    1.221   .     S
C205   F214    1.357   .     S
C205   C744    1.390   1_554 S
C205   C755    1.420   1_554 S
C206   C207    1.418   .     A
C206   C754    1.420   .     S
C206   C757    1.419   .     S
C207   C211    1.412   .     A
C208   C755    1.419   1_554 S
C208   C758    1.425   1_554 S
C209   C210    1.418   .     A
C209   C747    1.424   .     S
C209   C757    1.425   .     S
C210   C211    1.398   .     A
C211   F216    1.361   .     S
F215   C744    1.357   1_554 S
F217   C311    1.363   1_455 S
H219   C375    1.086   .     S
H221   C385    1.085   .     S
O224   Zn244   1.950   .     S
O224   Zn241   1.960   .     S
O224   Zn242   1.943   .     S
O224   Zn243   1.929   .     S
O225   Zn242   1.930   .     S
O226   Zn244   1.937   .     S
O227   Zn243   1.937   .     S
O228   Zn241   1.933   .     S
O232   C753    1.221   1_554 S
O233   Zn241   1.927   .     S
O234   Zn244   1.925   .     S
O235   Zn242   1.943   .     S
O236   Zn243   1.949   .     S
O237   Zn244   1.939   .     S
O238   Zn241   1.933   .     S
O239   Zn242   1.935   .     S
O240   Zn243   1.935   .     S
C245   O298    1.278   .     A
C245   O296    1.266   .     A
C245   C251    1.434   .     S
C246   C260    1.388   .     A
C246   F273    1.360   .     S
C246   C269    1.407   .     A
C247   H279    1.084   .     S
C247   C259    1.400   .     A
C247   C260    1.393   .     A
C248   O297    1.286   .     A
C248   O299    1.267   .     A
C248   C250    1.460   .     S
C249   C258    1.473   .     S
C249   C268    1.418   .     A
C249   C261    1.406   .     A
C250   C312    1.355   .     S
C250   F339    1.363   .     S
C252   C255    1.463   .     S
C252   C436    1.344   .     S
C252   C446    1.500   .     S
C253   C254    1.437   .     S
C254   O300    1.277   .     A
C254   O294    1.278   .     A
C255   O301    1.272   .     A
C255   O295    1.282   .     A
C256   C261    1.387   .     A
C256   C815    1.390   .     S
C256   F825    1.357   .     S
C257   O286    1.274   .     A
C257   C260    1.447   .     S
C257   O288    1.268   .     A
C258   O289    1.290   .     A
C258   O287    1.285   .     A
C259   C814    1.486   1_554 S
C259   C819    1.424   1_554 S
C261   F274    1.358   .     S
C262   O290    1.221   .     D
C262   H281    1.085   .     S
C262   C312    1.486   .     S
C263   O291    1.221   .     D
C264   O292    1.220   .     D
C264   C271    1.484   .     S
C264   H283    1.086   .     S
C265   H284    1.085   .     S
C265   C808    1.486   .     S
C265   O842    1.221   .     S
C266   F275    1.357   .     S
C266   C805    1.390   1_554 S
C266   C816    1.420   1_554 S
C267   C268    1.418   .     A
C267   C815    1.420   .     S
C267   C818    1.419   .     S
C268   C272    1.412   .     A
C269   C816    1.419   1_554 S
C269   C819    1.425   1_554 S
C270   C271    1.418   .     A
C270   C808    1.424   .     S
C270   C818    1.425   .     S
C271   C272    1.398   .     A
C272   F277    1.361   .     S
F276   C805    1.357   1_554 S
H280   C436    1.086   .     S
H282   C446    1.085   .     S
O285   Zn305   1.950   .     S
O285   Zn302   1.960   .     S
O285   Zn303   1.943   .     S
O285   Zn304   1.929   .     S
O286   Zn303   1.930   .     S
O287   Zn305   1.937   .     S
O288   Zn304   1.937   .     S
O289   Zn302   1.933   .     S
O293   C814    1.221   1_554 S
O294   Zn302   1.927   .     S
O295   Zn305   1.925   .     S
O296   Zn303   1.943   .     S
O297   Zn304   1.949   .     S
O298   Zn305   1.939   .     S
O299   Zn302   1.933   .     S
O300   Zn303   1.935   .     S
O301   Zn304   1.935   .     S
C306   O359    1.278   .     A
C306   O357    1.266   .     A
C306   C312    1.434   .     S
C307   C321    1.388   .     A
C307   F334    1.360   .     S
C307   C330    1.407   .     A
C308   H340    1.084   .     S
C308   C320    1.400   .     A
C308   C321    1.393   .     A
C309   O358    1.286   .     A
C309   O360    1.267   .     A
C309   C311    1.460   .     S
C310   C319    1.473   .     S
C310   C329    1.418   .     A
C310   C322    1.406   .     A
C311   C190    1.355   1_655 S
C311   F217    1.363   1_655 S
C313   C316    1.463   .     S
C313   C497    1.344   .     S
C313   C507    1.500   .     S
C314   C315    1.437   .     S
C315   O361    1.277   .     A
C315   O355    1.278   .     A
C316   O362    1.272   .     A
C316   O356    1.282   .     A
C317   C322    1.387   .     A
C317   C876    1.390   .     S
C317   F886    1.357   .     S
C318   O347    1.274   .     A
C318   C321    1.447   .     S
C318   O349    1.268   .     A
C319   O350    1.290   .     A
C319   O348    1.285   .     A
C320   C875    1.486   1_554 S
C320   C880    1.424   1_554 S
C322   F335    1.358   .     S
C323   O351    1.221   .     D
C323   H342    1.085   .     S
C323   C190    1.486   1_655 S
C324   O352    1.221   .     D
C325   O353    1.220   .     D
C325   C332    1.484   .     S
C325   H344    1.086   .     S
C326   H345    1.085   .     S
C326   C869    1.486   .     S
C326   O903    1.221   .     S
C327   F336    1.357   .     S
C327   C866    1.390   1_554 S
C327   C877    1.420   1_554 S
C328   C329    1.418   .     A
C328   C876    1.420   .     S
C328   C879    1.419   .     S
C329   C333    1.412   .     A
C330   C877    1.419   1_554 S
C330   C880    1.425   1_554 S
C331   C332    1.418   .     A
C331   C869    1.424   .     S
C331   C879    1.425   .     S
C332   C333    1.398   .     A
C333   F338    1.361   .     S
F337   C866    1.357   1_554 S
H341   C497    1.086   .     S
H343   C507    1.085   .     S
O346   Zn366   1.950   .     S
O346   Zn363   1.960   .     S
O346   Zn364   1.943   .     S
O346   Zn365   1.929   .     S
O347   Zn364   1.930   .     S
O348   Zn366   1.937   .     S
O349   Zn365   1.937   .     S
O350   Zn363   1.933   .     S
O354   C875    1.221   1_554 S
O355   Zn363   1.927   .     S
O356   Zn366   1.925   .     S
O357   Zn364   1.943   .     S
O358   Zn365   1.949   .     S
O359   Zn366   1.939   .     S
O360   Zn363   1.933   .     S
O361   Zn364   1.935   .     S
O362   Zn365   1.935   .     S
C367   O420    1.278   .     A
C367   O418    1.266   .     A
C367   C373    1.434   .     S
C368   C382    1.388   .     A
C368   F395    1.360   .     S
C368   C391    1.407   .     A
C369   H401    1.084   .     S
C369   C381    1.400   .     A
C369   C382    1.393   .     A
C370   O419    1.286   .     A
C370   O421    1.267   .     A
C370   C372    1.460   .     S
C371   C380    1.473   .     S
C371   C390    1.418   .     A
C371   C383    1.406   .     A
C372   C434    1.355   .     S
C372   F461    1.363   .     S
C373   C494    1.355   1_455 S
C373   C506    1.486   1_455 S
C374   C377    1.463   .     S
C374   C9      1.344   1_565 S
C374   C19     1.500   1_565 S
C375   C376    1.437   .     S
C376   O422    1.277   .     A
C376   O416    1.278   .     A
C377   O423    1.272   .     A
C377   O417    1.282   .     A
C378   C383    1.387   .     A
C378   C937    1.390   .     S
C378   F947    1.357   .     S
C379   O408    1.274   .     A
C379   C382    1.447   .     S
C379   O410    1.268   .     A
C380   O411    1.290   .     A
C380   O409    1.285   .     A
C381   C936    1.486   1_554 S
C381   C941    1.424   1_554 S
C383   F396    1.358   .     S
C384   O412    1.221   .     D
C384   H403    1.085   .     S
C384   C434    1.486   .     S
C385   O413    1.221   .     D
C386   O414    1.220   .     D
C386   C393    1.484   .     S
C386   H405    1.086   .     S
C387   H406    1.085   .     S
C387   C930    1.486   .     S
C387   O964    1.221   .     S
C388   F397    1.357   .     S
C388   C927    1.390   1_554 S
C388   C938    1.420   1_554 S
C389   C390    1.418   .     A
C389   C937    1.420   .     S
C389   C940    1.419   .     S
C390   C394    1.412   .     A
C391   C938    1.419   1_554 S
C391   C941    1.425   1_554 S
C392   C393    1.418   .     A
C392   C930    1.424   .     S
C392   C940    1.425   .     S
C393   C394    1.398   .     A
C394   F399    1.361   .     S
F398   C927    1.357   1_554 S
F400   C494    1.363   1_455 S
H402   C9      1.086   1_565 S
H404   C19     1.085   1_565 S
O407   Zn427   1.950   .     S
O407   Zn424   1.960   .     S
O407   Zn425   1.943   .     S
O407   Zn426   1.929   .     S
O408   Zn425   1.930   .     S
O409   Zn427   1.937   .     S
O410   Zn426   1.937   .     S
O411   Zn424   1.933   .     S
O415   C936    1.221   1_554 S
O416   Zn424   1.927   .     S
O417   Zn427   1.925   .     S
O418   Zn425   1.943   .     S
O419   Zn426   1.949   .     S
O420   Zn427   1.939   .     S
O421   Zn424   1.933   .     S
O422   Zn425   1.935   .     S
O423   Zn426   1.935   .     S
C428   O481    1.278   .     A
C428   O479    1.266   .     A
C428   C434    1.434   .     S
C429   C443    1.388   .     A
C429   F456    1.360   .     S
C429   C452    1.407   .     A
C430   H462    1.084   .     S
C430   C442    1.400   .     A
C430   C443    1.393   .     A
C431   O480    1.286   .     A
C431   O482    1.267   .     A
C431   C433    1.460   .     S
C432   C441    1.473   .     S
C432   C451    1.418   .     A
C432   C444    1.406   .     A
C433   C495    1.355   .     S
C433   F522    1.363   .     S
C435   C438    1.463   .     S
C435   C70     1.344   1_565 S
C435   C80     1.500   1_565 S
C436   C437    1.437   .     S
C437   O483    1.277   .     A
C437   O477    1.278   .     A
C438   O484    1.272   .     A
C438   O478    1.282   .     A
C439   C444    1.387   .     A
C439   C998    1.390   .     S
C439   F1008   1.357   .     S
C440   O469    1.274   .     A
C440   C443    1.447   .     S
C440   O471    1.268   .     A
C441   O472    1.290   .     A
C441   O470    1.285   .     A
C442   C997    1.486   1_554 S
C442   C1002   1.424   1_554 S
C444   F457    1.358   .     S
C445   O473    1.221   .     D
C445   H464    1.085   .     S
C445   C495    1.486   .     S
C446   O474    1.221   .     D
C447   O475    1.220   .     D
C447   C454    1.484   .     S
C447   H466    1.086   .     S
C448   H467    1.085   .     S
C448   C991    1.486   .     S
C448   O1025   1.221   .     S
C449   F458    1.357   .     S
C449   C988    1.390   1_554 S
C449   C999    1.420   1_554 S
C450   C451    1.418   .     A
C450   C998    1.420   .     S
C450   C1001   1.419   .     S
C451   C455    1.412   .     A
C452   C999    1.419   1_554 S
C452   C1002   1.425   1_554 S
C453   C454    1.418   .     A
C453   C991    1.424   .     S
C453   C1001   1.425   .     S
C454   C455    1.398   .     A
C455   F460    1.361   .     S
F459   C988    1.357   1_554 S
H463   C70     1.086   1_565 S
H465   C80     1.085   1_565 S
O468   Zn488   1.950   .     S
O468   Zn485   1.960   .     S
O468   Zn486   1.943   .     S
O468   Zn487   1.929   .     S
O469   Zn486   1.930   .     S
O470   Zn488   1.937   .     S
O471   Zn487   1.937   .     S
O472   Zn485   1.933   .     S
O476   C997    1.221   1_554 S
O477   Zn485   1.927   .     S
O478   Zn488   1.925   .     S
O479   Zn486   1.943   .     S
O480   Zn487   1.949   .     S
O481   Zn488   1.939   .     S
O482   Zn485   1.933   .     S
O483   Zn486   1.935   .     S
O484   Zn487   1.935   .     S
C489   O542    1.278   .     A
C489   O540    1.266   .     A
C489   C495    1.434   .     S
C490   C504    1.388   .     A
C490   F517    1.360   .     S
C490   C513    1.407   .     A
C491   H523    1.084   .     S
C491   C503    1.400   .     A
C491   C504    1.393   .     A
C492   O541    1.286   .     A
C492   O543    1.267   .     A
C492   C494    1.460   .     S
C493   C502    1.473   .     S
C493   C512    1.418   .     A
C493   C505    1.406   .     A
C494   C373    1.355   1_655 S
C494   F400    1.363   1_655 S
C496   C499    1.463   .     S
C496   C131    1.344   1_565 S
C496   C141    1.500   1_565 S
C497   C498    1.437   .     S
C498   O544    1.277   .     A
C498   O538    1.278   .     A
C499   O545    1.272   .     A
C499   O539    1.282   .     A
C500   C505    1.387   .     A
C500   C1059   1.390   .     S
C500   F1069   1.357   .     S
C501   O530    1.274   .     A
C501   C504    1.447   .     S
C501   O532    1.268   .     A
C502   O533    1.290   .     A
C502   O531    1.285   .     A
C503   C1058   1.486   1_554 S
C503   C1063   1.424   1_554 S
C505   F518    1.358   .     S
C506   O534    1.221   .     D
C506   H525    1.085   .     S
C506   C373    1.486   1_655 S
C507   O535    1.221   .     D
C508   O536    1.220   .     D
C508   C515    1.484   .     S
C508   H527    1.086   .     S
C509   H528    1.085   .     S
C509   C1052   1.486   .     S
C509   O1086   1.221   .     S
C510   F519    1.357   .     S
C510   C1049   1.390   1_554 S
C510   C1060   1.420   1_554 S
C511   C512    1.418   .     A
C511   C1059   1.420   .     S
C511   C1062   1.419   .     S
C512   C516    1.412   .     A
C513   C1060   1.419   1_554 S
C513   C1063   1.425   1_554 S
C514   C515    1.418   .     A
C514   C1052   1.424   .     S
C514   C1062   1.425   .     S
C515   C516    1.398   .     A
C516   F521    1.361   .     S
F520   C1049   1.357   1_554 S
H524   C131    1.086   1_565 S
H526   C141    1.085   1_565 S
O529   Zn549   1.950   .     S
O529   Zn546   1.960   .     S
O529   Zn547   1.943   .     S
O529   Zn548   1.929   .     S
O530   Zn547   1.930   .     S
O531   Zn549   1.937   .     S
O532   Zn548   1.937   .     S
O533   Zn546   1.933   .     S
O537   C1058   1.221   1_554 S
O538   Zn546   1.927   .     S
O539   Zn549   1.925   .     S
O540   Zn547   1.943   .     S
O541   Zn548   1.949   .     S
O542   Zn549   1.939   .     S
O543   Zn546   1.933   .     S
O544   Zn547   1.935   .     S
O545   Zn548   1.935   .     S
C550   O603    1.278   .     A
C550   O601    1.266   .     A
C550   C556    1.434   .     S
C551   C565    1.388   .     A
C551   F578    1.360   .     S
C551   C574    1.407   .     A
C552   H584    1.084   .     S
C552   C564    1.400   .     A
C552   C565    1.393   .     A
C553   O602    1.286   .     A
C553   O604    1.267   .     A
C553   C555    1.460   .     S
C554   C563    1.473   .     S
C554   C573    1.418   .     A
C554   C566    1.406   .     A
C555   C617    1.355   .     S
C555   F644    1.363   .     S
C556   C677    1.355   1_455 S
C556   C689    1.486   1_455 S
C557   C560    1.463   .     S
C557   C741    1.344   .     S
C557   C751    1.500   .     S
C558   C559    1.437   .     S
C558   C923    1.344   1_545 S
C558   H951    1.086   1_545 S
C559   O605    1.277   .     A
C559   O599    1.278   .     A
C560   O606    1.272   .     A
C560   O600    1.282   .     A
C561   C566    1.387   .     A
C561   C22     1.390   1_556 S
C561   F32     1.357   1_556 S
C562   O591    1.274   .     A
C562   C565    1.447   .     S
C562   O593    1.268   .     A
C563   O594    1.290   .     A
C563   O592    1.285   .     A
C566   F579    1.358   .     S
C567   O595    1.221   .     D
C567   H586    1.085   .     S
C567   C617    1.486   .     S
C568   O596    1.221   .     D
C568   C923    1.500   1_545 S
C568   H953    1.085   1_545 S
C569   O597    1.220   .     D
C569   C576    1.484   .     S
C569   H588    1.086   .     S
C570   H589    1.085   .     S
C570   C15     1.486   1_556 S
C570   O49     1.221   1_556 S
C571   F580    1.357   .     S
C572   C573    1.418   .     A
C572   C22     1.420   1_556 S
C572   C25     1.419   1_556 S
C573   C577    1.412   .     A
C575   C576    1.418   .     A
C575   C15     1.424   1_556 S
C575   C25     1.425   1_556 S
C576   C577    1.398   .     A
C577   F582    1.361   .     S
F583   C677    1.363   1_455 S
H585   C741    1.086   .     S
H587   C751    1.085   .     S
O590   Zn610   1.950   .     S
O590   Zn607   1.960   .     S
O590   Zn608   1.943   .     S
O590   Zn609   1.929   .     S
O591   Zn608   1.930   .     S
O592   Zn610   1.937   .     S
O593   Zn609   1.937   .     S
O594   Zn607   1.933   .     S
O599   Zn607   1.927   .     S
O600   Zn610   1.925   .     S
O601   Zn608   1.943   .     S
O602   Zn609   1.949   .     S
O603   Zn610   1.939   .     S
O604   Zn607   1.933   .     S
O605   Zn608   1.935   .     S
O606   Zn609   1.935   .     S
C611   O664    1.278   .     A
C611   O662    1.266   .     A
C611   C617    1.434   .     S
C612   C626    1.388   .     A
C612   F639    1.360   .     S
C612   C635    1.407   .     A
C613   H645    1.084   .     S
C613   C625    1.400   .     A
C613   C626    1.393   .     A
C614   O663    1.286   .     A
C614   O665    1.267   .     A
C614   C616    1.460   .     S
C615   C624    1.473   .     S
C615   C634    1.418   .     A
C615   C627    1.406   .     A
C616   C678    1.355   .     S
C616   F705    1.363   .     S
C618   C621    1.463   .     S
C618   C802    1.344   .     S
C618   C812    1.500   .     S
C619   C620    1.437   .     S
C619   C984    1.344   1_545 S
C619   H1012   1.086   1_545 S
C620   O666    1.277   .     A
C620   O660    1.278   .     A
C621   O667    1.272   .     A
C621   O661    1.282   .     A
C622   C627    1.387   .     A
C622   C83     1.390   1_556 S
C622   F93     1.357   1_556 S
C623   O652    1.274   .     A
C623   C626    1.447   .     S
C623   O654    1.268   .     A
C624   O655    1.290   .     A
C624   O653    1.285   .     A
C627   F640    1.358   .     S
C628   O656    1.221   .     D
C628   H647    1.085   .     S
C628   C678    1.486   .     S
C629   O657    1.221   .     D
C629   C984    1.500   1_545 S
C629   H1014   1.085   1_545 S
C630   O658    1.220   .     D
C630   C637    1.484   .     S
C630   H649    1.086   .     S
C631   H650    1.085   .     S
C631   C76     1.486   1_556 S
C631   O110    1.221   1_556 S
C632   F641    1.357   .     S
C633   C634    1.418   .     A
C633   C83     1.420   1_556 S
C633   C86     1.419   1_556 S
C634   C638    1.412   .     A
C636   C637    1.418   .     A
C636   C76     1.424   1_556 S
C636   C86     1.425   1_556 S
C637   C638    1.398   .     A
C638   F643    1.361   .     S
H646   C802    1.086   .     S
H648   C812    1.085   .     S
O651   Zn671   1.950   .     S
O651   Zn668   1.960   .     S
O651   Zn669   1.943   .     S
O651   Zn670   1.929   .     S
O652   Zn669   1.930   .     S
O653   Zn671   1.937   .     S
O654   Zn670   1.937   .     S
O655   Zn668   1.933   .     S
O660   Zn668   1.927   .     S
O661   Zn671   1.925   .     S
O662   Zn669   1.943   .     S
O663   Zn670   1.949   .     S
O664   Zn671   1.939   .     S
O665   Zn668   1.933   .     S
O666   Zn669   1.935   .     S
O667   Zn670   1.935   .     S
C672   O725    1.278   .     A
C672   O723    1.266   .     A
C672   C678    1.434   .     S
C673   C687    1.388   .     A
C673   F700    1.360   .     S
C673   C696    1.407   .     A
C674   H706    1.084   .     S
C674   C686    1.400   .     A
C674   C687    1.393   .     A
C675   O724    1.286   .     A
C675   O726    1.267   .     A
C675   C677    1.460   .     S
C676   C685    1.473   .     S
C676   C695    1.418   .     A
C676   C688    1.406   .     A
C677   C556    1.355   1_655 S
C677   F583    1.363   1_655 S
C679   C682    1.463   .     S
C679   C863    1.344   .     S
C679   C873    1.500   .     S
C680   C681    1.437   .     S
C680   C1045   1.344   1_545 S
C680   H1073   1.086   1_545 S
C681   O727    1.277   .     A
C681   O721    1.278   .     A
C682   O728    1.272   .     A
C682   O722    1.282   .     A
C683   C688    1.387   .     A
C683   C144    1.390   1_556 S
C683   F154    1.357   1_556 S
C684   O713    1.274   .     A
C684   C687    1.447   .     S
C684   O715    1.268   .     A
C685   O716    1.290   .     A
C685   O714    1.285   .     A
C688   F701    1.358   .     S
C689   O717    1.221   .     D
C689   H708    1.085   .     S
C689   C556    1.486   1_655 S
C690   O718    1.221   .     D
C690   C1045   1.500   1_545 S
C690   H1075   1.085   1_545 S
C691   O719    1.220   .     D
C691   C698    1.484   .     S
C691   H710    1.086   .     S
C692   H711    1.085   .     S
C692   C137    1.486   1_556 S
C692   O171    1.221   1_556 S
C693   F702    1.357   .     S
C694   C695    1.418   .     A
C694   C144    1.420   1_556 S
C694   C147    1.419   1_556 S
C695   C699    1.412   .     A
C697   C698    1.418   .     A
C697   C137    1.424   1_556 S
C697   C147    1.425   1_556 S
C698   C699    1.398   .     A
C699   F704    1.361   .     S
H707   C863    1.086   .     S
H709   C873    1.085   .     S
O712   Zn732   1.950   .     S
O712   Zn729   1.960   .     S
O712   Zn730   1.943   .     S
O712   Zn731   1.929   .     S
O713   Zn730   1.930   .     S
O714   Zn732   1.937   .     S
O715   Zn731   1.937   .     S
O716   Zn729   1.933   .     S
O721   Zn729   1.927   .     S
O722   Zn732   1.925   .     S
O723   Zn730   1.943   .     S
O724   Zn731   1.949   .     S
O725   Zn732   1.939   .     S
O726   Zn729   1.933   .     S
O727   Zn730   1.935   .     S
O728   Zn731   1.935   .     S
C733   O786    1.278   .     A
C733   O784    1.266   .     A
C733   C739    1.434   .     S
C734   C748    1.388   .     A
C734   F761    1.360   .     S
C734   C757    1.407   .     A
C735   H767    1.084   .     S
C735   C747    1.400   .     A
C735   C748    1.393   .     A
C736   O785    1.286   .     A
C736   O787    1.267   .     A
C736   C738    1.460   .     S
C737   C746    1.473   .     S
C737   C756    1.418   .     A
C737   C749    1.406   .     A
C738   C800    1.355   .     S
C738   F827    1.363   .     S
C739   C860    1.355   1_455 S
C739   C872    1.486   1_455 S
C740   C743    1.463   .     S
C740   C924    1.344   .     S
C740   C934    1.500   .     S
C741   C742    1.437   .     S
C742   O788    1.277   .     A
C742   O782    1.278   .     A
C743   O789    1.272   .     A
C743   O783    1.282   .     A
C744   C749    1.387   .     A
C744   C205    1.390   1_556 S
C744   F215    1.357   1_556 S
C745   O774    1.274   .     A
C745   C748    1.447   .     S
C745   O776    1.268   .     A
C746   O777    1.290   .     A
C746   O775    1.285   .     A
C749   F762    1.358   .     S
C750   O778    1.221   .     D
C750   H769    1.085   .     S
C750   C800    1.486   .     S
C751   O779    1.221   .     D
C752   O780    1.220   .     D
C752   C759    1.484   .     S
C752   H771    1.086   .     S
C753   H772    1.085   .     S
C753   C198    1.486   1_556 S
C753   O232    1.221   1_556 S
C754   F763    1.357   .     S
C755   C756    1.418   .     A
C755   C205    1.420   1_556 S
C755   C208    1.419   1_556 S
C756   C760    1.412   .     A
C758   C759    1.418   .     A
C758   C198    1.424   1_556 S
C758   C208    1.425   1_556 S
C759   C760    1.398   .     A
C760   F765    1.361   .     S
F766   C860    1.363   1_455 S
H768   C924    1.086   .     S
H770   C934    1.085   .     S
O773   Zn793   1.950   .     S
O773   Zn790   1.960   .     S
O773   Zn791   1.943   .     S
O773   Zn792   1.929   .     S
O774   Zn791   1.930   .     S
O775   Zn793   1.937   .     S
O776   Zn792   1.937   .     S
O777   Zn790   1.933   .     S
O782   Zn790   1.927   .     S
O783   Zn793   1.925   .     S
O784   Zn791   1.943   .     S
O785   Zn792   1.949   .     S
O786   Zn793   1.939   .     S
O787   Zn790   1.933   .     S
O788   Zn791   1.935   .     S
O789   Zn792   1.935   .     S
C794   O847    1.278   .     A
C794   O845    1.266   .     A
C794   C800    1.434   .     S
C795   C809    1.388   .     A
C795   F822    1.360   .     S
C795   C818    1.407   .     A
C796   H828    1.084   .     S
C796   C808    1.400   .     A
C796   C809    1.393   .     A
C797   O846    1.286   .     A
C797   O848    1.267   .     A
C797   C799    1.460   .     S
C798   C807    1.473   .     S
C798   C817    1.418   .     A
C798   C810    1.406   .     A
C799   C861    1.355   .     S
C799   F888    1.363   .     S
C801   C804    1.463   .     S
C801   C985    1.344   .     S
C801   C995    1.500   .     S
C802   C803    1.437   .     S
C803   O849    1.277   .     A
C803   O843    1.278   .     A
C804   O850    1.272   .     A
C804   O844    1.282   .     A
C805   C810    1.387   .     A
C805   C266    1.390   1_556 S
C805   F276    1.357   1_556 S
C806   O835    1.274   .     A
C806   C809    1.447   .     S
C806   O837    1.268   .     A
C807   O838    1.290   .     A
C807   O836    1.285   .     A
C810   F823    1.358   .     S
C811   O839    1.221   .     D
C811   H830    1.085   .     S
C811   C861    1.486   .     S
C812   O840    1.221   .     D
C813   O841    1.220   .     D
C813   C820    1.484   .     S
C813   H832    1.086   .     S
C814   H833    1.085   .     S
C814   C259    1.486   1_556 S
C814   O293    1.221   1_556 S
C815   F824    1.357   .     S
C816   C817    1.418   .     A
C816   C266    1.420   1_556 S
C816   C269    1.419   1_556 S
C817   C821    1.412   .     A
C819   C820    1.418   .     A
C819   C259    1.424   1_556 S
C819   C269    1.425   1_556 S
C820   C821    1.398   .     A
C821   F826    1.361   .     S
H829   C985    1.086   .     S
H831   C995    1.085   .     S
O834   Zn854   1.950   .     S
O834   Zn851   1.960   .     S
O834   Zn852   1.943   .     S
O834   Zn853   1.929   .     S
O835   Zn852   1.930   .     S
O836   Zn854   1.937   .     S
O837   Zn853   1.937   .     S
O838   Zn851   1.933   .     S
O843   Zn851   1.927   .     S
O844   Zn854   1.925   .     S
O845   Zn852   1.943   .     S
O846   Zn853   1.949   .     S
O847   Zn854   1.939   .     S
O848   Zn851   1.933   .     S
O849   Zn852   1.935   .     S
O850   Zn853   1.935   .     S
C855   O908    1.278   .     A
C855   O906    1.266   .     A
C855   C861    1.434   .     S
C856   C870    1.388   .     A
C856   F883    1.360   .     S
C856   C879    1.407   .     A
C857   H889    1.084   .     S
C857   C869    1.400   .     A
C857   C870    1.393   .     A
C858   O907    1.286   .     A
C858   O909    1.267   .     A
C858   C860    1.460   .     S
C859   C868    1.473   .     S
C859   C878    1.418   .     A
C859   C871    1.406   .     A
C860   C739    1.355   1_655 S
C860   F766    1.363   1_655 S
C862   C865    1.463   .     S
C862   C1046   1.344   .     S
C862   C1056   1.500   .     S
C863   C864    1.437   .     S
C864   O910    1.277   .     A
C864   O904    1.278   .     A
C865   O911    1.272   .     A
C865   O905    1.282   .     A
C866   C871    1.387   .     A
C866   C327    1.390   1_556 S
C866   F337    1.357   1_556 S
C867   O896    1.274   .     A
C867   C870    1.447   .     S
C867   O898    1.268   .     A
C868   O899    1.290   .     A
C868   O897    1.285   .     A
C871   F884    1.358   .     S
C872   O900    1.221   .     D
C872   H891    1.085   .     S
C872   C739    1.486   1_655 S
C873   O901    1.221   .     D
C874   O902    1.220   .     D
C874   C881    1.484   .     S
C874   H893    1.086   .     S
C875   H894    1.085   .     S
C875   C320    1.486   1_556 S
C875   O354    1.221   1_556 S
C876   F885    1.357   .     S
C877   C878    1.418   .     A
C877   C327    1.420   1_556 S
C877   C330    1.419   1_556 S
C878   C882    1.412   .     A
C880   C881    1.418   .     A
C880   C320    1.424   1_556 S
C880   C330    1.425   1_556 S
C881   C882    1.398   .     A
C882   F887    1.361   .     S
H890   C1046   1.086   .     S
H892   C1056   1.085   .     S
O895   Zn915   1.950   .     S
O895   Zn912   1.960   .     S
O895   Zn913   1.943   .     S
O895   Zn914   1.929   .     S
O896   Zn913   1.930   .     S
O897   Zn915   1.937   .     S
O898   Zn914   1.937   .     S
O899   Zn912   1.933   .     S
O904   Zn912   1.927   .     S
O905   Zn915   1.925   .     S
O906   Zn913   1.943   .     S
O907   Zn914   1.949   .     S
O908   Zn915   1.939   .     S
O909   Zn912   1.933   .     S
O910   Zn913   1.935   .     S
O911   Zn914   1.935   .     S
C916   O969    1.278   .     A
C916   O967    1.266   .     A
C916   C922    1.434   .     S
C917   C931    1.388   .     A
C917   F944    1.360   .     S
C917   C940    1.407   .     A
C918   H950    1.084   .     S
C918   C930    1.400   .     A
C918   C931    1.393   .     A
C919   O968    1.286   .     A
C919   O970    1.267   .     A
C919   C921    1.460   .     S
C920   C929    1.473   .     S
C920   C939    1.418   .     A
C920   C932    1.406   .     A
C921   C983    1.355   .     S
C921   F1010   1.363   .     S
C922   C1043   1.355   1_455 S
C922   C1055   1.486   1_455 S
C923   C926    1.463   .     S
C923   C558    1.344   1_565 S
C923   C568    1.500   1_565 S
C924   C925    1.437   .     S
C925   O971    1.277   .     A
C925   O965    1.278   .     A
C926   O972    1.272   .     A
C926   O966    1.282   .     A
C927   C932    1.387   .     A
C927   C388    1.390   1_556 S
C927   F398    1.357   1_556 S
C928   O957    1.274   .     A
C928   C931    1.447   .     S
C928   O959    1.268   .     A
C929   O960    1.290   .     A
C929   O958    1.285   .     A
C932   F945    1.358   .     S
C933   O961    1.221   .     D
C933   H952    1.085   .     S
C933   C983    1.486   .     S
C934   O962    1.221   .     D
C935   O963    1.220   .     D
C935   C942    1.484   .     S
C935   H954    1.086   .     S
C936   H955    1.085   .     S
C936   C381    1.486   1_556 S
C936   O415    1.221   1_556 S
C937   F946    1.357   .     S
C938   C939    1.418   .     A
C938   C388    1.420   1_556 S
C938   C391    1.419   1_556 S
C939   C943    1.412   .     A
C941   C942    1.418   .     A
C941   C381    1.424   1_556 S
C941   C391    1.425   1_556 S
C942   C943    1.398   .     A
C943   F948    1.361   .     S
F949   C1043   1.363   1_455 S
H951   C558    1.086   1_565 S
H953   C568    1.085   1_565 S
O956   Zn976   1.950   .     S
O956   Zn973   1.960   .     S
O956   Zn974   1.943   .     S
O956   Zn975   1.929   .     S
O957   Zn974   1.930   .     S
O958   Zn976   1.937   .     S
O959   Zn975   1.937   .     S
O960   Zn973   1.933   .     S
O965   Zn973   1.927   .     S
O966   Zn976   1.925   .     S
O967   Zn974   1.943   .     S
O968   Zn975   1.949   .     S
O969   Zn976   1.939   .     S
O970   Zn973   1.933   .     S
O971   Zn974   1.935   .     S
O972   Zn975   1.935   .     S
C977   O1030   1.278   .     A
C977   O1028   1.266   .     A
C977   C983    1.434   .     S
C978   C992    1.388   .     A
C978   F1005   1.360   .     S
C978   C1001   1.407   .     A
C979   H1011   1.084   .     S
C979   C991    1.400   .     A
C979   C992    1.393   .     A
C980   O1029   1.286   .     A
C980   O1031   1.267   .     A
C980   C982    1.460   .     S
C981   C990    1.473   .     S
C981   C1000   1.418   .     A
C981   C993    1.406   .     A
C982   C1044   1.355   .     S
C982   F1071   1.363   .     S
C984   C987    1.463   .     S
C984   C619    1.344   1_565 S
C984   C629    1.500   1_565 S
C985   C986    1.437   .     S
C986   O1032   1.277   .     A
C986   O1026   1.278   .     A
C987   O1033   1.272   .     A
C987   O1027   1.282   .     A
C988   C993    1.387   .     A
C988   C449    1.390   1_556 S
C988   F459    1.357   1_556 S
C989   O1018   1.274   .     A
C989   C992    1.447   .     S
C989   O1020   1.268   .     A
C990   O1021   1.290   .     A
C990   O1019   1.285   .     A
C993   F1006   1.358   .     S
C994   O1022   1.221   .     D
C994   H1013   1.085   .     S
C994   C1044   1.486   .     S
C995   O1023   1.221   .     D
C996   O1024   1.220   .     D
C996   C1003   1.484   .     S
C996   H1015   1.086   .     S
C997   H1016   1.085   .     S
C997   C442    1.486   1_556 S
C997   O476    1.221   1_556 S
C998   F1007   1.357   .     S
C999   C1000   1.418   .     A
C999   C449    1.420   1_556 S
C999   C452    1.419   1_556 S
C1000  C1004   1.412   .     A
C1002  C1003   1.418   .     A
C1002  C442    1.424   1_556 S
C1002  C452    1.425   1_556 S
C1003  C1004   1.398   .     A
C1004  F1009   1.361   .     S
H1012  C619    1.086   1_565 S
H1014  C629    1.085   1_565 S
O1017  Zn1037  1.950   .     S
O1017  Zn1034  1.960   .     S
O1017  Zn1035  1.943   .     S
O1017  Zn1036  1.929   .     S
O1018  Zn1035  1.930   .     S
O1019  Zn1037  1.937   .     S
O1020  Zn1036  1.937   .     S
O1021  Zn1034  1.933   .     S
O1026  Zn1034  1.927   .     S
O1027  Zn1037  1.925   .     S
O1028  Zn1035  1.943   .     S
O1029  Zn1036  1.949   .     S
O1030  Zn1037  1.939   .     S
O1031  Zn1034  1.933   .     S
O1032  Zn1035  1.935   .     S
O1033  Zn1036  1.935   .     S
C1038  O1091   1.278   .     A
C1038  O1089   1.266   .     A
C1038  C1044   1.434   .     S
C1039  C1053   1.388   .     A
C1039  F1066   1.360   .     S
C1039  C1062   1.407   .     A
C1040  H1072   1.084   .     S
C1040  C1052   1.400   .     A
C1040  C1053   1.393   .     A
C1041  O1090   1.286   .     A
C1041  O1092   1.267   .     A
C1041  C1043   1.460   .     S
C1042  C1051   1.473   .     S
C1042  C1061   1.418   .     A
C1042  C1054   1.406   .     A
C1043  C922    1.355   1_655 S
C1043  F949    1.363   1_655 S
C1045  C1048   1.463   .     S
C1045  C680    1.344   1_565 S
C1045  C690    1.500   1_565 S
C1046  C1047   1.437   .     S
C1047  O1093   1.277   .     A
C1047  O1087   1.278   .     A
C1048  O1094   1.272   .     A
C1048  O1088   1.282   .     A
C1049  C1054   1.387   .     A
C1049  C510    1.390   1_556 S
C1049  F520    1.357   1_556 S
C1050  O1079   1.274   .     A
C1050  C1053   1.447   .     S
C1050  O1081   1.268   .     A
C1051  O1082   1.290   .     A
C1051  O1080   1.285   .     A
C1054  F1067   1.358   .     S
C1055  O1083   1.221   .     D
C1055  H1074   1.085   .     S
C1055  C922    1.486   1_655 S
C1056  O1084   1.221   .     D
C1057  O1085   1.220   .     D
C1057  C1064   1.484   .     S
C1057  H1076   1.086   .     S
C1058  H1077   1.085   .     S
C1058  C503    1.486   1_556 S
C1058  O537    1.221   1_556 S
C1059  F1068   1.357   .     S
C1060  C1061   1.418   .     A
C1060  C510    1.420   1_556 S
C1060  C513    1.419   1_556 S
C1061  C1065   1.412   .     A
C1063  C1064   1.418   .     A
C1063  C503    1.424   1_556 S
C1063  C513    1.425   1_556 S
C1064  C1065   1.398   .     A
C1065  F1070   1.361   .     S
H1073  C680    1.086   1_565 S
H1075  C690    1.085   1_565 S
O1078  Zn1098  1.950   .     S
O1078  Zn1095  1.960   .     S
O1078  Zn1096  1.943   .     S
O1078  Zn1097  1.929   .     S
O1079  Zn1096  1.930   .     S
O1080  Zn1098  1.937   .     S
O1081  Zn1097  1.937   .     S
O1082  Zn1095  1.933   .     S
O1087  Zn1095  1.927   .     S
O1088  Zn1098  1.925   .     S
O1089  Zn1096  1.943   .     S
O1090  Zn1097  1.949   .     S
O1091  Zn1098  1.939   .     S
O1092  Zn1095  1.933   .     S
O1093  Zn1096  1.935   .     S
O1094  Zn1097  1.935   .     S
