data_str_m1_o10_o18_pcu_sym.171
_audit_creation_date              2020-01-03
_audit_creation_method            'Materials Studio'
_symmetry_space_group_name_H-M    'P1'
_symmetry_Int_Tables_number       1
_symmetry_cell_setting            triclinic
loop_
_symmetry_equiv_pos_as_xyz
  x,y,z
_cell_length_a                    32.5628
_cell_length_b                    32.5193
_cell_length_c                    35.6402
_cell_angle_alpha                 97.9346
_cell_angle_beta                  72.9955
_cell_angle_gamma                 98.7113
loop_
_atom_site_label
_atom_site_type_symbol
_atom_site_fract_x
_atom_site_fract_y
_atom_site_fract_z
_atom_site_U_iso_or_equiv
_atom_site_adp_type
_atom_site_occupancy
C1     C     0.05246   0.15965   0.25900   0.00000  Uiso   1.00
C2     C     0.20793   0.13879   0.45818   0.00000  Uiso   1.00
C3     C     0.23405   0.12641   0.47796   0.00000  Uiso   1.00
C4     C     0.28114   0.17391   0.24132   0.00000  Uiso   1.00
C5     C     0.22115   0.12752   0.01892   0.00000  Uiso   1.00
C6     C     0.17904   0.13773   0.04027   0.00000  Uiso   1.00
C7     C     0.25041   0.11975   0.03884   0.00000  Uiso   1.00
C8     C     0.23902   0.12543   0.08003   0.00000  Uiso   1.00
C9     C     0.16883   0.14295   0.08179   0.00000  Uiso   1.00
C10    C     0.32731   0.17785   0.23816   0.00000  Uiso   1.00
C11    C     0.00721   0.15752   0.26190   0.00000  Uiso   1.00
C12    C     0.08921   0.19836   0.42056   0.00000  Uiso   1.00
C13    C     0.18110   0.32223   0.23797   0.00000  Uiso   1.00
C14    C     0.15174   0.01201   0.26203   0.00000  Uiso   1.00
C15    C     0.15604   0.05608   0.25883   0.00000  Uiso   1.00
C16    C     0.17694   0.27770   0.24128   0.00000  Uiso   1.00
C17    C     0.18816   0.14555   0.14394   0.00000  Uiso   1.00
C18    C     0.14516   0.18729   0.35623   0.00000  Uiso   1.00
C19    C     0.13087   0.18935   0.39953   0.00000  Uiso   1.00
C20    C     0.19840   0.13673   0.10127   0.00000  Uiso   1.00
C21    C     0.07313   0.19162   0.46026   0.00000  Uiso   1.00
C22    C     0.03349   0.20545   0.06321   0.00000  Uiso   1.00
C23    C     0.15703   0.17582   0.41909   0.00000  Uiso   1.00
C24    C     0.29731   0.07057   0.02211   0.00000  Uiso   1.00
C25    C     0.02543   0.24257   0.22166   0.00000  Uiso   1.00
C26    C     0.07359   0.08921   0.06573   0.00000  Uiso   1.00
C27    C     0.14115   0.16728   0.45887   0.00000  Uiso   1.00
C28    C     0.09832   0.17537   0.47955   0.00000  Uiso   1.00
C29    C     0.16670   0.15107   0.47845   0.00000  Uiso   1.00
C30    C     0.15019   0.14603   0.01942   0.00000  Uiso   1.00
C31    C     0.10533   0.14870   0.03759   0.00000  Uiso   1.00
C32    C     0.08059   0.16576   0.01866   0.00000  Uiso   1.00
H33    H     0.31796   0.13922   0.28414   0.00000  Uiso   1.00
H34    H     0.22099   0.13753   0.42666   0.00000  Uiso   1.00
H35    H     0.04784   0.23362   0.04724   0.00000  Uiso   1.00
H36    H     0.04857   0.20449   0.08731   0.00000  Uiso   1.00
H37    H     0.33199   0.20832   0.07705   0.00000  Uiso   1.00
H38    H     0.27167   0.04741   0.01390   0.00000  Uiso   1.00
H39    H     0.29816   0.06754   0.05256   0.00000  Uiso   1.00
H40    H     0.32884   0.06298   0.00184   0.00000  Uiso   1.00
H41    H     0.03468   0.24962   0.24978   0.00000  Uiso   1.00
H42    H     0.32754   0.25453   0.22490   0.00000  Uiso   1.00
H43    H     0.05060   0.25966   0.19902   0.00000  Uiso   1.00
H44    H     0.20826   0.00298   0.21583   0.00000  Uiso   1.00
H45    H     0.10324   0.07313   0.05362   0.00000  Uiso   1.00
H46    H     0.05253   0.08191   0.04550   0.00000  Uiso   1.00
H47    H     0.05537   0.07657   0.09405   0.00000  Uiso   1.00
H48    H     0.12419   0.33199   0.28421   0.00000  Uiso   1.00
H49    H     0.13979   0.15555   0.09971   0.00000  Uiso   1.00
H50    H     0.26230   0.12211   0.09546   0.00000  Uiso   1.00
H51    H     0.26546   0.11762   0.46089   0.00000  Uiso   1.00
H52    H     0.04034   0.19796   0.47544   0.00000  Uiso   1.00
H53    H     0.06832   0.20865   0.40589   0.00000  Uiso   1.00
H54    H     0.18961   0.17167   0.40201   0.00000  Uiso   1.00
O55    O     0.16667   0.16667   0.25000   0.00000  Uiso   1.00
O56    O     0.15693   0.12393   0.16625   0.00000  Uiso   1.00
O57    O     0.12687   0.20646   0.33749   0.00000  Uiso   1.00
O58    O     0.21088   0.17493   0.15877   0.00000  Uiso   1.00
O59    O     0.17198   0.16135   0.33749   0.00000  Uiso   1.00
O60    O     0.03720   0.16853   0.03719   0.00000  Uiso   1.00
O61    O     0.29196   0.11173   0.01784   0.00000  Uiso   1.00
O62    O     0.02374   0.19948   0.20893   0.00000  Uiso   1.00
O63    O     0.08397   0.13271   0.07309   0.00000  Uiso   1.00
O64    O     0.17849   0.08101   0.27820   0.00000  Uiso   1.00
O65    O     0.14581   0.26136   0.26767   0.00000  Uiso   1.00
O66    O     0.07452   0.13251   0.23607   0.00000  Uiso   1.00
O67    O     0.26785   0.19179   0.21806   0.00000  Uiso   1.00
O68    O     0.06990   0.18960   0.27820   0.00000  Uiso   1.00
O69    O     0.25440   0.15277   0.26768   0.00000  Uiso   1.00
O70    O     0.13800   0.06903   0.23607   0.00000  Uiso   1.00
O71    O     0.20437   0.25527   0.21806   0.00000  Uiso   1.00
Zn72   Zn    0.19244   0.14090   0.28277   0.00000  Uiso   1.00
Zn73   Zn    0.13459   0.12378   0.22257   0.00000  Uiso   1.00
Zn74   Zn    0.21166   0.19664   0.21188   0.00000  Uiso   1.00
Zn75   Zn    0.12798   0.20535   0.28277   0.00000  Uiso   1.00
C76    C     0.38579   0.15965   0.25900   0.00000  Uiso   1.00
C77    C     0.54127   0.13879   0.45818   0.00000  Uiso   1.00
C78    C     0.56738   0.12641   0.47796   0.00000  Uiso   1.00
C79    C     0.61447   0.17391   0.24132   0.00000  Uiso   1.00
C80    C     0.55448   0.12752   0.01892   0.00000  Uiso   1.00
C81    C     0.51237   0.13773   0.04027   0.00000  Uiso   1.00
C82    C     0.58375   0.11975   0.03884   0.00000  Uiso   1.00
C83    C     0.57235   0.12543   0.08003   0.00000  Uiso   1.00
C84    C     0.50217   0.14295   0.08179   0.00000  Uiso   1.00
C85    C     0.66064   0.17785   0.23816   0.00000  Uiso   1.00
C86    C     0.34054   0.15752   0.26190   0.00000  Uiso   1.00
C87    C     0.42254   0.19836   0.42056   0.00000  Uiso   1.00
C88    C     0.51444   0.32223   0.23797   0.00000  Uiso   1.00
C89    C     0.48508   0.01201   0.26203   0.00000  Uiso   1.00
C90    C     0.48938   0.05608   0.25883   0.00000  Uiso   1.00
C91    C     0.51028   0.27770   0.24128   0.00000  Uiso   1.00
C92    C     0.52149   0.14555   0.14394   0.00000  Uiso   1.00
C93    C     0.47850   0.18729   0.35623   0.00000  Uiso   1.00
C94    C     0.46420   0.18935   0.39953   0.00000  Uiso   1.00
C95    C     0.53174   0.13673   0.10127   0.00000  Uiso   1.00
C96    C     0.40646   0.19162   0.46026   0.00000  Uiso   1.00
C97    C     0.36683   0.20545   0.06321   0.00000  Uiso   1.00
C98    C     0.49036   0.17582   0.41909   0.00000  Uiso   1.00
C99    C     0.63065   0.07057   0.02211   0.00000  Uiso   1.00
C100   C     0.35877   0.24257   0.22166   0.00000  Uiso   1.00
C101   C     0.40693   0.08921   0.06573   0.00000  Uiso   1.00
C102   C     0.47449   0.16728   0.45887   0.00000  Uiso   1.00
C103   C     0.43165   0.17537   0.47955   0.00000  Uiso   1.00
C104   C     0.50003   0.15107   0.47845   0.00000  Uiso   1.00
C105   C     0.48352   0.14603   0.01942   0.00000  Uiso   1.00
C106   C     0.43866   0.14870   0.03759   0.00000  Uiso   1.00
C107   C     0.41392   0.16576   0.01866   0.00000  Uiso   1.00
H108   H     0.65129   0.13922   0.28414   0.00000  Uiso   1.00
H109   H     0.55433   0.13753   0.42666   0.00000  Uiso   1.00
H110   H     0.38117   0.23362   0.04724   0.00000  Uiso   1.00
H111   H     0.38190   0.20449   0.08731   0.00000  Uiso   1.00
H112   H     0.66532   0.20832   0.07705   0.00000  Uiso   1.00
H113   H     0.60501   0.04741   0.01390   0.00000  Uiso   1.00
H114   H     0.63149   0.06754   0.05256   0.00000  Uiso   1.00
H115   H     0.66217   0.06298   0.00184   0.00000  Uiso   1.00
H116   H     0.36801   0.24962   0.24978   0.00000  Uiso   1.00
H117   H     0.66088   0.25453   0.22490   0.00000  Uiso   1.00
H118   H     0.38394   0.25966   0.19902   0.00000  Uiso   1.00
H119   H     0.54160   0.00298   0.21583   0.00000  Uiso   1.00
H120   H     0.43658   0.07313   0.05362   0.00000  Uiso   1.00
H121   H     0.38586   0.08191   0.04550   0.00000  Uiso   1.00
H122   H     0.38871   0.07657   0.09405   0.00000  Uiso   1.00
H123   H     0.45753   0.33199   0.28421   0.00000  Uiso   1.00
H124   H     0.47312   0.15555   0.09971   0.00000  Uiso   1.00
H125   H     0.59564   0.12211   0.09546   0.00000  Uiso   1.00
H126   H     0.59879   0.11762   0.46089   0.00000  Uiso   1.00
H127   H     0.37367   0.19796   0.47544   0.00000  Uiso   1.00
H128   H     0.40166   0.20865   0.40589   0.00000  Uiso   1.00
H129   H     0.52294   0.17167   0.40201   0.00000  Uiso   1.00
O130   O     0.50000   0.16667   0.25000   0.00000  Uiso   1.00
O131   O     0.49027   0.12393   0.16625   0.00000  Uiso   1.00
O132   O     0.46020   0.20646   0.33749   0.00000  Uiso   1.00
O133   O     0.54421   0.17493   0.15877   0.00000  Uiso   1.00
O134   O     0.50532   0.16135   0.33749   0.00000  Uiso   1.00
O135   O     0.37054   0.16853   0.03719   0.00000  Uiso   1.00
O136   O     0.62529   0.11173   0.01784   0.00000  Uiso   1.00
O137   O     0.35708   0.19948   0.20893   0.00000  Uiso   1.00
O138   O     0.41731   0.13271   0.07309   0.00000  Uiso   1.00
O139   O     0.51182   0.08101   0.27820   0.00000  Uiso   1.00
O140   O     0.47914   0.26136   0.26767   0.00000  Uiso   1.00
O141   O     0.40785   0.13251   0.23607   0.00000  Uiso   1.00
O142   O     0.60119   0.19179   0.21806   0.00000  Uiso   1.00
O143   O     0.40323   0.18960   0.27820   0.00000  Uiso   1.00
O144   O     0.58773   0.15277   0.26768   0.00000  Uiso   1.00
O145   O     0.47133   0.06903   0.23607   0.00000  Uiso   1.00
O146   O     0.53771   0.25527   0.21806   0.00000  Uiso   1.00
Zn147  Zn    0.52577   0.14090   0.28277   0.00000  Uiso   1.00
Zn148  Zn    0.46792   0.12378   0.22257   0.00000  Uiso   1.00
Zn149  Zn    0.54500   0.19664   0.21188   0.00000  Uiso   1.00
Zn150  Zn    0.46131   0.20535   0.28277   0.00000  Uiso   1.00
C151   C     0.71913   0.15965   0.25900   0.00000  Uiso   1.00
C152   C     0.87460   0.13879   0.45818   0.00000  Uiso   1.00
C153   C     0.90072   0.12641   0.47796   0.00000  Uiso   1.00
C154   C     0.94780   0.17391   0.24132   0.00000  Uiso   1.00
C155   C     0.88781   0.12752   0.01892   0.00000  Uiso   1.00
C156   C     0.84571   0.13773   0.04027   0.00000  Uiso   1.00
C157   C     0.91708   0.11975   0.03884   0.00000  Uiso   1.00
C158   C     0.90568   0.12543   0.08003   0.00000  Uiso   1.00
C159   C     0.83550   0.14295   0.08179   0.00000  Uiso   1.00
C160   C     0.99398   0.17785   0.23816   0.00000  Uiso   1.00
C161   C     0.67388   0.15752   0.26190   0.00000  Uiso   1.00
C162   C     0.75588   0.19836   0.42056   0.00000  Uiso   1.00
C163   C     0.84777   0.32223   0.23797   0.00000  Uiso   1.00
C164   C     0.81841   0.01201   0.26203   0.00000  Uiso   1.00
C165   C     0.82271   0.05608   0.25883   0.00000  Uiso   1.00
C166   C     0.84361   0.27770   0.24128   0.00000  Uiso   1.00
C167   C     0.85483   0.14555   0.14394   0.00000  Uiso   1.00
C168   C     0.81183   0.18729   0.35623   0.00000  Uiso   1.00
C169   C     0.79753   0.18935   0.39953   0.00000  Uiso   1.00
C170   C     0.86507   0.13673   0.10127   0.00000  Uiso   1.00
C171   C     0.73979   0.19162   0.46026   0.00000  Uiso   1.00
C172   C     0.70016   0.20545   0.06321   0.00000  Uiso   1.00
C173   C     0.82370   0.17582   0.41909   0.00000  Uiso   1.00
C174   C     0.96398   0.07057   0.02211   0.00000  Uiso   1.00
C175   C     0.69210   0.24257   0.22166   0.00000  Uiso   1.00
C176   C     0.74026   0.08921   0.06573   0.00000  Uiso   1.00
C177   C     0.80782   0.16728   0.45887   0.00000  Uiso   1.00
C178   C     0.76499   0.17537   0.47955   0.00000  Uiso   1.00
C179   C     0.83336   0.15107   0.47845   0.00000  Uiso   1.00
C180   C     0.81685   0.14603   0.01942   0.00000  Uiso   1.00
C181   C     0.77200   0.14870   0.03759   0.00000  Uiso   1.00
C182   C     0.74726   0.16576   0.01866   0.00000  Uiso   1.00
H183   H     0.98463   0.13922   0.28414   0.00000  Uiso   1.00
H184   H     0.88766   0.13753   0.42666   0.00000  Uiso   1.00
H185   H     0.71451   0.23362   0.04724   0.00000  Uiso   1.00
H186   H     0.71523   0.20449   0.08731   0.00000  Uiso   1.00
H187   H     0.99866   0.20832   0.07705   0.00000  Uiso   1.00
H188   H     0.93834   0.04741   0.01390   0.00000  Uiso   1.00
H189   H     0.96482   0.06754   0.05256   0.00000  Uiso   1.00
H190   H     0.99551   0.06298   0.00184   0.00000  Uiso   1.00
H191   H     0.70135   0.24962   0.24978   0.00000  Uiso   1.00
H192   H     0.99421   0.25453   0.22490   0.00000  Uiso   1.00
H193   H     0.71727   0.25966   0.19902   0.00000  Uiso   1.00
H194   H     0.87493   0.00298   0.21583   0.00000  Uiso   1.00
H195   H     0.76991   0.07313   0.05362   0.00000  Uiso   1.00
H196   H     0.71919   0.08191   0.04550   0.00000  Uiso   1.00
H197   H     0.72204   0.07657   0.09405   0.00000  Uiso   1.00
H198   H     0.79086   0.33199   0.28421   0.00000  Uiso   1.00
H199   H     0.80646   0.15555   0.09971   0.00000  Uiso   1.00
H200   H     0.92897   0.12211   0.09546   0.00000  Uiso   1.00
H201   H     0.93212   0.11762   0.46089   0.00000  Uiso   1.00
H202   H     0.70700   0.19796   0.47544   0.00000  Uiso   1.00
H203   H     0.73499   0.20865   0.40589   0.00000  Uiso   1.00
H204   H     0.85628   0.17167   0.40201   0.00000  Uiso   1.00
O205   O     0.83333   0.16667   0.25000   0.00000  Uiso   1.00
O206   O     0.82360   0.12393   0.16625   0.00000  Uiso   1.00
O207   O     0.79354   0.20646   0.33749   0.00000  Uiso   1.00
O208   O     0.87755   0.17493   0.15877   0.00000  Uiso   1.00
O209   O     0.83865   0.16135   0.33749   0.00000  Uiso   1.00
O210   O     0.70387   0.16853   0.03719   0.00000  Uiso   1.00
O211   O     0.95863   0.11173   0.01784   0.00000  Uiso   1.00
O212   O     0.69041   0.19948   0.20893   0.00000  Uiso   1.00
O213   O     0.75064   0.13271   0.07309   0.00000  Uiso   1.00
O214   O     0.84515   0.08101   0.27820   0.00000  Uiso   1.00
O215   O     0.81247   0.26136   0.26767   0.00000  Uiso   1.00
O216   O     0.74119   0.13251   0.23607   0.00000  Uiso   1.00
O217   O     0.93452   0.19179   0.21806   0.00000  Uiso   1.00
O218   O     0.73656   0.18960   0.27820   0.00000  Uiso   1.00
O219   O     0.92106   0.15277   0.26768   0.00000  Uiso   1.00
O220   O     0.80467   0.06903   0.23607   0.00000  Uiso   1.00
O221   O     0.87104   0.25527   0.21806   0.00000  Uiso   1.00
Zn222  Zn    0.85910   0.14090   0.28277   0.00000  Uiso   1.00
Zn223  Zn    0.80125   0.12378   0.22257   0.00000  Uiso   1.00
Zn224  Zn    0.87833   0.19664   0.21188   0.00000  Uiso   1.00
Zn225  Zn    0.79465   0.20535   0.28277   0.00000  Uiso   1.00
C226   C     0.05246   0.49299   0.25900   0.00000  Uiso   1.00
C227   C     0.20793   0.47212   0.45818   0.00000  Uiso   1.00
C228   C     0.23405   0.45974   0.47796   0.00000  Uiso   1.00
C229   C     0.28114   0.50725   0.24132   0.00000  Uiso   1.00
C230   C     0.22115   0.46086   0.01892   0.00000  Uiso   1.00
C231   C     0.17904   0.47106   0.04027   0.00000  Uiso   1.00
C232   C     0.25041   0.45309   0.03884   0.00000  Uiso   1.00
C233   C     0.23902   0.45876   0.08003   0.00000  Uiso   1.00
C234   C     0.16883   0.47629   0.08179   0.00000  Uiso   1.00
C235   C     0.32731   0.51118   0.23816   0.00000  Uiso   1.00
C236   C     0.00721   0.49085   0.26190   0.00000  Uiso   1.00
C237   C     0.08921   0.53169   0.42056   0.00000  Uiso   1.00
C238   C     0.18110   0.65556   0.23797   0.00000  Uiso   1.00
C239   C     0.15174   0.34534   0.26203   0.00000  Uiso   1.00
C240   C     0.15604   0.38941   0.25883   0.00000  Uiso   1.00
C241   C     0.17694   0.61103   0.24128   0.00000  Uiso   1.00
C242   C     0.18816   0.47888   0.14394   0.00000  Uiso   1.00
C243   C     0.14516   0.52062   0.35623   0.00000  Uiso   1.00
C244   C     0.13087   0.52268   0.39953   0.00000  Uiso   1.00
C245   C     0.19840   0.47006   0.10127   0.00000  Uiso   1.00
C246   C     0.07313   0.52496   0.46026   0.00000  Uiso   1.00
C247   C     0.03349   0.53878   0.06321   0.00000  Uiso   1.00
C248   C     0.15703   0.50915   0.41909   0.00000  Uiso   1.00
C249   C     0.29731   0.40390   0.02211   0.00000  Uiso   1.00
C250   C     0.02543   0.57590   0.22166   0.00000  Uiso   1.00
C251   C     0.07359   0.42254   0.06573   0.00000  Uiso   1.00
C252   C     0.14115   0.50061   0.45887   0.00000  Uiso   1.00
C253   C     0.09832   0.50870   0.47955   0.00000  Uiso   1.00
C254   C     0.16670   0.48440   0.47845   0.00000  Uiso   1.00
C255   C     0.15019   0.47936   0.01942   0.00000  Uiso   1.00
C256   C     0.10533   0.48204   0.03759   0.00000  Uiso   1.00
C257   C     0.08059   0.49909   0.01866   0.00000  Uiso   1.00
H258   H     0.31796   0.47255   0.28414   0.00000  Uiso   1.00
H259   H     0.22099   0.47086   0.42666   0.00000  Uiso   1.00
H260   H     0.04784   0.56695   0.04724   0.00000  Uiso   1.00
H261   H     0.04857   0.53782   0.08731   0.00000  Uiso   1.00
H262   H     0.33199   0.54165   0.07705   0.00000  Uiso   1.00
H263   H     0.27167   0.38075   0.01390   0.00000  Uiso   1.00
H264   H     0.29816   0.40087   0.05256   0.00000  Uiso   1.00
H265   H     0.32884   0.39631   0.00184   0.00000  Uiso   1.00
H266   H     0.03468   0.58295   0.24978   0.00000  Uiso   1.00
H267   H     0.32754   0.58787   0.22490   0.00000  Uiso   1.00
H268   H     0.05060   0.59300   0.19902   0.00000  Uiso   1.00
H269   H     0.20826   0.33631   0.21583   0.00000  Uiso   1.00
H270   H     0.10324   0.40647   0.05362   0.00000  Uiso   1.00
H271   H     0.05253   0.41525   0.04550   0.00000  Uiso   1.00
H272   H     0.05537   0.40990   0.09405   0.00000  Uiso   1.00
H273   H     0.12419   0.66533   0.28421   0.00000  Uiso   1.00
H274   H     0.13979   0.48889   0.09971   0.00000  Uiso   1.00
H275   H     0.26230   0.45545   0.09546   0.00000  Uiso   1.00
H276   H     0.26546   0.45095   0.46089   0.00000  Uiso   1.00
H277   H     0.04034   0.53129   0.47544   0.00000  Uiso   1.00
H278   H     0.06832   0.54199   0.40589   0.00000  Uiso   1.00
H279   H     0.18961   0.50500   0.40201   0.00000  Uiso   1.00
O280   O     0.16667   0.50000   0.25000   0.00000  Uiso   1.00
O281   O     0.15693   0.45726   0.16625   0.00000  Uiso   1.00
O282   O     0.12687   0.53979   0.33749   0.00000  Uiso   1.00
O283   O     0.21088   0.50826   0.15877   0.00000  Uiso   1.00
O284   O     0.17198   0.49468   0.33749   0.00000  Uiso   1.00
O285   O     0.03720   0.50186   0.03719   0.00000  Uiso   1.00
O286   O     0.29196   0.44506   0.01784   0.00000  Uiso   1.00
O287   O     0.02374   0.53281   0.20893   0.00000  Uiso   1.00
O288   O     0.08397   0.46604   0.07309   0.00000  Uiso   1.00
O289   O     0.17849   0.41434   0.27820   0.00000  Uiso   1.00
O290   O     0.14581   0.59469   0.26767   0.00000  Uiso   1.00
O291   O     0.07452   0.46584   0.23607   0.00000  Uiso   1.00
O292   O     0.26785   0.52512   0.21806   0.00000  Uiso   1.00
O293   O     0.06990   0.52293   0.27820   0.00000  Uiso   1.00
O294   O     0.25440   0.48610   0.26768   0.00000  Uiso   1.00
O295   O     0.13800   0.40236   0.23607   0.00000  Uiso   1.00
O296   O     0.20437   0.58860   0.21806   0.00000  Uiso   1.00
Zn297  Zn    0.19244   0.47423   0.28277   0.00000  Uiso   1.00
Zn298  Zn    0.13459   0.45711   0.22257   0.00000  Uiso   1.00
Zn299  Zn    0.21166   0.52997   0.21188   0.00000  Uiso   1.00
Zn300  Zn    0.12798   0.53868   0.28277   0.00000  Uiso   1.00
C301   C     0.38579   0.49299   0.25900   0.00000  Uiso   1.00
C302   C     0.54127   0.47212   0.45818   0.00000  Uiso   1.00
C303   C     0.56738   0.45974   0.47796   0.00000  Uiso   1.00
C304   C     0.61447   0.50725   0.24132   0.00000  Uiso   1.00
C305   C     0.55448   0.46086   0.01892   0.00000  Uiso   1.00
C306   C     0.51237   0.47106   0.04027   0.00000  Uiso   1.00
C307   C     0.58375   0.45309   0.03884   0.00000  Uiso   1.00
C308   C     0.57235   0.45876   0.08003   0.00000  Uiso   1.00
C309   C     0.50217   0.47629   0.08179   0.00000  Uiso   1.00
C310   C     0.66064   0.51118   0.23816   0.00000  Uiso   1.00
C311   C     0.34054   0.49085   0.26190   0.00000  Uiso   1.00
C312   C     0.42254   0.53169   0.42056   0.00000  Uiso   1.00
C313   C     0.51444   0.65556   0.23797   0.00000  Uiso   1.00
C314   C     0.48508   0.34534   0.26203   0.00000  Uiso   1.00
C315   C     0.48938   0.38941   0.25883   0.00000  Uiso   1.00
C316   C     0.51028   0.61103   0.24128   0.00000  Uiso   1.00
C317   C     0.52149   0.47888   0.14394   0.00000  Uiso   1.00
C318   C     0.47850   0.52062   0.35623   0.00000  Uiso   1.00
C319   C     0.46420   0.52268   0.39953   0.00000  Uiso   1.00
C320   C     0.53174   0.47006   0.10127   0.00000  Uiso   1.00
C321   C     0.40646   0.52496   0.46026   0.00000  Uiso   1.00
C322   C     0.36683   0.53878   0.06321   0.00000  Uiso   1.00
C323   C     0.49036   0.50915   0.41909   0.00000  Uiso   1.00
C324   C     0.63065   0.40390   0.02211   0.00000  Uiso   1.00
C325   C     0.35877   0.57590   0.22166   0.00000  Uiso   1.00
C326   C     0.40693   0.42254   0.06573   0.00000  Uiso   1.00
C327   C     0.47449   0.50061   0.45887   0.00000  Uiso   1.00
C328   C     0.43165   0.50870   0.47955   0.00000  Uiso   1.00
C329   C     0.50003   0.48440   0.47845   0.00000  Uiso   1.00
C330   C     0.48352   0.47936   0.01942   0.00000  Uiso   1.00
C331   C     0.43866   0.48204   0.03759   0.00000  Uiso   1.00
C332   C     0.41392   0.49909   0.01866   0.00000  Uiso   1.00
H333   H     0.65129   0.47255   0.28414   0.00000  Uiso   1.00
H334   H     0.55433   0.47086   0.42666   0.00000  Uiso   1.00
H335   H     0.38117   0.56695   0.04724   0.00000  Uiso   1.00
H336   H     0.38190   0.53782   0.08731   0.00000  Uiso   1.00
H337   H     0.66532   0.54165   0.07705   0.00000  Uiso   1.00
H338   H     0.60501   0.38075   0.01390   0.00000  Uiso   1.00
H339   H     0.63149   0.40087   0.05256   0.00000  Uiso   1.00
H340   H     0.66217   0.39631   0.00184   0.00000  Uiso   1.00
H341   H     0.36801   0.58295   0.24978   0.00000  Uiso   1.00
H342   H     0.66088   0.58787   0.22490   0.00000  Uiso   1.00
H343   H     0.38394   0.59300   0.19902   0.00000  Uiso   1.00
H344   H     0.54160   0.33631   0.21583   0.00000  Uiso   1.00
H345   H     0.43658   0.40647   0.05362   0.00000  Uiso   1.00
H346   H     0.38586   0.41525   0.04550   0.00000  Uiso   1.00
H347   H     0.38871   0.40990   0.09405   0.00000  Uiso   1.00
H348   H     0.45753   0.66533   0.28421   0.00000  Uiso   1.00
H349   H     0.47312   0.48889   0.09971   0.00000  Uiso   1.00
H350   H     0.59564   0.45545   0.09546   0.00000  Uiso   1.00
H351   H     0.59879   0.45095   0.46089   0.00000  Uiso   1.00
H352   H     0.37367   0.53129   0.47544   0.00000  Uiso   1.00
H353   H     0.40166   0.54199   0.40589   0.00000  Uiso   1.00
H354   H     0.52294   0.50500   0.40201   0.00000  Uiso   1.00
O355   O     0.50000   0.50000   0.25000   0.00000  Uiso   1.00
O356   O     0.49027   0.45726   0.16625   0.00000  Uiso   1.00
O357   O     0.46020   0.53979   0.33749   0.00000  Uiso   1.00
O358   O     0.54421   0.50826   0.15877   0.00000  Uiso   1.00
O359   O     0.50532   0.49468   0.33749   0.00000  Uiso   1.00
O360   O     0.37054   0.50186   0.03719   0.00000  Uiso   1.00
O361   O     0.62529   0.44506   0.01784   0.00000  Uiso   1.00
O362   O     0.35708   0.53281   0.20893   0.00000  Uiso   1.00
O363   O     0.41731   0.46604   0.07309   0.00000  Uiso   1.00
O364   O     0.51182   0.41434   0.27820   0.00000  Uiso   1.00
O365   O     0.47914   0.59469   0.26767   0.00000  Uiso   1.00
O366   O     0.40785   0.46584   0.23607   0.00000  Uiso   1.00
O367   O     0.60119   0.52512   0.21806   0.00000  Uiso   1.00
O368   O     0.40323   0.52293   0.27820   0.00000  Uiso   1.00
O369   O     0.58773   0.48610   0.26768   0.00000  Uiso   1.00
O370   O     0.47133   0.40236   0.23607   0.00000  Uiso   1.00
O371   O     0.53771   0.58860   0.21806   0.00000  Uiso   1.00
Zn372  Zn    0.52577   0.47423   0.28277   0.00000  Uiso   1.00
Zn373  Zn    0.46792   0.45711   0.22257   0.00000  Uiso   1.00
Zn374  Zn    0.54500   0.52997   0.21188   0.00000  Uiso   1.00
Zn375  Zn    0.46131   0.53868   0.28277   0.00000  Uiso   1.00
C376   C     0.71913   0.49299   0.25900   0.00000  Uiso   1.00
C377   C     0.87460   0.47212   0.45818   0.00000  Uiso   1.00
C378   C     0.90072   0.45974   0.47796   0.00000  Uiso   1.00
C379   C     0.94780   0.50725   0.24132   0.00000  Uiso   1.00
C380   C     0.88781   0.46086   0.01892   0.00000  Uiso   1.00
C381   C     0.84571   0.47106   0.04027   0.00000  Uiso   1.00
C382   C     0.91708   0.45309   0.03884   0.00000  Uiso   1.00
C383   C     0.90568   0.45876   0.08003   0.00000  Uiso   1.00
C384   C     0.83550   0.47629   0.08179   0.00000  Uiso   1.00
C385   C     0.99398   0.51118   0.23816   0.00000  Uiso   1.00
C386   C     0.67388   0.49085   0.26190   0.00000  Uiso   1.00
C387   C     0.75588   0.53169   0.42056   0.00000  Uiso   1.00
C388   C     0.84777   0.65556   0.23797   0.00000  Uiso   1.00
C389   C     0.81841   0.34534   0.26203   0.00000  Uiso   1.00
C390   C     0.82271   0.38941   0.25883   0.00000  Uiso   1.00
C391   C     0.84361   0.61103   0.24128   0.00000  Uiso   1.00
C392   C     0.85483   0.47888   0.14394   0.00000  Uiso   1.00
C393   C     0.81183   0.52062   0.35623   0.00000  Uiso   1.00
C394   C     0.79753   0.52268   0.39953   0.00000  Uiso   1.00
C395   C     0.86507   0.47006   0.10127   0.00000  Uiso   1.00
C396   C     0.73979   0.52496   0.46026   0.00000  Uiso   1.00
C397   C     0.70016   0.53878   0.06321   0.00000  Uiso   1.00
C398   C     0.82370   0.50915   0.41909   0.00000  Uiso   1.00
C399   C     0.96398   0.40390   0.02211   0.00000  Uiso   1.00
C400   C     0.69210   0.57590   0.22166   0.00000  Uiso   1.00
C401   C     0.74026   0.42254   0.06573   0.00000  Uiso   1.00
C402   C     0.80782   0.50061   0.45887   0.00000  Uiso   1.00
C403   C     0.76499   0.50870   0.47955   0.00000  Uiso   1.00
C404   C     0.83336   0.48440   0.47845   0.00000  Uiso   1.00
C405   C     0.81685   0.47936   0.01942   0.00000  Uiso   1.00
C406   C     0.77200   0.48204   0.03759   0.00000  Uiso   1.00
C407   C     0.74726   0.49909   0.01866   0.00000  Uiso   1.00
H408   H     0.98463   0.47255   0.28414   0.00000  Uiso   1.00
H409   H     0.88766   0.47086   0.42666   0.00000  Uiso   1.00
H410   H     0.71451   0.56695   0.04724   0.00000  Uiso   1.00
H411   H     0.71523   0.53782   0.08731   0.00000  Uiso   1.00
H412   H     0.99866   0.54165   0.07705   0.00000  Uiso   1.00
H413   H     0.93834   0.38075   0.01390   0.00000  Uiso   1.00
H414   H     0.96482   0.40087   0.05256   0.00000  Uiso   1.00
H415   H     0.99551   0.39631   0.00184   0.00000  Uiso   1.00
H416   H     0.70135   0.58295   0.24978   0.00000  Uiso   1.00
H417   H     0.99421   0.58787   0.22490   0.00000  Uiso   1.00
H418   H     0.71727   0.59300   0.19902   0.00000  Uiso   1.00
H419   H     0.87493   0.33631   0.21583   0.00000  Uiso   1.00
H420   H     0.76991   0.40647   0.05362   0.00000  Uiso   1.00
H421   H     0.71919   0.41525   0.04550   0.00000  Uiso   1.00
H422   H     0.72204   0.40990   0.09405   0.00000  Uiso   1.00
H423   H     0.79086   0.66533   0.28421   0.00000  Uiso   1.00
H424   H     0.80646   0.48889   0.09971   0.00000  Uiso   1.00
H425   H     0.92897   0.45545   0.09546   0.00000  Uiso   1.00
H426   H     0.93212   0.45095   0.46089   0.00000  Uiso   1.00
H427   H     0.70700   0.53129   0.47544   0.00000  Uiso   1.00
H428   H     0.73499   0.54199   0.40589   0.00000  Uiso   1.00
H429   H     0.85628   0.50500   0.40201   0.00000  Uiso   1.00
O430   O     0.83333   0.50000   0.25000   0.00000  Uiso   1.00
O431   O     0.82360   0.45726   0.16625   0.00000  Uiso   1.00
O432   O     0.79354   0.53979   0.33749   0.00000  Uiso   1.00
O433   O     0.87755   0.50826   0.15877   0.00000  Uiso   1.00
O434   O     0.83865   0.49468   0.33749   0.00000  Uiso   1.00
O435   O     0.70387   0.50186   0.03719   0.00000  Uiso   1.00
O436   O     0.95863   0.44506   0.01784   0.00000  Uiso   1.00
O437   O     0.69041   0.53281   0.20893   0.00000  Uiso   1.00
O438   O     0.75064   0.46604   0.07309   0.00000  Uiso   1.00
O439   O     0.84515   0.41434   0.27820   0.00000  Uiso   1.00
O440   O     0.81247   0.59469   0.26767   0.00000  Uiso   1.00
O441   O     0.74119   0.46584   0.23607   0.00000  Uiso   1.00
O442   O     0.93452   0.52512   0.21806   0.00000  Uiso   1.00
O443   O     0.73656   0.52293   0.27820   0.00000  Uiso   1.00
O444   O     0.92106   0.48610   0.26768   0.00000  Uiso   1.00
O445   O     0.80467   0.40236   0.23607   0.00000  Uiso   1.00
O446   O     0.87104   0.58860   0.21806   0.00000  Uiso   1.00
Zn447  Zn    0.85910   0.47423   0.28277   0.00000  Uiso   1.00
Zn448  Zn    0.80125   0.45711   0.22257   0.00000  Uiso   1.00
Zn449  Zn    0.87833   0.52997   0.21188   0.00000  Uiso   1.00
Zn450  Zn    0.79465   0.53868   0.28277   0.00000  Uiso   1.00
C451   C     0.05246   0.82632   0.25900   0.00000  Uiso   1.00
C452   C     0.20793   0.80545   0.45818   0.00000  Uiso   1.00
C453   C     0.23405   0.79308   0.47796   0.00000  Uiso   1.00
C454   C     0.28114   0.84058   0.24132   0.00000  Uiso   1.00
C455   C     0.22115   0.79419   0.01892   0.00000  Uiso   1.00
C456   C     0.17904   0.80439   0.04027   0.00000  Uiso   1.00
C457   C     0.25041   0.78642   0.03884   0.00000  Uiso   1.00
C458   C     0.23902   0.79209   0.08003   0.00000  Uiso   1.00
C459   C     0.16883   0.80962   0.08179   0.00000  Uiso   1.00
C460   C     0.32731   0.84452   0.23816   0.00000  Uiso   1.00
C461   C     0.00721   0.82418   0.26190   0.00000  Uiso   1.00
C462   C     0.08921   0.86503   0.42056   0.00000  Uiso   1.00
C463   C     0.18110   0.98890   0.23797   0.00000  Uiso   1.00
C464   C     0.15174   0.67868   0.26203   0.00000  Uiso   1.00
C465   C     0.15604   0.72274   0.25883   0.00000  Uiso   1.00
C466   C     0.17694   0.94437   0.24128   0.00000  Uiso   1.00
C467   C     0.18816   0.81221   0.14394   0.00000  Uiso   1.00
C468   C     0.14516   0.85395   0.35623   0.00000  Uiso   1.00
C469   C     0.13087   0.85601   0.39953   0.00000  Uiso   1.00
C470   C     0.19840   0.80339   0.10127   0.00000  Uiso   1.00
C471   C     0.07313   0.85829   0.46026   0.00000  Uiso   1.00
C472   C     0.03349   0.87212   0.06321   0.00000  Uiso   1.00
C473   C     0.15703   0.84248   0.41909   0.00000  Uiso   1.00
C474   C     0.29731   0.73723   0.02211   0.00000  Uiso   1.00
C475   C     0.02543   0.90924   0.22166   0.00000  Uiso   1.00
C476   C     0.07359   0.75587   0.06573   0.00000  Uiso   1.00
C477   C     0.14115   0.83395   0.45887   0.00000  Uiso   1.00
C478   C     0.09832   0.84203   0.47955   0.00000  Uiso   1.00
C479   C     0.16670   0.81774   0.47845   0.00000  Uiso   1.00
C480   C     0.15019   0.81269   0.01942   0.00000  Uiso   1.00
C481   C     0.10533   0.81537   0.03759   0.00000  Uiso   1.00
C482   C     0.08059   0.83242   0.01866   0.00000  Uiso   1.00
H483   H     0.31796   0.80588   0.28414   0.00000  Uiso   1.00
H484   H     0.22099   0.80419   0.42666   0.00000  Uiso   1.00
H485   H     0.04784   0.90028   0.04724   0.00000  Uiso   1.00
H486   H     0.04857   0.87116   0.08731   0.00000  Uiso   1.00
H487   H     0.33199   0.87498   0.07705   0.00000  Uiso   1.00
H488   H     0.27167   0.71408   0.01390   0.00000  Uiso   1.00
H489   H     0.29816   0.73420   0.05256   0.00000  Uiso   1.00
H490   H     0.32884   0.72964   0.00184   0.00000  Uiso   1.00
H491   H     0.03468   0.91629   0.24978   0.00000  Uiso   1.00
H492   H     0.32754   0.92120   0.22490   0.00000  Uiso   1.00
H493   H     0.05060   0.92633   0.19902   0.00000  Uiso   1.00
H494   H     0.20826   0.66964   0.21583   0.00000  Uiso   1.00
H495   H     0.10324   0.73980   0.05362   0.00000  Uiso   1.00
H496   H     0.05253   0.74858   0.04550   0.00000  Uiso   1.00
H497   H     0.05537   0.74324   0.09405   0.00000  Uiso   1.00
H498   H     0.12419   0.99866   0.28421   0.00000  Uiso   1.00
H499   H     0.13979   0.82222   0.09971   0.00000  Uiso   1.00
H500   H     0.26230   0.78878   0.09546   0.00000  Uiso   1.00
H501   H     0.26546   0.78429   0.46089   0.00000  Uiso   1.00
H502   H     0.04034   0.86462   0.47544   0.00000  Uiso   1.00
H503   H     0.06832   0.87532   0.40589   0.00000  Uiso   1.00
H504   H     0.18961   0.83834   0.40201   0.00000  Uiso   1.00
O505   O     0.16667   0.83333   0.25000   0.00000  Uiso   1.00
O506   O     0.15693   0.79060   0.16625   0.00000  Uiso   1.00
O507   O     0.12687   0.87313   0.33749   0.00000  Uiso   1.00
O508   O     0.21088   0.84159   0.15877   0.00000  Uiso   1.00
O509   O     0.17198   0.82802   0.33749   0.00000  Uiso   1.00
O510   O     0.03720   0.83520   0.03719   0.00000  Uiso   1.00
O511   O     0.29196   0.77840   0.01784   0.00000  Uiso   1.00
O512   O     0.02374   0.86615   0.20893   0.00000  Uiso   1.00
O513   O     0.08397   0.79937   0.07309   0.00000  Uiso   1.00
O514   O     0.17849   0.74768   0.27820   0.00000  Uiso   1.00
O515   O     0.14581   0.92803   0.26767   0.00000  Uiso   1.00
O516   O     0.07452   0.79917   0.23607   0.00000  Uiso   1.00
O517   O     0.26785   0.85845   0.21806   0.00000  Uiso   1.00
O518   O     0.06990   0.85627   0.27820   0.00000  Uiso   1.00
O519   O     0.25440   0.81944   0.26768   0.00000  Uiso   1.00
O520   O     0.13800   0.73570   0.23607   0.00000  Uiso   1.00
O521   O     0.20437   0.92193   0.21806   0.00000  Uiso   1.00
Zn522  Zn    0.19244   0.80756   0.28277   0.00000  Uiso   1.00
Zn523  Zn    0.13459   0.79044   0.22257   0.00000  Uiso   1.00
Zn524  Zn    0.21166   0.86331   0.21188   0.00000  Uiso   1.00
Zn525  Zn    0.12798   0.87202   0.28277   0.00000  Uiso   1.00
C526   C     0.38579   0.82632   0.25900   0.00000  Uiso   1.00
C527   C     0.54127   0.80545   0.45818   0.00000  Uiso   1.00
C528   C     0.56738   0.79308   0.47796   0.00000  Uiso   1.00
C529   C     0.61447   0.84058   0.24132   0.00000  Uiso   1.00
C530   C     0.55448   0.79419   0.01892   0.00000  Uiso   1.00
C531   C     0.51237   0.80439   0.04027   0.00000  Uiso   1.00
C532   C     0.58375   0.78642   0.03884   0.00000  Uiso   1.00
C533   C     0.57235   0.79209   0.08003   0.00000  Uiso   1.00
C534   C     0.50217   0.80962   0.08179   0.00000  Uiso   1.00
C535   C     0.66064   0.84452   0.23816   0.00000  Uiso   1.00
C536   C     0.34054   0.82418   0.26190   0.00000  Uiso   1.00
C537   C     0.42254   0.86503   0.42056   0.00000  Uiso   1.00
C538   C     0.51444   0.98890   0.23797   0.00000  Uiso   1.00
C539   C     0.48508   0.67868   0.26203   0.00000  Uiso   1.00
C540   C     0.48938   0.72274   0.25883   0.00000  Uiso   1.00
C541   C     0.51028   0.94437   0.24128   0.00000  Uiso   1.00
C542   C     0.52149   0.81221   0.14394   0.00000  Uiso   1.00
C543   C     0.47850   0.85395   0.35623   0.00000  Uiso   1.00
C544   C     0.46420   0.85601   0.39953   0.00000  Uiso   1.00
C545   C     0.53174   0.80339   0.10127   0.00000  Uiso   1.00
C546   C     0.40646   0.85829   0.46026   0.00000  Uiso   1.00
C547   C     0.36683   0.87212   0.06321   0.00000  Uiso   1.00
C548   C     0.49036   0.84248   0.41909   0.00000  Uiso   1.00
C549   C     0.63065   0.73723   0.02211   0.00000  Uiso   1.00
C550   C     0.35877   0.90924   0.22166   0.00000  Uiso   1.00
C551   C     0.40693   0.75587   0.06573   0.00000  Uiso   1.00
C552   C     0.47449   0.83395   0.45887   0.00000  Uiso   1.00
C553   C     0.43165   0.84203   0.47955   0.00000  Uiso   1.00
C554   C     0.50003   0.81774   0.47845   0.00000  Uiso   1.00
C555   C     0.48352   0.81269   0.01942   0.00000  Uiso   1.00
C556   C     0.43866   0.81537   0.03759   0.00000  Uiso   1.00
C557   C     0.41392   0.83242   0.01866   0.00000  Uiso   1.00
H558   H     0.65129   0.80588   0.28414   0.00000  Uiso   1.00
H559   H     0.55433   0.80419   0.42666   0.00000  Uiso   1.00
H560   H     0.38117   0.90028   0.04724   0.00000  Uiso   1.00
H561   H     0.38190   0.87116   0.08731   0.00000  Uiso   1.00
H562   H     0.66532   0.87498   0.07705   0.00000  Uiso   1.00
H563   H     0.60501   0.71408   0.01390   0.00000  Uiso   1.00
H564   H     0.63149   0.73420   0.05256   0.00000  Uiso   1.00
H565   H     0.66217   0.72964   0.00184   0.00000  Uiso   1.00
H566   H     0.36801   0.91629   0.24978   0.00000  Uiso   1.00
H567   H     0.66088   0.92120   0.22490   0.00000  Uiso   1.00
H568   H     0.38394   0.92633   0.19902   0.00000  Uiso   1.00
H569   H     0.54160   0.66964   0.21583   0.00000  Uiso   1.00
H570   H     0.43658   0.73980   0.05362   0.00000  Uiso   1.00
H571   H     0.38586   0.74858   0.04550   0.00000  Uiso   1.00
H572   H     0.38871   0.74324   0.09405   0.00000  Uiso   1.00
H573   H     0.45753   0.99866   0.28421   0.00000  Uiso   1.00
H574   H     0.47312   0.82222   0.09971   0.00000  Uiso   1.00
H575   H     0.59564   0.78878   0.09546   0.00000  Uiso   1.00
H576   H     0.59879   0.78429   0.46089   0.00000  Uiso   1.00
H577   H     0.37367   0.86462   0.47544   0.00000  Uiso   1.00
H578   H     0.40166   0.87532   0.40589   0.00000  Uiso   1.00
H579   H     0.52294   0.83834   0.40201   0.00000  Uiso   1.00
O580   O     0.50000   0.83333   0.25000   0.00000  Uiso   1.00
O581   O     0.49027   0.79060   0.16625   0.00000  Uiso   1.00
O582   O     0.46020   0.87313   0.33749   0.00000  Uiso   1.00
O583   O     0.54421   0.84159   0.15877   0.00000  Uiso   1.00
O584   O     0.50532   0.82802   0.33749   0.00000  Uiso   1.00
O585   O     0.37054   0.83520   0.03719   0.00000  Uiso   1.00
O586   O     0.62529   0.77840   0.01784   0.00000  Uiso   1.00
O587   O     0.35708   0.86615   0.20893   0.00000  Uiso   1.00
O588   O     0.41731   0.79937   0.07309   0.00000  Uiso   1.00
O589   O     0.51182   0.74768   0.27820   0.00000  Uiso   1.00
O590   O     0.47914   0.92803   0.26767   0.00000  Uiso   1.00
O591   O     0.40785   0.79917   0.23607   0.00000  Uiso   1.00
O592   O     0.60119   0.85845   0.21806   0.00000  Uiso   1.00
O593   O     0.40323   0.85627   0.27820   0.00000  Uiso   1.00
O594   O     0.58773   0.81944   0.26768   0.00000  Uiso   1.00
O595   O     0.47133   0.73570   0.23607   0.00000  Uiso   1.00
O596   O     0.53771   0.92193   0.21806   0.00000  Uiso   1.00
Zn597  Zn    0.52577   0.80756   0.28277   0.00000  Uiso   1.00
Zn598  Zn    0.46792   0.79044   0.22257   0.00000  Uiso   1.00
Zn599  Zn    0.54500   0.86331   0.21188   0.00000  Uiso   1.00
Zn600  Zn    0.46131   0.87202   0.28277   0.00000  Uiso   1.00
C601   C     0.71913   0.82632   0.25900   0.00000  Uiso   1.00
C602   C     0.87460   0.80545   0.45818   0.00000  Uiso   1.00
C603   C     0.90072   0.79308   0.47796   0.00000  Uiso   1.00
C604   C     0.94780   0.84058   0.24132   0.00000  Uiso   1.00
C605   C     0.88781   0.79419   0.01892   0.00000  Uiso   1.00
C606   C     0.84571   0.80439   0.04027   0.00000  Uiso   1.00
C607   C     0.91708   0.78642   0.03884   0.00000  Uiso   1.00
C608   C     0.90568   0.79209   0.08003   0.00000  Uiso   1.00
C609   C     0.83550   0.80962   0.08179   0.00000  Uiso   1.00
C610   C     0.99398   0.84452   0.23816   0.00000  Uiso   1.00
C611   C     0.67388   0.82418   0.26190   0.00000  Uiso   1.00
C612   C     0.75588   0.86503   0.42056   0.00000  Uiso   1.00
C613   C     0.84777   0.98890   0.23797   0.00000  Uiso   1.00
C614   C     0.81841   0.67868   0.26203   0.00000  Uiso   1.00
C615   C     0.82271   0.72274   0.25883   0.00000  Uiso   1.00
C616   C     0.84361   0.94437   0.24128   0.00000  Uiso   1.00
C617   C     0.85483   0.81221   0.14394   0.00000  Uiso   1.00
C618   C     0.81183   0.85395   0.35623   0.00000  Uiso   1.00
C619   C     0.79753   0.85601   0.39953   0.00000  Uiso   1.00
C620   C     0.86507   0.80339   0.10127   0.00000  Uiso   1.00
C621   C     0.73979   0.85829   0.46026   0.00000  Uiso   1.00
C622   C     0.70016   0.87212   0.06321   0.00000  Uiso   1.00
C623   C     0.82370   0.84248   0.41909   0.00000  Uiso   1.00
C624   C     0.96398   0.73723   0.02211   0.00000  Uiso   1.00
C625   C     0.69210   0.90924   0.22166   0.00000  Uiso   1.00
C626   C     0.74026   0.75587   0.06573   0.00000  Uiso   1.00
C627   C     0.80782   0.83395   0.45887   0.00000  Uiso   1.00
C628   C     0.76499   0.84203   0.47955   0.00000  Uiso   1.00
C629   C     0.83336   0.81774   0.47845   0.00000  Uiso   1.00
C630   C     0.81685   0.81269   0.01942   0.00000  Uiso   1.00
C631   C     0.77200   0.81537   0.03759   0.00000  Uiso   1.00
C632   C     0.74726   0.83242   0.01866   0.00000  Uiso   1.00
H633   H     0.98463   0.80588   0.28414   0.00000  Uiso   1.00
H634   H     0.88766   0.80419   0.42666   0.00000  Uiso   1.00
H635   H     0.71451   0.90028   0.04724   0.00000  Uiso   1.00
H636   H     0.71523   0.87116   0.08731   0.00000  Uiso   1.00
H637   H     0.99866   0.87498   0.07705   0.00000  Uiso   1.00
H638   H     0.93834   0.71408   0.01390   0.00000  Uiso   1.00
H639   H     0.96482   0.73420   0.05256   0.00000  Uiso   1.00
H640   H     0.99551   0.72964   0.00184   0.00000  Uiso   1.00
H641   H     0.70135   0.91629   0.24978   0.00000  Uiso   1.00
H642   H     0.99421   0.92120   0.22490   0.00000  Uiso   1.00
H643   H     0.71727   0.92633   0.19902   0.00000  Uiso   1.00
H644   H     0.87493   0.66964   0.21583   0.00000  Uiso   1.00
H645   H     0.76991   0.73980   0.05362   0.00000  Uiso   1.00
H646   H     0.71919   0.74858   0.04550   0.00000  Uiso   1.00
H647   H     0.72204   0.74324   0.09405   0.00000  Uiso   1.00
H648   H     0.79086   0.99866   0.28421   0.00000  Uiso   1.00
H649   H     0.80646   0.82222   0.09971   0.00000  Uiso   1.00
H650   H     0.92897   0.78878   0.09546   0.00000  Uiso   1.00
H651   H     0.93212   0.78429   0.46089   0.00000  Uiso   1.00
H652   H     0.70700   0.86462   0.47544   0.00000  Uiso   1.00
H653   H     0.73499   0.87532   0.40589   0.00000  Uiso   1.00
H654   H     0.85628   0.83834   0.40201   0.00000  Uiso   1.00
O655   O     0.83333   0.83333   0.25000   0.00000  Uiso   1.00
O656   O     0.82360   0.79060   0.16625   0.00000  Uiso   1.00
O657   O     0.79354   0.87313   0.33749   0.00000  Uiso   1.00
O658   O     0.87755   0.84159   0.15877   0.00000  Uiso   1.00
O659   O     0.83865   0.82802   0.33749   0.00000  Uiso   1.00
O660   O     0.70387   0.83520   0.03719   0.00000  Uiso   1.00
O661   O     0.95863   0.77840   0.01784   0.00000  Uiso   1.00
O662   O     0.69041   0.86615   0.20893   0.00000  Uiso   1.00
O663   O     0.75064   0.79937   0.07309   0.00000  Uiso   1.00
O664   O     0.84515   0.74768   0.27820   0.00000  Uiso   1.00
O665   O     0.81247   0.92803   0.26767   0.00000  Uiso   1.00
O666   O     0.74119   0.79917   0.23607   0.00000  Uiso   1.00
O667   O     0.93452   0.85845   0.21806   0.00000  Uiso   1.00
O668   O     0.73656   0.85627   0.27820   0.00000  Uiso   1.00
O669   O     0.92106   0.81944   0.26768   0.00000  Uiso   1.00
O670   O     0.80467   0.73570   0.23607   0.00000  Uiso   1.00
O671   O     0.87104   0.92193   0.21806   0.00000  Uiso   1.00
Zn672  Zn    0.85910   0.80756   0.28277   0.00000  Uiso   1.00
Zn673  Zn    0.80125   0.79044   0.22257   0.00000  Uiso   1.00
Zn674  Zn    0.87833   0.86331   0.21188   0.00000  Uiso   1.00
Zn675  Zn    0.79465   0.87202   0.28277   0.00000  Uiso   1.00
C676   C     0.05246   0.15965   0.75900   0.00000  Uiso   1.00
C677   C     0.20793   0.13879   0.95818   0.00000  Uiso   1.00
C678   C     0.23405   0.12641   0.97796   0.00000  Uiso   1.00
C679   C     0.28114   0.17391   0.74132   0.00000  Uiso   1.00
C680   C     0.22115   0.12752   0.51892   0.00000  Uiso   1.00
C681   C     0.17904   0.13773   0.54027   0.00000  Uiso   1.00
C682   C     0.25041   0.11975   0.53884   0.00000  Uiso   1.00
C683   C     0.23902   0.12543   0.58003   0.00000  Uiso   1.00
C684   C     0.16883   0.14295   0.58179   0.00000  Uiso   1.00
C685   C     0.32731   0.17785   0.73816   0.00000  Uiso   1.00
C686   C     0.00721   0.15752   0.76190   0.00000  Uiso   1.00
C687   C     0.08921   0.19836   0.92056   0.00000  Uiso   1.00
C688   C     0.18110   0.32223   0.73797   0.00000  Uiso   1.00
C689   C     0.15174   0.01201   0.76203   0.00000  Uiso   1.00
C690   C     0.15604   0.05608   0.75883   0.00000  Uiso   1.00
C691   C     0.17694   0.27770   0.74128   0.00000  Uiso   1.00
C692   C     0.18816   0.14555   0.64394   0.00000  Uiso   1.00
C693   C     0.14516   0.18729   0.85623   0.00000  Uiso   1.00
C694   C     0.13087   0.18935   0.89953   0.00000  Uiso   1.00
C695   C     0.19840   0.13673   0.60127   0.00000  Uiso   1.00
C696   C     0.07313   0.19162   0.96026   0.00000  Uiso   1.00
C697   C     0.03349   0.20545   0.56321   0.00000  Uiso   1.00
C698   C     0.15703   0.17582   0.91909   0.00000  Uiso   1.00
C699   C     0.29731   0.07057   0.52211   0.00000  Uiso   1.00
C700   C     0.02543   0.24257   0.72166   0.00000  Uiso   1.00
C701   C     0.07359   0.08921   0.56573   0.00000  Uiso   1.00
C702   C     0.14115   0.16728   0.95887   0.00000  Uiso   1.00
C703   C     0.09832   0.17537   0.97955   0.00000  Uiso   1.00
C704   C     0.16670   0.15107   0.97845   0.00000  Uiso   1.00
C705   C     0.15019   0.14603   0.51942   0.00000  Uiso   1.00
C706   C     0.10533   0.14870   0.53759   0.00000  Uiso   1.00
C707   C     0.08059   0.16576   0.51866   0.00000  Uiso   1.00
H708   H     0.31796   0.13922   0.78414   0.00000  Uiso   1.00
H709   H     0.22099   0.13753   0.92666   0.00000  Uiso   1.00
H710   H     0.04784   0.23362   0.54724   0.00000  Uiso   1.00
H711   H     0.04857   0.20449   0.58731   0.00000  Uiso   1.00
H712   H     0.33199   0.20832   0.57705   0.00000  Uiso   1.00
H713   H     0.27167   0.04741   0.51390   0.00000  Uiso   1.00
H714   H     0.29816   0.06754   0.55256   0.00000  Uiso   1.00
H715   H     0.32884   0.06298   0.50184   0.00000  Uiso   1.00
H716   H     0.03468   0.24962   0.74978   0.00000  Uiso   1.00
H717   H     0.32754   0.25453   0.72490   0.00000  Uiso   1.00
H718   H     0.05060   0.25966   0.69902   0.00000  Uiso   1.00
H719   H     0.20826   0.00298   0.71583   0.00000  Uiso   1.00
H720   H     0.10324   0.07313   0.55362   0.00000  Uiso   1.00
H721   H     0.05253   0.08191   0.54550   0.00000  Uiso   1.00
H722   H     0.05537   0.07657   0.59405   0.00000  Uiso   1.00
H723   H     0.12419   0.33199   0.78421   0.00000  Uiso   1.00
H724   H     0.13979   0.15555   0.59971   0.00000  Uiso   1.00
H725   H     0.26230   0.12211   0.59546   0.00000  Uiso   1.00
H726   H     0.26546   0.11762   0.96089   0.00000  Uiso   1.00
H727   H     0.04034   0.19796   0.97544   0.00000  Uiso   1.00
H728   H     0.06832   0.20865   0.90589   0.00000  Uiso   1.00
H729   H     0.18961   0.17167   0.90201   0.00000  Uiso   1.00
O730   O     0.16667   0.16667   0.75000   0.00000  Uiso   1.00
O731   O     0.15693   0.12393   0.66625   0.00000  Uiso   1.00
O732   O     0.12687   0.20646   0.83749   0.00000  Uiso   1.00
O733   O     0.21088   0.17493   0.65877   0.00000  Uiso   1.00
O734   O     0.17198   0.16135   0.83749   0.00000  Uiso   1.00
O735   O     0.03720   0.16853   0.53719   0.00000  Uiso   1.00
O736   O     0.29196   0.11173   0.51784   0.00000  Uiso   1.00
O737   O     0.02374   0.19948   0.70893   0.00000  Uiso   1.00
O738   O     0.08397   0.13271   0.57309   0.00000  Uiso   1.00
O739   O     0.17849   0.08101   0.77820   0.00000  Uiso   1.00
O740   O     0.14581   0.26136   0.76767   0.00000  Uiso   1.00
O741   O     0.07452   0.13251   0.73607   0.00000  Uiso   1.00
O742   O     0.26785   0.19179   0.71806   0.00000  Uiso   1.00
O743   O     0.06990   0.18960   0.77820   0.00000  Uiso   1.00
O744   O     0.25440   0.15277   0.76768   0.00000  Uiso   1.00
O745   O     0.13800   0.06903   0.73607   0.00000  Uiso   1.00
O746   O     0.20437   0.25527   0.71806   0.00000  Uiso   1.00
Zn747  Zn    0.19244   0.14090   0.78277   0.00000  Uiso   1.00
Zn748  Zn    0.13459   0.12378   0.72257   0.00000  Uiso   1.00
Zn749  Zn    0.21166   0.19664   0.71188   0.00000  Uiso   1.00
Zn750  Zn    0.12798   0.20535   0.78277   0.00000  Uiso   1.00
C751   C     0.38579   0.15965   0.75900   0.00000  Uiso   1.00
C752   C     0.54127   0.13879   0.95818   0.00000  Uiso   1.00
C753   C     0.56738   0.12641   0.97796   0.00000  Uiso   1.00
C754   C     0.61447   0.17391   0.74132   0.00000  Uiso   1.00
C755   C     0.55448   0.12752   0.51892   0.00000  Uiso   1.00
C756   C     0.51237   0.13773   0.54027   0.00000  Uiso   1.00
C757   C     0.58375   0.11975   0.53884   0.00000  Uiso   1.00
C758   C     0.57235   0.12543   0.58003   0.00000  Uiso   1.00
C759   C     0.50217   0.14295   0.58179   0.00000  Uiso   1.00
C760   C     0.66064   0.17785   0.73816   0.00000  Uiso   1.00
C761   C     0.34054   0.15752   0.76190   0.00000  Uiso   1.00
C762   C     0.42254   0.19836   0.92056   0.00000  Uiso   1.00
C763   C     0.51444   0.32223   0.73797   0.00000  Uiso   1.00
C764   C     0.48508   0.01201   0.76203   0.00000  Uiso   1.00
C765   C     0.48938   0.05608   0.75883   0.00000  Uiso   1.00
C766   C     0.51028   0.27770   0.74128   0.00000  Uiso   1.00
C767   C     0.52149   0.14555   0.64394   0.00000  Uiso   1.00
C768   C     0.47850   0.18729   0.85623   0.00000  Uiso   1.00
C769   C     0.46420   0.18935   0.89953   0.00000  Uiso   1.00
C770   C     0.53174   0.13673   0.60127   0.00000  Uiso   1.00
C771   C     0.40646   0.19162   0.96026   0.00000  Uiso   1.00
C772   C     0.36683   0.20545   0.56321   0.00000  Uiso   1.00
C773   C     0.49036   0.17582   0.91909   0.00000  Uiso   1.00
C774   C     0.63065   0.07057   0.52211   0.00000  Uiso   1.00
C775   C     0.35877   0.24257   0.72166   0.00000  Uiso   1.00
C776   C     0.40693   0.08921   0.56573   0.00000  Uiso   1.00
C777   C     0.47449   0.16728   0.95887   0.00000  Uiso   1.00
C778   C     0.43165   0.17537   0.97955   0.00000  Uiso   1.00
C779   C     0.50003   0.15107   0.97845   0.00000  Uiso   1.00
C780   C     0.48352   0.14603   0.51942   0.00000  Uiso   1.00
C781   C     0.43866   0.14870   0.53759   0.00000  Uiso   1.00
C782   C     0.41392   0.16576   0.51866   0.00000  Uiso   1.00
H783   H     0.65129   0.13922   0.78414   0.00000  Uiso   1.00
H784   H     0.55433   0.13753   0.92666   0.00000  Uiso   1.00
H785   H     0.38117   0.23362   0.54724   0.00000  Uiso   1.00
H786   H     0.38190   0.20449   0.58731   0.00000  Uiso   1.00
H787   H     0.66532   0.20832   0.57705   0.00000  Uiso   1.00
H788   H     0.60501   0.04741   0.51390   0.00000  Uiso   1.00
H789   H     0.63149   0.06754   0.55256   0.00000  Uiso   1.00
H790   H     0.66217   0.06298   0.50184   0.00000  Uiso   1.00
H791   H     0.36801   0.24962   0.74978   0.00000  Uiso   1.00
H792   H     0.66088   0.25453   0.72490   0.00000  Uiso   1.00
H793   H     0.38394   0.25966   0.69902   0.00000  Uiso   1.00
H794   H     0.54160   0.00298   0.71583   0.00000  Uiso   1.00
H795   H     0.43658   0.07313   0.55362   0.00000  Uiso   1.00
H796   H     0.38586   0.08191   0.54550   0.00000  Uiso   1.00
H797   H     0.38871   0.07657   0.59405   0.00000  Uiso   1.00
H798   H     0.45753   0.33199   0.78421   0.00000  Uiso   1.00
H799   H     0.47312   0.15555   0.59971   0.00000  Uiso   1.00
H800   H     0.59564   0.12211   0.59546   0.00000  Uiso   1.00
H801   H     0.59879   0.11762   0.96089   0.00000  Uiso   1.00
H802   H     0.37367   0.19796   0.97544   0.00000  Uiso   1.00
H803   H     0.40166   0.20865   0.90589   0.00000  Uiso   1.00
H804   H     0.52294   0.17167   0.90201   0.00000  Uiso   1.00
O805   O     0.50000   0.16667   0.75000   0.00000  Uiso   1.00
O806   O     0.49027   0.12393   0.66625   0.00000  Uiso   1.00
O807   O     0.46020   0.20646   0.83749   0.00000  Uiso   1.00
O808   O     0.54421   0.17493   0.65877   0.00000  Uiso   1.00
O809   O     0.50532   0.16135   0.83749   0.00000  Uiso   1.00
O810   O     0.37054   0.16853   0.53719   0.00000  Uiso   1.00
O811   O     0.62529   0.11173   0.51784   0.00000  Uiso   1.00
O812   O     0.35708   0.19948   0.70893   0.00000  Uiso   1.00
O813   O     0.41731   0.13271   0.57309   0.00000  Uiso   1.00
O814   O     0.51182   0.08101   0.77820   0.00000  Uiso   1.00
O815   O     0.47914   0.26136   0.76767   0.00000  Uiso   1.00
O816   O     0.40785   0.13251   0.73607   0.00000  Uiso   1.00
O817   O     0.60119   0.19179   0.71806   0.00000  Uiso   1.00
O818   O     0.40323   0.18960   0.77820   0.00000  Uiso   1.00
O819   O     0.58773   0.15277   0.76768   0.00000  Uiso   1.00
O820   O     0.47133   0.06903   0.73607   0.00000  Uiso   1.00
O821   O     0.53771   0.25527   0.71806   0.00000  Uiso   1.00
Zn822  Zn    0.52577   0.14090   0.78277   0.00000  Uiso   1.00
Zn823  Zn    0.46792   0.12378   0.72257   0.00000  Uiso   1.00
Zn824  Zn    0.54500   0.19664   0.71188   0.00000  Uiso   1.00
Zn825  Zn    0.46131   0.20535   0.78277   0.00000  Uiso   1.00
C826   C     0.71913   0.15965   0.75900   0.00000  Uiso   1.00
C827   C     0.87460   0.13879   0.95818   0.00000  Uiso   1.00
C828   C     0.90072   0.12641   0.97796   0.00000  Uiso   1.00
C829   C     0.94780   0.17391   0.74132   0.00000  Uiso   1.00
C830   C     0.88781   0.12752   0.51892   0.00000  Uiso   1.00
C831   C     0.84571   0.13773   0.54027   0.00000  Uiso   1.00
C832   C     0.91708   0.11975   0.53884   0.00000  Uiso   1.00
C833   C     0.90568   0.12543   0.58003   0.00000  Uiso   1.00
C834   C     0.83550   0.14295   0.58179   0.00000  Uiso   1.00
C835   C     0.99398   0.17785   0.73816   0.00000  Uiso   1.00
C836   C     0.67388   0.15752   0.76190   0.00000  Uiso   1.00
C837   C     0.75588   0.19836   0.92056   0.00000  Uiso   1.00
C838   C     0.84777   0.32223   0.73797   0.00000  Uiso   1.00
C839   C     0.81841   0.01201   0.76203   0.00000  Uiso   1.00
C840   C     0.82271   0.05608   0.75883   0.00000  Uiso   1.00
C841   C     0.84361   0.27770   0.74128   0.00000  Uiso   1.00
C842   C     0.85483   0.14555   0.64394   0.00000  Uiso   1.00
C843   C     0.81183   0.18729   0.85623   0.00000  Uiso   1.00
C844   C     0.79753   0.18935   0.89953   0.00000  Uiso   1.00
C845   C     0.86507   0.13673   0.60127   0.00000  Uiso   1.00
C846   C     0.73979   0.19162   0.96026   0.00000  Uiso   1.00
C847   C     0.70016   0.20545   0.56321   0.00000  Uiso   1.00
C848   C     0.82370   0.17582   0.91909   0.00000  Uiso   1.00
C849   C     0.96398   0.07057   0.52211   0.00000  Uiso   1.00
C850   C     0.69210   0.24257   0.72166   0.00000  Uiso   1.00
C851   C     0.74026   0.08921   0.56573   0.00000  Uiso   1.00
C852   C     0.80782   0.16728   0.95887   0.00000  Uiso   1.00
C853   C     0.76499   0.17537   0.97955   0.00000  Uiso   1.00
C854   C     0.83336   0.15107   0.97845   0.00000  Uiso   1.00
C855   C     0.81685   0.14603   0.51942   0.00000  Uiso   1.00
C856   C     0.77200   0.14870   0.53759   0.00000  Uiso   1.00
C857   C     0.74726   0.16576   0.51866   0.00000  Uiso   1.00
H858   H     0.98463   0.13922   0.78414   0.00000  Uiso   1.00
H859   H     0.88766   0.13753   0.92666   0.00000  Uiso   1.00
H860   H     0.71451   0.23362   0.54724   0.00000  Uiso   1.00
H861   H     0.71523   0.20449   0.58731   0.00000  Uiso   1.00
H862   H     0.99866   0.20832   0.57705   0.00000  Uiso   1.00
H863   H     0.93834   0.04741   0.51390   0.00000  Uiso   1.00
H864   H     0.96482   0.06754   0.55256   0.00000  Uiso   1.00
H865   H     0.99551   0.06298   0.50184   0.00000  Uiso   1.00
H866   H     0.70135   0.24962   0.74978   0.00000  Uiso   1.00
H867   H     0.99421   0.25453   0.72490   0.00000  Uiso   1.00
H868   H     0.71727   0.25966   0.69902   0.00000  Uiso   1.00
H869   H     0.87493   0.00298   0.71583   0.00000  Uiso   1.00
H870   H     0.76991   0.07313   0.55362   0.00000  Uiso   1.00
H871   H     0.71919   0.08191   0.54550   0.00000  Uiso   1.00
H872   H     0.72204   0.07657   0.59405   0.00000  Uiso   1.00
H873   H     0.79086   0.33199   0.78421   0.00000  Uiso   1.00
H874   H     0.80646   0.15555   0.59971   0.00000  Uiso   1.00
H875   H     0.92897   0.12211   0.59546   0.00000  Uiso   1.00
H876   H     0.93212   0.11762   0.96089   0.00000  Uiso   1.00
H877   H     0.70700   0.19796   0.97544   0.00000  Uiso   1.00
H878   H     0.73499   0.20865   0.90589   0.00000  Uiso   1.00
H879   H     0.85628   0.17167   0.90201   0.00000  Uiso   1.00
O880   O     0.83333   0.16667   0.75000   0.00000  Uiso   1.00
O881   O     0.82360   0.12393   0.66625   0.00000  Uiso   1.00
O882   O     0.79354   0.20646   0.83749   0.00000  Uiso   1.00
O883   O     0.87755   0.17493   0.65877   0.00000  Uiso   1.00
O884   O     0.83865   0.16135   0.83749   0.00000  Uiso   1.00
O885   O     0.70387   0.16853   0.53719   0.00000  Uiso   1.00
O886   O     0.95863   0.11173   0.51784   0.00000  Uiso   1.00
O887   O     0.69041   0.19948   0.70893   0.00000  Uiso   1.00
O888   O     0.75064   0.13271   0.57309   0.00000  Uiso   1.00
O889   O     0.84515   0.08101   0.77820   0.00000  Uiso   1.00
O890   O     0.81247   0.26136   0.76767   0.00000  Uiso   1.00
O891   O     0.74119   0.13251   0.73607   0.00000  Uiso   1.00
O892   O     0.93452   0.19179   0.71806   0.00000  Uiso   1.00
O893   O     0.73656   0.18960   0.77820   0.00000  Uiso   1.00
O894   O     0.92106   0.15277   0.76768   0.00000  Uiso   1.00
O895   O     0.80467   0.06903   0.73607   0.00000  Uiso   1.00
O896   O     0.87104   0.25527   0.71806   0.00000  Uiso   1.00
Zn897  Zn    0.85910   0.14090   0.78277   0.00000  Uiso   1.00
Zn898  Zn    0.80125   0.12378   0.72257   0.00000  Uiso   1.00
Zn899  Zn    0.87833   0.19664   0.71188   0.00000  Uiso   1.00
Zn900  Zn    0.79465   0.20535   0.78277   0.00000  Uiso   1.00
C901   C     0.05246   0.49299   0.75900   0.00000  Uiso   1.00
C902   C     0.20793   0.47212   0.95818   0.00000  Uiso   1.00
C903   C     0.23405   0.45974   0.97796   0.00000  Uiso   1.00
C904   C     0.28114   0.50725   0.74132   0.00000  Uiso   1.00
C905   C     0.22115   0.46086   0.51892   0.00000  Uiso   1.00
C906   C     0.17904   0.47106   0.54027   0.00000  Uiso   1.00
C907   C     0.25041   0.45309   0.53884   0.00000  Uiso   1.00
C908   C     0.23902   0.45876   0.58003   0.00000  Uiso   1.00
C909   C     0.16883   0.47629   0.58179   0.00000  Uiso   1.00
C910   C     0.32731   0.51118   0.73816   0.00000  Uiso   1.00
C911   C     0.00721   0.49085   0.76190   0.00000  Uiso   1.00
C912   C     0.08921   0.53169   0.92056   0.00000  Uiso   1.00
C913   C     0.18110   0.65556   0.73797   0.00000  Uiso   1.00
C914   C     0.15174   0.34534   0.76203   0.00000  Uiso   1.00
C915   C     0.15604   0.38941   0.75883   0.00000  Uiso   1.00
C916   C     0.17694   0.61103   0.74128   0.00000  Uiso   1.00
C917   C     0.18816   0.47888   0.64394   0.00000  Uiso   1.00
C918   C     0.14516   0.52062   0.85623   0.00000  Uiso   1.00
C919   C     0.13087   0.52268   0.89953   0.00000  Uiso   1.00
C920   C     0.19840   0.47006   0.60127   0.00000  Uiso   1.00
C921   C     0.07313   0.52496   0.96026   0.00000  Uiso   1.00
C922   C     0.03349   0.53878   0.56321   0.00000  Uiso   1.00
C923   C     0.15703   0.50915   0.91909   0.00000  Uiso   1.00
C924   C     0.29731   0.40390   0.52211   0.00000  Uiso   1.00
C925   C     0.02543   0.57590   0.72166   0.00000  Uiso   1.00
C926   C     0.07359   0.42254   0.56573   0.00000  Uiso   1.00
C927   C     0.14115   0.50061   0.95887   0.00000  Uiso   1.00
C928   C     0.09832   0.50870   0.97955   0.00000  Uiso   1.00
C929   C     0.16670   0.48440   0.97845   0.00000  Uiso   1.00
C930   C     0.15019   0.47936   0.51942   0.00000  Uiso   1.00
C931   C     0.10533   0.48204   0.53759   0.00000  Uiso   1.00
C932   C     0.08059   0.49909   0.51866   0.00000  Uiso   1.00
H933   H     0.31796   0.47255   0.78414   0.00000  Uiso   1.00
H934   H     0.22099   0.47086   0.92666   0.00000  Uiso   1.00
H935   H     0.04784   0.56695   0.54724   0.00000  Uiso   1.00
H936   H     0.04857   0.53782   0.58731   0.00000  Uiso   1.00
H937   H     0.33199   0.54165   0.57705   0.00000  Uiso   1.00
H938   H     0.27167   0.38075   0.51390   0.00000  Uiso   1.00
H939   H     0.29816   0.40087   0.55256   0.00000  Uiso   1.00
H940   H     0.32884   0.39631   0.50184   0.00000  Uiso   1.00
H941   H     0.03468   0.58295   0.74978   0.00000  Uiso   1.00
H942   H     0.32754   0.58787   0.72490   0.00000  Uiso   1.00
H943   H     0.05060   0.59300   0.69902   0.00000  Uiso   1.00
H944   H     0.20826   0.33631   0.71583   0.00000  Uiso   1.00
H945   H     0.10324   0.40647   0.55362   0.00000  Uiso   1.00
H946   H     0.05253   0.41525   0.54550   0.00000  Uiso   1.00
H947   H     0.05537   0.40990   0.59405   0.00000  Uiso   1.00
H948   H     0.12419   0.66533   0.78421   0.00000  Uiso   1.00
H949   H     0.13979   0.48889   0.59971   0.00000  Uiso   1.00
H950   H     0.26230   0.45545   0.59546   0.00000  Uiso   1.00
H951   H     0.26546   0.45095   0.96089   0.00000  Uiso   1.00
H952   H     0.04034   0.53129   0.97544   0.00000  Uiso   1.00
H953   H     0.06832   0.54199   0.90589   0.00000  Uiso   1.00
H954   H     0.18961   0.50500   0.90201   0.00000  Uiso   1.00
O955   O     0.16667   0.50000   0.75000   0.00000  Uiso   1.00
O956   O     0.15693   0.45726   0.66625   0.00000  Uiso   1.00
O957   O     0.12687   0.53979   0.83749   0.00000  Uiso   1.00
O958   O     0.21088   0.50826   0.65877   0.00000  Uiso   1.00
O959   O     0.17198   0.49468   0.83749   0.00000  Uiso   1.00
O960   O     0.03720   0.50186   0.53719   0.00000  Uiso   1.00
O961   O     0.29196   0.44506   0.51784   0.00000  Uiso   1.00
O962   O     0.02374   0.53281   0.70893   0.00000  Uiso   1.00
O963   O     0.08397   0.46604   0.57309   0.00000  Uiso   1.00
O964   O     0.17849   0.41434   0.77820   0.00000  Uiso   1.00
O965   O     0.14581   0.59469   0.76767   0.00000  Uiso   1.00
O966   O     0.07452   0.46584   0.73607   0.00000  Uiso   1.00
O967   O     0.26785   0.52512   0.71806   0.00000  Uiso   1.00
O968   O     0.06990   0.52293   0.77820   0.00000  Uiso   1.00
O969   O     0.25440   0.48610   0.76768   0.00000  Uiso   1.00
O970   O     0.13800   0.40236   0.73607   0.00000  Uiso   1.00
O971   O     0.20437   0.58860   0.71806   0.00000  Uiso   1.00
Zn972  Zn    0.19244   0.47423   0.78277   0.00000  Uiso   1.00
Zn973  Zn    0.13459   0.45711   0.72257   0.00000  Uiso   1.00
Zn974  Zn    0.21166   0.52997   0.71188   0.00000  Uiso   1.00
Zn975  Zn    0.12798   0.53868   0.78277   0.00000  Uiso   1.00
C976   C     0.38579   0.49299   0.75900   0.00000  Uiso   1.00
C977   C     0.54127   0.47212   0.95818   0.00000  Uiso   1.00
C978   C     0.56738   0.45974   0.97796   0.00000  Uiso   1.00
C979   C     0.61447   0.50725   0.74132   0.00000  Uiso   1.00
C980   C     0.55448   0.46086   0.51892   0.00000  Uiso   1.00
C981   C     0.51237   0.47106   0.54027   0.00000  Uiso   1.00
C982   C     0.58375   0.45309   0.53884   0.00000  Uiso   1.00
C983   C     0.57235   0.45876   0.58003   0.00000  Uiso   1.00
C984   C     0.50217   0.47629   0.58179   0.00000  Uiso   1.00
C985   C     0.66064   0.51118   0.73816   0.00000  Uiso   1.00
C986   C     0.34054   0.49085   0.76190   0.00000  Uiso   1.00
C987   C     0.42254   0.53169   0.92056   0.00000  Uiso   1.00
C988   C     0.51444   0.65556   0.73797   0.00000  Uiso   1.00
C989   C     0.48508   0.34534   0.76203   0.00000  Uiso   1.00
C990   C     0.48938   0.38941   0.75883   0.00000  Uiso   1.00
C991   C     0.51028   0.61103   0.74128   0.00000  Uiso   1.00
C992   C     0.52149   0.47888   0.64394   0.00000  Uiso   1.00
C993   C     0.47850   0.52062   0.85623   0.00000  Uiso   1.00
C994   C     0.46420   0.52268   0.89953   0.00000  Uiso   1.00
C995   C     0.53174   0.47006   0.60127   0.00000  Uiso   1.00
C996   C     0.40646   0.52496   0.96026   0.00000  Uiso   1.00
C997   C     0.36683   0.53878   0.56321   0.00000  Uiso   1.00
C998   C     0.49036   0.50915   0.91909   0.00000  Uiso   1.00
C999   C     0.63065   0.40390   0.52211   0.00000  Uiso   1.00
C1000  C     0.35877   0.57590   0.72166   0.00000  Uiso   1.00
C1001  C     0.40693   0.42254   0.56573   0.00000  Uiso   1.00
C1002  C     0.47449   0.50061   0.95887   0.00000  Uiso   1.00
C1003  C     0.43165   0.50870   0.97955   0.00000  Uiso   1.00
C1004  C     0.50003   0.48440   0.97845   0.00000  Uiso   1.00
C1005  C     0.48352   0.47936   0.51942   0.00000  Uiso   1.00
C1006  C     0.43866   0.48204   0.53759   0.00000  Uiso   1.00
C1007  C     0.41392   0.49909   0.51866   0.00000  Uiso   1.00
H1008  H     0.65129   0.47255   0.78414   0.00000  Uiso   1.00
H1009  H     0.55433   0.47086   0.92666   0.00000  Uiso   1.00
H1010  H     0.38117   0.56695   0.54724   0.00000  Uiso   1.00
H1011  H     0.38190   0.53782   0.58731   0.00000  Uiso   1.00
H1012  H     0.66532   0.54165   0.57705   0.00000  Uiso   1.00
H1013  H     0.60501   0.38075   0.51390   0.00000  Uiso   1.00
H1014  H     0.63149   0.40087   0.55256   0.00000  Uiso   1.00
H1015  H     0.66217   0.39631   0.50184   0.00000  Uiso   1.00
H1016  H     0.36801   0.58295   0.74978   0.00000  Uiso   1.00
H1017  H     0.66088   0.58787   0.72490   0.00000  Uiso   1.00
H1018  H     0.38394   0.59300   0.69902   0.00000  Uiso   1.00
H1019  H     0.54160   0.33631   0.71583   0.00000  Uiso   1.00
H1020  H     0.43658   0.40647   0.55362   0.00000  Uiso   1.00
H1021  H     0.38586   0.41525   0.54550   0.00000  Uiso   1.00
H1022  H     0.38871   0.40990   0.59405   0.00000  Uiso   1.00
H1023  H     0.45753   0.66533   0.78421   0.00000  Uiso   1.00
H1024  H     0.47312   0.48889   0.59971   0.00000  Uiso   1.00
H1025  H     0.59564   0.45545   0.59546   0.00000  Uiso   1.00
H1026  H     0.59879   0.45095   0.96089   0.00000  Uiso   1.00
H1027  H     0.37367   0.53129   0.97544   0.00000  Uiso   1.00
H1028  H     0.40166   0.54199   0.90589   0.00000  Uiso   1.00
H1029  H     0.52294   0.50500   0.90201   0.00000  Uiso   1.00
O1030  O     0.50000   0.50000   0.75000   0.00000  Uiso   1.00
O1031  O     0.49027   0.45726   0.66625   0.00000  Uiso   1.00
O1032  O     0.46020   0.53979   0.83749   0.00000  Uiso   1.00
O1033  O     0.54421   0.50826   0.65877   0.00000  Uiso   1.00
O1034  O     0.50532   0.49468   0.83749   0.00000  Uiso   1.00
O1035  O     0.37054   0.50186   0.53719   0.00000  Uiso   1.00
O1036  O     0.62529   0.44506   0.51784   0.00000  Uiso   1.00
O1037  O     0.35708   0.53281   0.70893   0.00000  Uiso   1.00
O1038  O     0.41731   0.46604   0.57309   0.00000  Uiso   1.00
O1039  O     0.51182   0.41434   0.77820   0.00000  Uiso   1.00
O1040  O     0.47914   0.59469   0.76767   0.00000  Uiso   1.00
O1041  O     0.40785   0.46584   0.73607   0.00000  Uiso   1.00
O1042  O     0.60119   0.52512   0.71806   0.00000  Uiso   1.00
O1043  O     0.40323   0.52293   0.77820   0.00000  Uiso   1.00
O1044  O     0.58773   0.48610   0.76768   0.00000  Uiso   1.00
O1045  O     0.47133   0.40236   0.73607   0.00000  Uiso   1.00
O1046  O     0.53771   0.58860   0.71806   0.00000  Uiso   1.00
Zn1047 Zn    0.52577   0.47423   0.78277   0.00000  Uiso   1.00
Zn1048 Zn    0.46792   0.45711   0.72257   0.00000  Uiso   1.00
Zn1049 Zn    0.54500   0.52997   0.71188   0.00000  Uiso   1.00
Zn1050 Zn    0.46131   0.53868   0.78277   0.00000  Uiso   1.00
C1051  C     0.71913   0.49299   0.75900   0.00000  Uiso   1.00
C1052  C     0.87460   0.47212   0.95818   0.00000  Uiso   1.00
C1053  C     0.90072   0.45974   0.97796   0.00000  Uiso   1.00
C1054  C     0.94780   0.50725   0.74132   0.00000  Uiso   1.00
C1055  C     0.88781   0.46086   0.51892   0.00000  Uiso   1.00
C1056  C     0.84571   0.47106   0.54027   0.00000  Uiso   1.00
C1057  C     0.91708   0.45309   0.53884   0.00000  Uiso   1.00
C1058  C     0.90568   0.45876   0.58003   0.00000  Uiso   1.00
C1059  C     0.83550   0.47629   0.58179   0.00000  Uiso   1.00
C1060  C     0.99398   0.51118   0.73816   0.00000  Uiso   1.00
C1061  C     0.67388   0.49085   0.76190   0.00000  Uiso   1.00
C1062  C     0.75588   0.53169   0.92056   0.00000  Uiso   1.00
C1063  C     0.84777   0.65556   0.73797   0.00000  Uiso   1.00
C1064  C     0.81841   0.34534   0.76203   0.00000  Uiso   1.00
C1065  C     0.82271   0.38941   0.75883   0.00000  Uiso   1.00
C1066  C     0.84361   0.61103   0.74128   0.00000  Uiso   1.00
C1067  C     0.85483   0.47888   0.64394   0.00000  Uiso   1.00
C1068  C     0.81183   0.52062   0.85623   0.00000  Uiso   1.00
C1069  C     0.79753   0.52268   0.89953   0.00000  Uiso   1.00
C1070  C     0.86507   0.47006   0.60127   0.00000  Uiso   1.00
C1071  C     0.73979   0.52496   0.96026   0.00000  Uiso   1.00
C1072  C     0.70016   0.53878   0.56321   0.00000  Uiso   1.00
C1073  C     0.82370   0.50915   0.91909   0.00000  Uiso   1.00
C1074  C     0.96398   0.40390   0.52211   0.00000  Uiso   1.00
C1075  C     0.69210   0.57590   0.72166   0.00000  Uiso   1.00
C1076  C     0.74026   0.42254   0.56573   0.00000  Uiso   1.00
C1077  C     0.80782   0.50061   0.95887   0.00000  Uiso   1.00
C1078  C     0.76499   0.50870   0.97955   0.00000  Uiso   1.00
C1079  C     0.83336   0.48440   0.97845   0.00000  Uiso   1.00
C1080  C     0.81685   0.47936   0.51942   0.00000  Uiso   1.00
C1081  C     0.77200   0.48204   0.53759   0.00000  Uiso   1.00
C1082  C     0.74726   0.49909   0.51866   0.00000  Uiso   1.00
H1083  H     0.98463   0.47255   0.78414   0.00000  Uiso   1.00
H1084  H     0.88766   0.47086   0.92666   0.00000  Uiso   1.00
H1085  H     0.71451   0.56695   0.54724   0.00000  Uiso   1.00
H1086  H     0.71523   0.53782   0.58731   0.00000  Uiso   1.00
H1087  H     0.99866   0.54165   0.57705   0.00000  Uiso   1.00
H1088  H     0.93834   0.38075   0.51390   0.00000  Uiso   1.00
H1089  H     0.96482   0.40087   0.55256   0.00000  Uiso   1.00
H1090  H     0.99551   0.39631   0.50184   0.00000  Uiso   1.00
H1091  H     0.70135   0.58295   0.74978   0.00000  Uiso   1.00
H1092  H     0.99421   0.58787   0.72490   0.00000  Uiso   1.00
H1093  H     0.71727   0.59300   0.69902   0.00000  Uiso   1.00
H1094  H     0.87493   0.33631   0.71583   0.00000  Uiso   1.00
H1095  H     0.76991   0.40647   0.55362   0.00000  Uiso   1.00
H1096  H     0.71919   0.41525   0.54550   0.00000  Uiso   1.00
H1097  H     0.72204   0.40990   0.59405   0.00000  Uiso   1.00
H1098  H     0.79086   0.66533   0.78421   0.00000  Uiso   1.00
H1099  H     0.80646   0.48889   0.59971   0.00000  Uiso   1.00
H1100  H     0.92897   0.45545   0.59546   0.00000  Uiso   1.00
H1101  H     0.93212   0.45095   0.96089   0.00000  Uiso   1.00
H1102  H     0.70700   0.53129   0.97544   0.00000  Uiso   1.00
H1103  H     0.73499   0.54199   0.90589   0.00000  Uiso   1.00
H1104  H     0.85628   0.50500   0.90201   0.00000  Uiso   1.00
O1105  O     0.83333   0.50000   0.75000   0.00000  Uiso   1.00
O1106  O     0.82360   0.45726   0.66625   0.00000  Uiso   1.00
O1107  O     0.79354   0.53979   0.83749   0.00000  Uiso   1.00
O1108  O     0.87755   0.50826   0.65877   0.00000  Uiso   1.00
O1109  O     0.83865   0.49468   0.83749   0.00000  Uiso   1.00
O1110  O     0.70387   0.50186   0.53719   0.00000  Uiso   1.00
O1111  O     0.95863   0.44506   0.51784   0.00000  Uiso   1.00
O1112  O     0.69041   0.53281   0.70893   0.00000  Uiso   1.00
O1113  O     0.75064   0.46604   0.57309   0.00000  Uiso   1.00
O1114  O     0.84515   0.41434   0.77820   0.00000  Uiso   1.00
O1115  O     0.81247   0.59469   0.76767   0.00000  Uiso   1.00
O1116  O     0.74119   0.46584   0.73607   0.00000  Uiso   1.00
O1117  O     0.93452   0.52512   0.71806   0.00000  Uiso   1.00
O1118  O     0.73656   0.52293   0.77820   0.00000  Uiso   1.00
O1119  O     0.92106   0.48610   0.76768   0.00000  Uiso   1.00
O1120  O     0.80467   0.40236   0.73607   0.00000  Uiso   1.00
O1121  O     0.87104   0.58860   0.71806   0.00000  Uiso   1.00
Zn1122 Zn    0.85910   0.47423   0.78277   0.00000  Uiso   1.00
Zn1123 Zn    0.80125   0.45711   0.72257   0.00000  Uiso   1.00
Zn1124 Zn    0.87833   0.52997   0.71188   0.00000  Uiso   1.00
Zn1125 Zn    0.79465   0.53868   0.78277   0.00000  Uiso   1.00
C1126  C     0.05246   0.82632   0.75900   0.00000  Uiso   1.00
C1127  C     0.20793   0.80545   0.95818   0.00000  Uiso   1.00
C1128  C     0.23405   0.79308   0.97796   0.00000  Uiso   1.00
C1129  C     0.28114   0.84058   0.74132   0.00000  Uiso   1.00
C1130  C     0.22115   0.79419   0.51892   0.00000  Uiso   1.00
C1131  C     0.17904   0.80439   0.54027   0.00000  Uiso   1.00
C1132  C     0.25041   0.78642   0.53884   0.00000  Uiso   1.00
C1133  C     0.23902   0.79209   0.58003   0.00000  Uiso   1.00
C1134  C     0.16883   0.80962   0.58179   0.00000  Uiso   1.00
C1135  C     0.32731   0.84452   0.73816   0.00000  Uiso   1.00
C1136  C     0.00721   0.82418   0.76190   0.00000  Uiso   1.00
C1137  C     0.08921   0.86503   0.92056   0.00000  Uiso   1.00
C1138  C     0.18110   0.98890   0.73797   0.00000  Uiso   1.00
C1139  C     0.15174   0.67868   0.76203   0.00000  Uiso   1.00
C1140  C     0.15604   0.72274   0.75883   0.00000  Uiso   1.00
C1141  C     0.17694   0.94437   0.74128   0.00000  Uiso   1.00
C1142  C     0.18816   0.81221   0.64394   0.00000  Uiso   1.00
C1143  C     0.14516   0.85395   0.85623   0.00000  Uiso   1.00
C1144  C     0.13087   0.85601   0.89953   0.00000  Uiso   1.00
C1145  C     0.19840   0.80339   0.60127   0.00000  Uiso   1.00
C1146  C     0.07313   0.85829   0.96026   0.00000  Uiso   1.00
C1147  C     0.03349   0.87212   0.56321   0.00000  Uiso   1.00
C1148  C     0.15703   0.84248   0.91909   0.00000  Uiso   1.00
C1149  C     0.29731   0.73723   0.52211   0.00000  Uiso   1.00
C1150  C     0.02543   0.90924   0.72166   0.00000  Uiso   1.00
C1151  C     0.07359   0.75587   0.56573   0.00000  Uiso   1.00
C1152  C     0.14115   0.83395   0.95887   0.00000  Uiso   1.00
C1153  C     0.09832   0.84203   0.97955   0.00000  Uiso   1.00
C1154  C     0.16670   0.81774   0.97845   0.00000  Uiso   1.00
C1155  C     0.15019   0.81269   0.51942   0.00000  Uiso   1.00
C1156  C     0.10533   0.81537   0.53759   0.00000  Uiso   1.00
C1157  C     0.08059   0.83242   0.51866   0.00000  Uiso   1.00
H1158  H     0.31796   0.80588   0.78414   0.00000  Uiso   1.00
H1159  H     0.22099   0.80419   0.92666   0.00000  Uiso   1.00
H1160  H     0.04784   0.90028   0.54724   0.00000  Uiso   1.00
H1161  H     0.04857   0.87116   0.58731   0.00000  Uiso   1.00
H1162  H     0.33199   0.87498   0.57705   0.00000  Uiso   1.00
H1163  H     0.27167   0.71408   0.51390   0.00000  Uiso   1.00
H1164  H     0.29816   0.73420   0.55256   0.00000  Uiso   1.00
H1165  H     0.32884   0.72964   0.50184   0.00000  Uiso   1.00
H1166  H     0.03468   0.91629   0.74978   0.00000  Uiso   1.00
H1167  H     0.32754   0.92120   0.72490   0.00000  Uiso   1.00
H1168  H     0.05060   0.92633   0.69902   0.00000  Uiso   1.00
H1169  H     0.20826   0.66964   0.71583   0.00000  Uiso   1.00
H1170  H     0.10324   0.73980   0.55362   0.00000  Uiso   1.00
H1171  H     0.05253   0.74858   0.54550   0.00000  Uiso   1.00
H1172  H     0.05537   0.74324   0.59405   0.00000  Uiso   1.00
H1173  H     0.12419   0.99866   0.78421   0.00000  Uiso   1.00
H1174  H     0.13979   0.82222   0.59971   0.00000  Uiso   1.00
H1175  H     0.26230   0.78878   0.59546   0.00000  Uiso   1.00
H1176  H     0.26546   0.78429   0.96089   0.00000  Uiso   1.00
H1177  H     0.04034   0.86462   0.97544   0.00000  Uiso   1.00
H1178  H     0.06832   0.87532   0.90589   0.00000  Uiso   1.00
H1179  H     0.18961   0.83834   0.90201   0.00000  Uiso   1.00
O1180  O     0.16667   0.83333   0.75000   0.00000  Uiso   1.00
O1181  O     0.15693   0.79060   0.66625   0.00000  Uiso   1.00
O1182  O     0.12687   0.87313   0.83749   0.00000  Uiso   1.00
O1183  O     0.21088   0.84159   0.65877   0.00000  Uiso   1.00
O1184  O     0.17198   0.82802   0.83749   0.00000  Uiso   1.00
O1185  O     0.03720   0.83520   0.53719   0.00000  Uiso   1.00
O1186  O     0.29196   0.77840   0.51784   0.00000  Uiso   1.00
O1187  O     0.02374   0.86615   0.70893   0.00000  Uiso   1.00
O1188  O     0.08397   0.79937   0.57309   0.00000  Uiso   1.00
O1189  O     0.17849   0.74768   0.77820   0.00000  Uiso   1.00
O1190  O     0.14581   0.92803   0.76767   0.00000  Uiso   1.00
O1191  O     0.07452   0.79917   0.73607   0.00000  Uiso   1.00
O1192  O     0.26785   0.85845   0.71806   0.00000  Uiso   1.00
O1193  O     0.06990   0.85627   0.77820   0.00000  Uiso   1.00
O1194  O     0.25440   0.81944   0.76768   0.00000  Uiso   1.00
O1195  O     0.13800   0.73570   0.73607   0.00000  Uiso   1.00
O1196  O     0.20437   0.92193   0.71806   0.00000  Uiso   1.00
Zn1197 Zn    0.19244   0.80756   0.78277   0.00000  Uiso   1.00
Zn1198 Zn    0.13459   0.79044   0.72257   0.00000  Uiso   1.00
Zn1199 Zn    0.21166   0.86331   0.71188   0.00000  Uiso   1.00
Zn1200 Zn    0.12798   0.87202   0.78277   0.00000  Uiso   1.00
C1201  C     0.38579   0.82632   0.75900   0.00000  Uiso   1.00
C1202  C     0.54127   0.80545   0.95818   0.00000  Uiso   1.00
C1203  C     0.56738   0.79308   0.97796   0.00000  Uiso   1.00
C1204  C     0.61447   0.84058   0.74132   0.00000  Uiso   1.00
C1205  C     0.55448   0.79419   0.51892   0.00000  Uiso   1.00
C1206  C     0.51237   0.80439   0.54027   0.00000  Uiso   1.00
C1207  C     0.58375   0.78642   0.53884   0.00000  Uiso   1.00
C1208  C     0.57235   0.79209   0.58003   0.00000  Uiso   1.00
C1209  C     0.50217   0.80962   0.58179   0.00000  Uiso   1.00
C1210  C     0.66064   0.84452   0.73816   0.00000  Uiso   1.00
C1211  C     0.34054   0.82418   0.76190   0.00000  Uiso   1.00
C1212  C     0.42254   0.86503   0.92056   0.00000  Uiso   1.00
C1213  C     0.51444   0.98890   0.73797   0.00000  Uiso   1.00
C1214  C     0.48508   0.67868   0.76203   0.00000  Uiso   1.00
C1215  C     0.48938   0.72274   0.75883   0.00000  Uiso   1.00
C1216  C     0.51028   0.94437   0.74128   0.00000  Uiso   1.00
C1217  C     0.52149   0.81221   0.64394   0.00000  Uiso   1.00
C1218  C     0.47850   0.85395   0.85623   0.00000  Uiso   1.00
C1219  C     0.46420   0.85601   0.89953   0.00000  Uiso   1.00
C1220  C     0.53174   0.80339   0.60127   0.00000  Uiso   1.00
C1221  C     0.40646   0.85829   0.96026   0.00000  Uiso   1.00
C1222  C     0.36683   0.87212   0.56321   0.00000  Uiso   1.00
C1223  C     0.49036   0.84248   0.91909   0.00000  Uiso   1.00
C1224  C     0.63065   0.73723   0.52211   0.00000  Uiso   1.00
C1225  C     0.35877   0.90924   0.72166   0.00000  Uiso   1.00
C1226  C     0.40693   0.75587   0.56573   0.00000  Uiso   1.00
C1227  C     0.47449   0.83395   0.95887   0.00000  Uiso   1.00
C1228  C     0.43165   0.84203   0.97955   0.00000  Uiso   1.00
C1229  C     0.50003   0.81774   0.97845   0.00000  Uiso   1.00
C1230  C     0.48352   0.81269   0.51942   0.00000  Uiso   1.00
C1231  C     0.43866   0.81537   0.53759   0.00000  Uiso   1.00
C1232  C     0.41392   0.83242   0.51866   0.00000  Uiso   1.00
H1233  H     0.65129   0.80588   0.78414   0.00000  Uiso   1.00
H1234  H     0.55433   0.80419   0.92666   0.00000  Uiso   1.00
H1235  H     0.38117   0.90028   0.54724   0.00000  Uiso   1.00
H1236  H     0.38190   0.87116   0.58731   0.00000  Uiso   1.00
H1237  H     0.66532   0.87498   0.57705   0.00000  Uiso   1.00
H1238  H     0.60501   0.71408   0.51390   0.00000  Uiso   1.00
H1239  H     0.63149   0.73420   0.55256   0.00000  Uiso   1.00
H1240  H     0.66217   0.72964   0.50184   0.00000  Uiso   1.00
H1241  H     0.36801   0.91629   0.74978   0.00000  Uiso   1.00
H1242  H     0.66088   0.92120   0.72490   0.00000  Uiso   1.00
H1243  H     0.38394   0.92633   0.69902   0.00000  Uiso   1.00
H1244  H     0.54160   0.66964   0.71583   0.00000  Uiso   1.00
H1245  H     0.43658   0.73980   0.55362   0.00000  Uiso   1.00
H1246  H     0.38586   0.74858   0.54550   0.00000  Uiso   1.00
H1247  H     0.38871   0.74324   0.59405   0.00000  Uiso   1.00
H1248  H     0.45753   0.99866   0.78421   0.00000  Uiso   1.00
H1249  H     0.47312   0.82222   0.59971   0.00000  Uiso   1.00
H1250  H     0.59564   0.78878   0.59546   0.00000  Uiso   1.00
H1251  H     0.59879   0.78429   0.96089   0.00000  Uiso   1.00
H1252  H     0.37367   0.86462   0.97544   0.00000  Uiso   1.00
H1253  H     0.40166   0.87532   0.90589   0.00000  Uiso   1.00
H1254  H     0.52294   0.83834   0.90201   0.00000  Uiso   1.00
O1255  O     0.50000   0.83333   0.75000   0.00000  Uiso   1.00
O1256  O     0.49027   0.79060   0.66625   0.00000  Uiso   1.00
O1257  O     0.46020   0.87313   0.83749   0.00000  Uiso   1.00
O1258  O     0.54421   0.84159   0.65877   0.00000  Uiso   1.00
O1259  O     0.50532   0.82802   0.83749   0.00000  Uiso   1.00
O1260  O     0.37054   0.83520   0.53719   0.00000  Uiso   1.00
O1261  O     0.62529   0.77840   0.51784   0.00000  Uiso   1.00
O1262  O     0.35708   0.86615   0.70893   0.00000  Uiso   1.00
O1263  O     0.41731   0.79937   0.57309   0.00000  Uiso   1.00
O1264  O     0.51182   0.74768   0.77820   0.00000  Uiso   1.00
O1265  O     0.47914   0.92803   0.76767   0.00000  Uiso   1.00
O1266  O     0.40785   0.79917   0.73607   0.00000  Uiso   1.00
O1267  O     0.60119   0.85845   0.71806   0.00000  Uiso   1.00
O1268  O     0.40323   0.85627   0.77820   0.00000  Uiso   1.00
O1269  O     0.58773   0.81944   0.76768   0.00000  Uiso   1.00
O1270  O     0.47133   0.73570   0.73607   0.00000  Uiso   1.00
O1271  O     0.53771   0.92193   0.71806   0.00000  Uiso   1.00
Zn1272 Zn    0.52577   0.80756   0.78277   0.00000  Uiso   1.00
Zn1273 Zn    0.46792   0.79044   0.72257   0.00000  Uiso   1.00
Zn1274 Zn    0.54500   0.86331   0.71188   0.00000  Uiso   1.00
Zn1275 Zn    0.46131   0.87202   0.78277   0.00000  Uiso   1.00
C1276  C     0.71913   0.82632   0.75900   0.00000  Uiso   1.00
C1277  C     0.87460   0.80545   0.95818   0.00000  Uiso   1.00
C1278  C     0.90072   0.79308   0.97796   0.00000  Uiso   1.00
C1279  C     0.94780   0.84058   0.74132   0.00000  Uiso   1.00
C1280  C     0.88781   0.79419   0.51892   0.00000  Uiso   1.00
C1281  C     0.84571   0.80439   0.54027   0.00000  Uiso   1.00
C1282  C     0.91708   0.78642   0.53884   0.00000  Uiso   1.00
C1283  C     0.90568   0.79209   0.58003   0.00000  Uiso   1.00
C1284  C     0.83550   0.80962   0.58179   0.00000  Uiso   1.00
C1285  C     0.99398   0.84452   0.73816   0.00000  Uiso   1.00
C1286  C     0.67388   0.82418   0.76190   0.00000  Uiso   1.00
C1287  C     0.75588   0.86503   0.92056   0.00000  Uiso   1.00
C1288  C     0.84777   0.98890   0.73797   0.00000  Uiso   1.00
C1289  C     0.81841   0.67868   0.76203   0.00000  Uiso   1.00
C1290  C     0.82271   0.72274   0.75883   0.00000  Uiso   1.00
C1291  C     0.84361   0.94437   0.74128   0.00000  Uiso   1.00
C1292  C     0.85483   0.81221   0.64394   0.00000  Uiso   1.00
C1293  C     0.81183   0.85395   0.85623   0.00000  Uiso   1.00
C1294  C     0.79753   0.85601   0.89953   0.00000  Uiso   1.00
C1295  C     0.86507   0.80339   0.60127   0.00000  Uiso   1.00
C1296  C     0.73979   0.85829   0.96026   0.00000  Uiso   1.00
C1297  C     0.70016   0.87212   0.56321   0.00000  Uiso   1.00
C1298  C     0.82370   0.84248   0.91909   0.00000  Uiso   1.00
C1299  C     0.96398   0.73723   0.52211   0.00000  Uiso   1.00
C1300  C     0.69210   0.90924   0.72166   0.00000  Uiso   1.00
C1301  C     0.74026   0.75587   0.56573   0.00000  Uiso   1.00
C1302  C     0.80782   0.83395   0.95887   0.00000  Uiso   1.00
C1303  C     0.76499   0.84203   0.97955   0.00000  Uiso   1.00
C1304  C     0.83336   0.81774   0.97845   0.00000  Uiso   1.00
C1305  C     0.81685   0.81269   0.51942   0.00000  Uiso   1.00
C1306  C     0.77200   0.81537   0.53759   0.00000  Uiso   1.00
C1307  C     0.74726   0.83242   0.51866   0.00000  Uiso   1.00
H1308  H     0.98463   0.80588   0.78414   0.00000  Uiso   1.00
H1309  H     0.88766   0.80419   0.92666   0.00000  Uiso   1.00
H1310  H     0.71451   0.90028   0.54724   0.00000  Uiso   1.00
H1311  H     0.71523   0.87116   0.58731   0.00000  Uiso   1.00
H1312  H     0.99866   0.87498   0.57705   0.00000  Uiso   1.00
H1313  H     0.93834   0.71408   0.51390   0.00000  Uiso   1.00
H1314  H     0.96482   0.73420   0.55256   0.00000  Uiso   1.00
H1315  H     0.99551   0.72964   0.50184   0.00000  Uiso   1.00
H1316  H     0.70135   0.91629   0.74978   0.00000  Uiso   1.00
H1317  H     0.99421   0.92120   0.72490   0.00000  Uiso   1.00
H1318  H     0.71727   0.92633   0.69902   0.00000  Uiso   1.00
H1319  H     0.87493   0.66964   0.71583   0.00000  Uiso   1.00
H1320  H     0.76991   0.73980   0.55362   0.00000  Uiso   1.00
H1321  H     0.71919   0.74858   0.54550   0.00000  Uiso   1.00
H1322  H     0.72204   0.74324   0.59405   0.00000  Uiso   1.00
H1323  H     0.79086   0.99866   0.78421   0.00000  Uiso   1.00
H1324  H     0.80646   0.82222   0.59971   0.00000  Uiso   1.00
H1325  H     0.92897   0.78878   0.59546   0.00000  Uiso   1.00
H1326  H     0.93212   0.78429   0.96089   0.00000  Uiso   1.00
H1327  H     0.70700   0.86462   0.97544   0.00000  Uiso   1.00
H1328  H     0.73499   0.87532   0.90589   0.00000  Uiso   1.00
H1329  H     0.85628   0.83834   0.90201   0.00000  Uiso   1.00
O1330  O     0.83333   0.83333   0.75000   0.00000  Uiso   1.00
O1331  O     0.82360   0.79060   0.66625   0.00000  Uiso   1.00
O1332  O     0.79354   0.87313   0.83749   0.00000  Uiso   1.00
O1333  O     0.87755   0.84159   0.65877   0.00000  Uiso   1.00
O1334  O     0.83865   0.82802   0.83749   0.00000  Uiso   1.00
O1335  O     0.70387   0.83520   0.53719   0.00000  Uiso   1.00
O1336  O     0.95863   0.77840   0.51784   0.00000  Uiso   1.00
O1337  O     0.69041   0.86615   0.70893   0.00000  Uiso   1.00
O1338  O     0.75064   0.79937   0.57309   0.00000  Uiso   1.00
O1339  O     0.84515   0.74768   0.77820   0.00000  Uiso   1.00
O1340  O     0.81247   0.92803   0.76767   0.00000  Uiso   1.00
O1341  O     0.74119   0.79917   0.73607   0.00000  Uiso   1.00
O1342  O     0.93452   0.85845   0.71806   0.00000  Uiso   1.00
O1343  O     0.73656   0.85627   0.77820   0.00000  Uiso   1.00
O1344  O     0.92106   0.81944   0.76768   0.00000  Uiso   1.00
O1345  O     0.80467   0.73570   0.73607   0.00000  Uiso   1.00
O1346  O     0.87104   0.92193   0.71806   0.00000  Uiso   1.00
Zn1347 Zn    0.85910   0.80756   0.78277   0.00000  Uiso   1.00
Zn1348 Zn    0.80125   0.79044   0.72257   0.00000  Uiso   1.00
Zn1349 Zn    0.87833   0.86331   0.71188   0.00000  Uiso   1.00
Zn1350 Zn    0.79465   0.87202   0.78277   0.00000  Uiso   1.00
loop_
_geom_bond_atom_site_label_1
_geom_bond_atom_site_label_2
_geom_bond_distance
_geom_bond_site_symmetry_2
_ccdc_geom_bond_type
C1     O68     1.271   .     A
C1     C11     1.438   .     S
C1     O66     1.270   .     A
C2     C29     1.414   .     A
C2     H34     1.076   .     S
C2     C3      1.384   .     A
C3     H51     1.084   .     S
C3     C680    1.393   .     S
C4     O69     1.278   .     A
C4     O67     1.277   .     A
C4     C10     1.462   .     S
C5     C6      1.424   .     A
C5     C7      1.412   .     A
C5     C678    1.393   1_554 S
C6     C9      1.410   .     A
C6     C30     1.431   .     A
C7     C8      1.398   .     A
C7     O61     1.385   .     S
C8     C20     1.394   .     A
C8     H50     1.084   .     S
C9     H49     1.078   .     S
C9     C20     1.393   .     A
C10    C86     1.339   .     S
C10    O137    1.387   .     S
C11    C160    1.339   1_455 S
C11    H183    1.086   1_455 S
C12    C21     1.393   .     A
C12    H53     1.083   .     S
C12    C19     1.397   .     A
C13    C16     1.452   .     S
C13    C239    1.332   .     S
C13    H269    1.088   .     S
C14    C15     1.436   .     S
C14    C463    1.332   1_545 S
C14    H498    1.086   1_545 S
C15    O64     1.277   .     A
C15    O70     1.276   .     A
C16    O71     1.270   .     A
C16    O65     1.270   .     A
C17    O58     1.271   .     A
C17    O56     1.275   .     A
C17    C20     1.455   .     S
C18    C19     1.471   .     S
C18    O57     1.285   .     A
C18    O59     1.283   .     A
C19    C23     1.397   .     A
C21    C28     1.409   .     A
C21    H52     1.083   .     S
C22    H35     1.114   .     S
C22    O60     1.410   .     S
C22    H36     1.113   .     S
C22    H187    1.109   1_455 S
C23    C27     1.411   .     A
C23    H54     1.076   .     S
C24    O61     1.410   .     S
C24    H39     1.112   .     S
C24    H38     1.114   .     S
C24    H40     1.109   .     S
C25    H43     1.109   .     S
C25    H41     1.114   .     S
C25    O62     1.410   .     S
C25    H192    1.112   1_455 S
C26    H45     1.113   .     S
C26    O63     1.410   .     S
C26    H47     1.109   .     S
C26    H46     1.113   .     S
C27    C29     1.425   .     A
C27    C28     1.419   .     A
C28    C707    1.403   .     S
C29    C705    1.424   .     S
C30    C31     1.425   .     A
C30    C704    1.424   1_554 S
C31    O63     1.383   .     S
C31    C32     1.403   .     A
C32    O60     1.384   .     S
C32    C703    1.403   1_554 S
H33    C86     1.086   .     S
H37    C97     1.109   .     S
H42    C100    1.112   .     S
H44    C463    1.088   1_545 S
H48    C239    1.086   .     S
O55    Zn74    1.926   .     S
O55    Zn72    1.956   .     S
O55    Zn75    1.936   .     S
O55    Zn73    1.942   .     S
O56    Zn73    1.925   .     S
O57    Zn75    1.935   .     S
O58    Zn74    1.933   .     S
O59    Zn72    1.925   .     S
O62    C160    1.387   1_455 S
O64    Zn72    1.927   .     S
O65    Zn75    1.927   .     S
O66    Zn73    1.928   .     S
O67    Zn74    1.937   .     S
O68    Zn75    1.931   .     S
O69    Zn72    1.922   .     S
O70    Zn73    1.934   .     S
O71    Zn74    1.931   .     S
C76    O143    1.271   .     A
C76    C86     1.438   .     S
C76    O141    1.270   .     A
C77    C104    1.414   .     A
C77    H109    1.076   .     S
C77    C78     1.384   .     A
C78    H126    1.084   .     S
C78    C755    1.393   .     S
C79    O144    1.278   .     A
C79    O142    1.277   .     A
C79    C85     1.462   .     S
C80    C81     1.424   .     A
C80    C82     1.412   .     A
C80    C753    1.393   1_554 S
C81    C84     1.410   .     A
C81    C105    1.431   .     A
C82    C83     1.398   .     A
C82    O136    1.385   .     S
C83    C95     1.394   .     A
C83    H125    1.084   .     S
C84    H124    1.078   .     S
C84    C95     1.393   .     A
C85    C161    1.339   .     S
C85    O212    1.387   .     S
C87    C96     1.393   .     A
C87    H128    1.083   .     S
C87    C94     1.397   .     A
C88    C91     1.452   .     S
C88    C314    1.332   .     S
C88    H344    1.088   .     S
C89    C90     1.436   .     S
C89    C538    1.332   1_545 S
C89    H573    1.086   1_545 S
C90    O139    1.277   .     A
C90    O145    1.276   .     A
C91    O146    1.270   .     A
C91    O140    1.270   .     A
C92    O133    1.271   .     A
C92    O131    1.275   .     A
C92    C95     1.455   .     S
C93    C94     1.471   .     S
C93    O132    1.285   .     A
C93    O134    1.283   .     A
C94    C98     1.397   .     A
C96    C103    1.409   .     A
C96    H127    1.083   .     S
C97    H110    1.114   .     S
C97    O135    1.410   .     S
C97    H111    1.113   .     S
C98    C102    1.411   .     A
C98    H129    1.076   .     S
C99    O136    1.410   .     S
C99    H114    1.112   .     S
C99    H113    1.114   .     S
C99    H115    1.109   .     S
C100   H118    1.109   .     S
C100   H116    1.114   .     S
C100   O137    1.410   .     S
C101   H120    1.113   .     S
C101   O138    1.410   .     S
C101   H122    1.109   .     S
C101   H121    1.113   .     S
C102   C104    1.425   .     A
C102   C103    1.419   .     A
C103   C782    1.403   .     S
C104   C780    1.424   .     S
C105   C106    1.425   .     A
C105   C779    1.424   1_554 S
C106   O138    1.383   .     S
C106   C107    1.403   .     A
C107   O135    1.384   .     S
C107   C778    1.403   1_554 S
H108   C161    1.086   .     S
H112   C172    1.109   .     S
H117   C175    1.112   .     S
H119   C538    1.088   1_545 S
H123   C314    1.086   .     S
O130   Zn149   1.926   .     S
O130   Zn147   1.956   .     S
O130   Zn150   1.936   .     S
O130   Zn148   1.942   .     S
O131   Zn148   1.925   .     S
O132   Zn150   1.935   .     S
O133   Zn149   1.933   .     S
O134   Zn147   1.925   .     S
O139   Zn147   1.927   .     S
O140   Zn150   1.927   .     S
O141   Zn148   1.928   .     S
O142   Zn149   1.937   .     S
O143   Zn150   1.931   .     S
O144   Zn147   1.922   .     S
O145   Zn148   1.934   .     S
O146   Zn149   1.931   .     S
C151   O218    1.271   .     A
C151   C161    1.438   .     S
C151   O216    1.270   .     A
C152   C179    1.414   .     A
C152   H184    1.076   .     S
C152   C153    1.384   .     A
C153   H201    1.084   .     S
C153   C830    1.393   .     S
C154   O219    1.278   .     A
C154   O217    1.277   .     A
C154   C160    1.462   .     S
C155   C156    1.424   .     A
C155   C157    1.412   .     A
C155   C828    1.393   1_554 S
C156   C159    1.410   .     A
C156   C180    1.431   .     A
C157   C158    1.398   .     A
C157   O211    1.385   .     S
C158   C170    1.394   .     A
C158   H200    1.084   .     S
C159   H199    1.078   .     S
C159   C170    1.393   .     A
C160   C11     1.339   1_655 S
C160   O62     1.387   1_655 S
C162   C171    1.393   .     A
C162   H203    1.083   .     S
C162   C169    1.397   .     A
C163   C166    1.452   .     S
C163   C389    1.332   .     S
C163   H419    1.088   .     S
C164   C165    1.436   .     S
C164   C613    1.332   1_545 S
C164   H648    1.086   1_545 S
C165   O214    1.277   .     A
C165   O220    1.276   .     A
C166   O221    1.270   .     A
C166   O215    1.270   .     A
C167   O208    1.271   .     A
C167   O206    1.275   .     A
C167   C170    1.455   .     S
C168   C169    1.471   .     S
C168   O207    1.285   .     A
C168   O209    1.283   .     A
C169   C173    1.397   .     A
C171   C178    1.409   .     A
C171   H202    1.083   .     S
C172   H185    1.114   .     S
C172   O210    1.410   .     S
C172   H186    1.113   .     S
C173   C177    1.411   .     A
C173   H204    1.076   .     S
C174   O211    1.410   .     S
C174   H189    1.112   .     S
C174   H188    1.114   .     S
C174   H190    1.109   .     S
C175   H193    1.109   .     S
C175   H191    1.114   .     S
C175   O212    1.410   .     S
C176   H195    1.113   .     S
C176   O213    1.410   .     S
C176   H197    1.109   .     S
C176   H196    1.113   .     S
C177   C179    1.425   .     A
C177   C178    1.419   .     A
C178   C857    1.403   .     S
C179   C855    1.424   .     S
C180   C181    1.425   .     A
C180   C854    1.424   1_554 S
C181   O213    1.383   .     S
C181   C182    1.403   .     A
C182   O210    1.384   .     S
C182   C853    1.403   1_554 S
H183   C11     1.086   1_655 S
H187   C22     1.109   1_655 S
H192   C25     1.112   1_655 S
H194   C613    1.088   1_545 S
H198   C389    1.086   .     S
O205   Zn224   1.926   .     S
O205   Zn222   1.956   .     S
O205   Zn225   1.936   .     S
O205   Zn223   1.942   .     S
O206   Zn223   1.925   .     S
O207   Zn225   1.935   .     S
O208   Zn224   1.933   .     S
O209   Zn222   1.925   .     S
O214   Zn222   1.927   .     S
O215   Zn225   1.927   .     S
O216   Zn223   1.928   .     S
O217   Zn224   1.937   .     S
O218   Zn225   1.931   .     S
O219   Zn222   1.922   .     S
O220   Zn223   1.934   .     S
O221   Zn224   1.931   .     S
C226   O293    1.271   .     A
C226   C236    1.438   .     S
C226   O291    1.270   .     A
C227   C254    1.414   .     A
C227   H259    1.076   .     S
C227   C228    1.384   .     A
C228   H276    1.084   .     S
C228   C905    1.393   .     S
C229   O294    1.278   .     A
C229   O292    1.277   .     A
C229   C235    1.462   .     S
C230   C231    1.424   .     A
C230   C232    1.412   .     A
C230   C903    1.393   1_554 S
C231   C234    1.410   .     A
C231   C255    1.431   .     A
C232   C233    1.398   .     A
C232   O286    1.385   .     S
C233   C245    1.394   .     A
C233   H275    1.084   .     S
C234   H274    1.078   .     S
C234   C245    1.393   .     A
C235   C311    1.339   .     S
C235   O362    1.387   .     S
C236   C385    1.339   1_455 S
C236   H408    1.086   1_455 S
C237   C246    1.393   .     A
C237   H278    1.083   .     S
C237   C244    1.397   .     A
C238   C241    1.452   .     S
C238   C464    1.332   .     S
C238   H494    1.088   .     S
C239   C240    1.436   .     S
C240   O289    1.277   .     A
C240   O295    1.276   .     A
C241   O296    1.270   .     A
C241   O290    1.270   .     A
C242   O283    1.271   .     A
C242   O281    1.275   .     A
C242   C245    1.455   .     S
C243   C244    1.471   .     S
C243   O282    1.285   .     A
C243   O284    1.283   .     A
C244   C248    1.397   .     A
C246   C253    1.409   .     A
C246   H277    1.083   .     S
C247   H260    1.114   .     S
C247   O285    1.410   .     S
C247   H261    1.113   .     S
C247   H412    1.109   1_455 S
C248   C252    1.411   .     A
C248   H279    1.076   .     S
C249   O286    1.410   .     S
C249   H264    1.112   .     S
C249   H263    1.114   .     S
C249   H265    1.109   .     S
C250   H268    1.109   .     S
C250   H266    1.114   .     S
C250   O287    1.410   .     S
C250   H417    1.112   1_455 S
C251   H270    1.113   .     S
C251   O288    1.410   .     S
C251   H272    1.109   .     S
C251   H271    1.113   .     S
C252   C254    1.425   .     A
C252   C253    1.419   .     A
C253   C932    1.403   .     S
C254   C930    1.424   .     S
C255   C256    1.425   .     A
C255   C929    1.424   1_554 S
C256   O288    1.383   .     S
C256   C257    1.403   .     A
C257   O285    1.384   .     S
C257   C928    1.403   1_554 S
H258   C311    1.086   .     S
H262   C322    1.109   .     S
H267   C325    1.112   .     S
H273   C464    1.086   .     S
O280   Zn299   1.926   .     S
O280   Zn297   1.956   .     S
O280   Zn300   1.936   .     S
O280   Zn298   1.942   .     S
O281   Zn298   1.925   .     S
O282   Zn300   1.935   .     S
O283   Zn299   1.933   .     S
O284   Zn297   1.925   .     S
O287   C385    1.387   1_455 S
O289   Zn297   1.927   .     S
O290   Zn300   1.927   .     S
O291   Zn298   1.928   .     S
O292   Zn299   1.937   .     S
O293   Zn300   1.931   .     S
O294   Zn297   1.922   .     S
O295   Zn298   1.934   .     S
O296   Zn299   1.931   .     S
C301   O368    1.271   .     A
C301   C311    1.438   .     S
C301   O366    1.270   .     A
C302   C329    1.414   .     A
C302   H334    1.076   .     S
C302   C303    1.384   .     A
C303   H351    1.084   .     S
C303   C980    1.393   .     S
C304   O369    1.278   .     A
C304   O367    1.277   .     A
C304   C310    1.462   .     S
C305   C306    1.424   .     A
C305   C307    1.412   .     A
C305   C978    1.393   1_554 S
C306   C309    1.410   .     A
C306   C330    1.431   .     A
C307   C308    1.398   .     A
C307   O361    1.385   .     S
C308   C320    1.394   .     A
C308   H350    1.084   .     S
C309   H349    1.078   .     S
C309   C320    1.393   .     A
C310   C386    1.339   .     S
C310   O437    1.387   .     S
C312   C321    1.393   .     A
C312   H353    1.083   .     S
C312   C319    1.397   .     A
C313   C316    1.452   .     S
C313   C539    1.332   .     S
C313   H569    1.088   .     S
C314   C315    1.436   .     S
C315   O364    1.277   .     A
C315   O370    1.276   .     A
C316   O371    1.270   .     A
C316   O365    1.270   .     A
C317   O358    1.271   .     A
C317   O356    1.275   .     A
C317   C320    1.455   .     S
C318   C319    1.471   .     S
C318   O357    1.285   .     A
C318   O359    1.283   .     A
C319   C323    1.397   .     A
C321   C328    1.409   .     A
C321   H352    1.083   .     S
C322   H335    1.114   .     S
C322   O360    1.410   .     S
C322   H336    1.113   .     S
C323   C327    1.411   .     A
C323   H354    1.076   .     S
C324   O361    1.410   .     S
C324   H339    1.112   .     S
C324   H338    1.114   .     S
C324   H340    1.109   .     S
C325   H343    1.109   .     S
C325   H341    1.114   .     S
C325   O362    1.410   .     S
C326   H345    1.113   .     S
C326   O363    1.410   .     S
C326   H347    1.109   .     S
C326   H346    1.113   .     S
C327   C329    1.425   .     A
C327   C328    1.419   .     A
C328   C1007   1.403   .     S
C329   C1005   1.424   .     S
C330   C331    1.425   .     A
C330   C1004   1.424   1_554 S
C331   O363    1.383   .     S
C331   C332    1.403   .     A
C332   O360    1.384   .     S
C332   C1003   1.403   1_554 S
H333   C386    1.086   .     S
H337   C397    1.109   .     S
H342   C400    1.112   .     S
H348   C539    1.086   .     S
O355   Zn374   1.926   .     S
O355   Zn372   1.956   .     S
O355   Zn375   1.936   .     S
O355   Zn373   1.942   .     S
O356   Zn373   1.925   .     S
O357   Zn375   1.935   .     S
O358   Zn374   1.933   .     S
O359   Zn372   1.925   .     S
O364   Zn372   1.927   .     S
O365   Zn375   1.927   .     S
O366   Zn373   1.928   .     S
O367   Zn374   1.937   .     S
O368   Zn375   1.931   .     S
O369   Zn372   1.922   .     S
O370   Zn373   1.934   .     S
O371   Zn374   1.931   .     S
C376   O443    1.271   .     A
C376   C386    1.438   .     S
C376   O441    1.270   .     A
C377   C404    1.414   .     A
C377   H409    1.076   .     S
C377   C378    1.384   .     A
C378   H426    1.084   .     S
C378   C1055   1.393   .     S
C379   O444    1.278   .     A
C379   O442    1.277   .     A
C379   C385    1.462   .     S
C380   C381    1.424   .     A
C380   C382    1.412   .     A
C380   C1053   1.393   1_554 S
C381   C384    1.410   .     A
C381   C405    1.431   .     A
C382   C383    1.398   .     A
C382   O436    1.385   .     S
C383   C395    1.394   .     A
C383   H425    1.084   .     S
C384   H424    1.078   .     S
C384   C395    1.393   .     A
C385   C236    1.339   1_655 S
C385   O287    1.387   1_655 S
C387   C396    1.393   .     A
C387   H428    1.083   .     S
C387   C394    1.397   .     A
C388   C391    1.452   .     S
C388   C614    1.332   .     S
C388   H644    1.088   .     S
C389   C390    1.436   .     S
C390   O439    1.277   .     A
C390   O445    1.276   .     A
C391   O446    1.270   .     A
C391   O440    1.270   .     A
C392   O433    1.271   .     A
C392   O431    1.275   .     A
C392   C395    1.455   .     S
C393   C394    1.471   .     S
C393   O432    1.285   .     A
C393   O434    1.283   .     A
C394   C398    1.397   .     A
C396   C403    1.409   .     A
C396   H427    1.083   .     S
C397   H410    1.114   .     S
C397   O435    1.410   .     S
C397   H411    1.113   .     S
C398   C402    1.411   .     A
C398   H429    1.076   .     S
C399   O436    1.410   .     S
C399   H414    1.112   .     S
C399   H413    1.114   .     S
C399   H415    1.109   .     S
C400   H418    1.109   .     S
C400   H416    1.114   .     S
C400   O437    1.410   .     S
C401   H420    1.113   .     S
C401   O438    1.410   .     S
C401   H422    1.109   .     S
C401   H421    1.113   .     S
C402   C404    1.425   .     A
C402   C403    1.419   .     A
C403   C1082   1.403   .     S
C404   C1080   1.424   .     S
C405   C406    1.425   .     A
C405   C1079   1.424   1_554 S
C406   O438    1.383   .     S
C406   C407    1.403   .     A
C407   O435    1.384   .     S
C407   C1078   1.403   1_554 S
H408   C236    1.086   1_655 S
H412   C247    1.109   1_655 S
H417   C250    1.112   1_655 S
H423   C614    1.086   .     S
O430   Zn449   1.926   .     S
O430   Zn447   1.956   .     S
O430   Zn450   1.936   .     S
O430   Zn448   1.942   .     S
O431   Zn448   1.925   .     S
O432   Zn450   1.935   .     S
O433   Zn449   1.933   .     S
O434   Zn447   1.925   .     S
O439   Zn447   1.927   .     S
O440   Zn450   1.927   .     S
O441   Zn448   1.928   .     S
O442   Zn449   1.937   .     S
O443   Zn450   1.931   .     S
O444   Zn447   1.922   .     S
O445   Zn448   1.934   .     S
O446   Zn449   1.931   .     S
C451   O518    1.271   .     A
C451   C461    1.438   .     S
C451   O516    1.270   .     A
C452   C479    1.414   .     A
C452   H484    1.076   .     S
C452   C453    1.384   .     A
C453   H501    1.084   .     S
C453   C1130   1.393   .     S
C454   O519    1.278   .     A
C454   O517    1.277   .     A
C454   C460    1.462   .     S
C455   C456    1.424   .     A
C455   C457    1.412   .     A
C455   C1128   1.393   1_554 S
C456   C459    1.410   .     A
C456   C480    1.431   .     A
C457   C458    1.398   .     A
C457   O511    1.385   .     S
C458   C470    1.394   .     A
C458   H500    1.084   .     S
C459   H499    1.078   .     S
C459   C470    1.393   .     A
C460   C536    1.339   .     S
C460   O587    1.387   .     S
C461   C610    1.339   1_455 S
C461   H633    1.086   1_455 S
C462   C471    1.393   .     A
C462   H503    1.083   .     S
C462   C469    1.397   .     A
C463   C466    1.452   .     S
C463   C14     1.332   1_565 S
C463   H44     1.088   1_565 S
C464   C465    1.436   .     S
C465   O514    1.277   .     A
C465   O520    1.276   .     A
C466   O521    1.270   .     A
C466   O515    1.270   .     A
C467   O508    1.271   .     A
C467   O506    1.275   .     A
C467   C470    1.455   .     S
C468   C469    1.471   .     S
C468   O507    1.285   .     A
C468   O509    1.283   .     A
C469   C473    1.397   .     A
C471   C478    1.409   .     A
C471   H502    1.083   .     S
C472   H485    1.114   .     S
C472   O510    1.410   .     S
C472   H486    1.113   .     S
C472   H637    1.109   1_455 S
C473   C477    1.411   .     A
C473   H504    1.076   .     S
C474   O511    1.410   .     S
C474   H489    1.112   .     S
C474   H488    1.114   .     S
C474   H490    1.109   .     S
C475   H493    1.109   .     S
C475   H491    1.114   .     S
C475   O512    1.410   .     S
C475   H642    1.112   1_455 S
C476   H495    1.113   .     S
C476   O513    1.410   .     S
C476   H497    1.109   .     S
C476   H496    1.113   .     S
C477   C479    1.425   .     A
C477   C478    1.419   .     A
C478   C1157   1.403   .     S
C479   C1155   1.424   .     S
C480   C481    1.425   .     A
C480   C1154   1.424   1_554 S
C481   O513    1.383   .     S
C481   C482    1.403   .     A
C482   O510    1.384   .     S
C482   C1153   1.403   1_554 S
H483   C536    1.086   .     S
H487   C547    1.109   .     S
H492   C550    1.112   .     S
H498   C14     1.086   1_565 S
O505   Zn524   1.926   .     S
O505   Zn522   1.956   .     S
O505   Zn525   1.936   .     S
O505   Zn523   1.942   .     S
O506   Zn523   1.925   .     S
O507   Zn525   1.935   .     S
O508   Zn524   1.933   .     S
O509   Zn522   1.925   .     S
O512   C610    1.387   1_455 S
O514   Zn522   1.927   .     S
O515   Zn525   1.927   .     S
O516   Zn523   1.928   .     S
O517   Zn524   1.937   .     S
O518   Zn525   1.931   .     S
O519   Zn522   1.922   .     S
O520   Zn523   1.934   .     S
O521   Zn524   1.931   .     S
C526   O593    1.271   .     A
C526   C536    1.438   .     S
C526   O591    1.270   .     A
C527   C554    1.414   .     A
C527   H559    1.076   .     S
C527   C528    1.384   .     A
C528   H576    1.084   .     S
C528   C1205   1.393   .     S
C529   O594    1.278   .     A
C529   O592    1.277   .     A
C529   C535    1.462   .     S
C530   C531    1.424   .     A
C530   C532    1.412   .     A
C530   C1203   1.393   1_554 S
C531   C534    1.410   .     A
C531   C555    1.431   .     A
C532   C533    1.398   .     A
C532   O586    1.385   .     S
C533   C545    1.394   .     A
C533   H575    1.084   .     S
C534   H574    1.078   .     S
C534   C545    1.393   .     A
C535   C611    1.339   .     S
C535   O662    1.387   .     S
C537   C546    1.393   .     A
C537   H578    1.083   .     S
C537   C544    1.397   .     A
C538   C541    1.452   .     S
C538   C89     1.332   1_565 S
C538   H119    1.088   1_565 S
C539   C540    1.436   .     S
C540   O589    1.277   .     A
C540   O595    1.276   .     A
C541   O596    1.270   .     A
C541   O590    1.270   .     A
C542   O583    1.271   .     A
C542   O581    1.275   .     A
C542   C545    1.455   .     S
C543   C544    1.471   .     S
C543   O582    1.285   .     A
C543   O584    1.283   .     A
C544   C548    1.397   .     A
C546   C553    1.409   .     A
C546   H577    1.083   .     S
C547   H560    1.114   .     S
C547   O585    1.410   .     S
C547   H561    1.113   .     S
C548   C552    1.411   .     A
C548   H579    1.076   .     S
C549   O586    1.410   .     S
C549   H564    1.112   .     S
C549   H563    1.114   .     S
C549   H565    1.109   .     S
C550   H568    1.109   .     S
C550   H566    1.114   .     S
C550   O587    1.410   .     S
C551   H570    1.113   .     S
C551   O588    1.410   .     S
C551   H572    1.109   .     S
C551   H571    1.113   .     S
C552   C554    1.425   .     A
C552   C553    1.419   .     A
C553   C1232   1.403   .     S
C554   C1230   1.424   .     S
C555   C556    1.425   .     A
C555   C1229   1.424   1_554 S
C556   O588    1.383   .     S
C556   C557    1.403   .     A
C557   O585    1.384   .     S
C557   C1228   1.403   1_554 S
H558   C611    1.086   .     S
H562   C622    1.109   .     S
H567   C625    1.112   .     S
H573   C89     1.086   1_565 S
O580   Zn599   1.926   .     S
O580   Zn597   1.956   .     S
O580   Zn600   1.936   .     S
O580   Zn598   1.942   .     S
O581   Zn598   1.925   .     S
O582   Zn600   1.935   .     S
O583   Zn599   1.933   .     S
O584   Zn597   1.925   .     S
O589   Zn597   1.927   .     S
O590   Zn600   1.927   .     S
O591   Zn598   1.928   .     S
O592   Zn599   1.937   .     S
O593   Zn600   1.931   .     S
O594   Zn597   1.922   .     S
O595   Zn598   1.934   .     S
O596   Zn599   1.931   .     S
C601   O668    1.271   .     A
C601   C611    1.438   .     S
C601   O666    1.270   .     A
C602   C629    1.414   .     A
C602   H634    1.076   .     S
C602   C603    1.384   .     A
C603   H651    1.084   .     S
C603   C1280   1.393   .     S
C604   O669    1.278   .     A
C604   O667    1.277   .     A
C604   C610    1.462   .     S
C605   C606    1.424   .     A
C605   C607    1.412   .     A
C605   C1278   1.393   1_554 S
C606   C609    1.410   .     A
C606   C630    1.431   .     A
C607   C608    1.398   .     A
C607   O661    1.385   .     S
C608   C620    1.394   .     A
C608   H650    1.084   .     S
C609   H649    1.078   .     S
C609   C620    1.393   .     A
C610   C461    1.339   1_655 S
C610   O512    1.387   1_655 S
C612   C621    1.393   .     A
C612   H653    1.083   .     S
C612   C619    1.397   .     A
C613   C616    1.452   .     S
C613   C164    1.332   1_565 S
C613   H194    1.088   1_565 S
C614   C615    1.436   .     S
C615   O664    1.277   .     A
C615   O670    1.276   .     A
C616   O671    1.270   .     A
C616   O665    1.270   .     A
C617   O658    1.271   .     A
C617   O656    1.275   .     A
C617   C620    1.455   .     S
C618   C619    1.471   .     S
C618   O657    1.285   .     A
C618   O659    1.283   .     A
C619   C623    1.397   .     A
C621   C628    1.409   .     A
C621   H652    1.083   .     S
C622   H635    1.114   .     S
C622   O660    1.410   .     S
C622   H636    1.113   .     S
C623   C627    1.411   .     A
C623   H654    1.076   .     S
C624   O661    1.410   .     S
C624   H639    1.112   .     S
C624   H638    1.114   .     S
C624   H640    1.109   .     S
C625   H643    1.109   .     S
C625   H641    1.114   .     S
C625   O662    1.410   .     S
C626   H645    1.113   .     S
C626   O663    1.410   .     S
C626   H647    1.109   .     S
C626   H646    1.113   .     S
C627   C629    1.425   .     A
C627   C628    1.419   .     A
C628   C1307   1.403   .     S
C629   C1305   1.424   .     S
C630   C631    1.425   .     A
C630   C1304   1.424   1_554 S
C631   O663    1.383   .     S
C631   C632    1.403   .     A
C632   O660    1.384   .     S
C632   C1303   1.403   1_554 S
H633   C461    1.086   1_655 S
H637   C472    1.109   1_655 S
H642   C475    1.112   1_655 S
H648   C164    1.086   1_565 S
O655   Zn674   1.926   .     S
O655   Zn672   1.956   .     S
O655   Zn675   1.936   .     S
O655   Zn673   1.942   .     S
O656   Zn673   1.925   .     S
O657   Zn675   1.935   .     S
O658   Zn674   1.933   .     S
O659   Zn672   1.925   .     S
O664   Zn672   1.927   .     S
O665   Zn675   1.927   .     S
O666   Zn673   1.928   .     S
O667   Zn674   1.937   .     S
O668   Zn675   1.931   .     S
O669   Zn672   1.922   .     S
O670   Zn673   1.934   .     S
O671   Zn674   1.931   .     S
C676   O743    1.271   .     A
C676   C686    1.438   .     S
C676   O741    1.270   .     A
C677   C704    1.414   .     A
C677   H709    1.076   .     S
C677   C678    1.384   .     A
C678   H726    1.084   .     S
C678   C5      1.393   1_556 S
C679   O744    1.278   .     A
C679   O742    1.277   .     A
C679   C685    1.462   .     S
C680   C681    1.424   .     A
C680   C682    1.412   .     A
C681   C684    1.410   .     A
C681   C705    1.431   .     A
C682   C683    1.398   .     A
C682   O736    1.385   .     S
C683   C695    1.394   .     A
C683   H725    1.084   .     S
C684   H724    1.078   .     S
C684   C695    1.393   .     A
C685   C761    1.339   .     S
C685   O812    1.387   .     S
C686   C835    1.339   1_455 S
C686   H858    1.086   1_455 S
C687   C696    1.393   .     A
C687   H728    1.083   .     S
C687   C694    1.397   .     A
C688   C691    1.452   .     S
C688   C914    1.332   .     S
C688   H944    1.088   .     S
C689   C690    1.436   .     S
C689   C1138   1.332   1_545 S
C689   H1173   1.086   1_545 S
C690   O739    1.277   .     A
C690   O745    1.276   .     A
C691   O746    1.270   .     A
C691   O740    1.270   .     A
C692   O733    1.271   .     A
C692   O731    1.275   .     A
C692   C695    1.455   .     S
C693   C694    1.471   .     S
C693   O732    1.285   .     A
C693   O734    1.283   .     A
C694   C698    1.397   .     A
C696   C703    1.409   .     A
C696   H727    1.083   .     S
C697   H710    1.114   .     S
C697   O735    1.410   .     S
C697   H711    1.113   .     S
C697   H862    1.109   1_455 S
C698   C702    1.411   .     A
C698   H729    1.076   .     S
C699   O736    1.410   .     S
C699   H714    1.112   .     S
C699   H713    1.114   .     S
C699   H715    1.109   .     S
C700   H718    1.109   .     S
C700   H716    1.114   .     S
C700   O737    1.410   .     S
C700   H867    1.112   1_455 S
C701   H720    1.113   .     S
C701   O738    1.410   .     S
C701   H722    1.109   .     S
C701   H721    1.113   .     S
C702   C704    1.425   .     A
C702   C703    1.419   .     A
C703   C32     1.403   1_556 S
C704   C30     1.424   1_556 S
C705   C706    1.425   .     A
C706   O738    1.383   .     S
C706   C707    1.403   .     A
C707   O735    1.384   .     S
H708   C761    1.086   .     S
H712   C772    1.109   .     S
H717   C775    1.112   .     S
H719   C1138   1.088   1_545 S
H723   C914    1.086   .     S
O730   Zn749   1.926   .     S
O730   Zn747   1.956   .     S
O730   Zn750   1.936   .     S
O730   Zn748   1.942   .     S
O731   Zn748   1.925   .     S
O732   Zn750   1.935   .     S
O733   Zn749   1.933   .     S
O734   Zn747   1.925   .     S
O737   C835    1.387   1_455 S
O739   Zn747   1.927   .     S
O740   Zn750   1.927   .     S
O741   Zn748   1.928   .     S
O742   Zn749   1.937   .     S
O743   Zn750   1.931   .     S
O744   Zn747   1.922   .     S
O745   Zn748   1.934   .     S
O746   Zn749   1.931   .     S
C751   O818    1.271   .     A
C751   C761    1.438   .     S
C751   O816    1.270   .     A
C752   C779    1.414   .     A
C752   H784    1.076   .     S
C752   C753    1.384   .     A
C753   H801    1.084   .     S
C753   C80     1.393   1_556 S
C754   O819    1.278   .     A
C754   O817    1.277   .     A
C754   C760    1.462   .     S
C755   C756    1.424   .     A
C755   C757    1.412   .     A
C756   C759    1.410   .     A
C756   C780    1.431   .     A
C757   C758    1.398   .     A
C757   O811    1.385   .     S
C758   C770    1.394   .     A
C758   H800    1.084   .     S
C759   H799    1.078   .     S
C759   C770    1.393   .     A
C760   C836    1.339   .     S
C760   O887    1.387   .     S
C762   C771    1.393   .     A
C762   H803    1.083   .     S
C762   C769    1.397   .     A
C763   C766    1.452   .     S
C763   C989    1.332   .     S
C763   H1019   1.088   .     S
C764   C765    1.436   .     S
C764   C1213   1.332   1_545 S
C764   H1248   1.086   1_545 S
C765   O814    1.277   .     A
C765   O820    1.276   .     A
C766   O821    1.270   .     A
C766   O815    1.270   .     A
C767   O808    1.271   .     A
C767   O806    1.275   .     A
C767   C770    1.455   .     S
C768   C769    1.471   .     S
C768   O807    1.285   .     A
C768   O809    1.283   .     A
C769   C773    1.397   .     A
C771   C778    1.409   .     A
C771   H802    1.083   .     S
C772   H785    1.114   .     S
C772   O810    1.410   .     S
C772   H786    1.113   .     S
C773   C777    1.411   .     A
C773   H804    1.076   .     S
C774   O811    1.410   .     S
C774   H789    1.112   .     S
C774   H788    1.114   .     S
C774   H790    1.109   .     S
C775   H793    1.109   .     S
C775   H791    1.114   .     S
C775   O812    1.410   .     S
C776   H795    1.113   .     S
C776   O813    1.410   .     S
C776   H797    1.109   .     S
C776   H796    1.113   .     S
C777   C779    1.425   .     A
C777   C778    1.419   .     A
C778   C107    1.403   1_556 S
C779   C105    1.424   1_556 S
C780   C781    1.425   .     A
C781   O813    1.383   .     S
C781   C782    1.403   .     A
C782   O810    1.384   .     S
H783   C836    1.086   .     S
H787   C847    1.109   .     S
H792   C850    1.112   .     S
H794   C1213   1.088   1_545 S
H798   C989    1.086   .     S
O805   Zn824   1.926   .     S
O805   Zn822   1.956   .     S
O805   Zn825   1.936   .     S
O805   Zn823   1.942   .     S
O806   Zn823   1.925   .     S
O807   Zn825   1.935   .     S
O808   Zn824   1.933   .     S
O809   Zn822   1.925   .     S
O814   Zn822   1.927   .     S
O815   Zn825   1.927   .     S
O816   Zn823   1.928   .     S
O817   Zn824   1.937   .     S
O818   Zn825   1.931   .     S
O819   Zn822   1.922   .     S
O820   Zn823   1.934   .     S
O821   Zn824   1.931   .     S
C826   O893    1.271   .     A
C826   C836    1.438   .     S
C826   O891    1.270   .     A
C827   C854    1.414   .     A
C827   H859    1.076   .     S
C827   C828    1.384   .     A
C828   H876    1.084   .     S
C828   C155    1.393   1_556 S
C829   O894    1.278   .     A
C829   O892    1.277   .     A
C829   C835    1.462   .     S
C830   C831    1.424   .     A
C830   C832    1.412   .     A
C831   C834    1.410   .     A
C831   C855    1.431   .     A
C832   C833    1.398   .     A
C832   O886    1.385   .     S
C833   C845    1.394   .     A
C833   H875    1.084   .     S
C834   H874    1.078   .     S
C834   C845    1.393   .     A
C835   C686    1.339   1_655 S
C835   O737    1.387   1_655 S
C837   C846    1.393   .     A
C837   H878    1.083   .     S
C837   C844    1.397   .     A
C838   C841    1.452   .     S
C838   C1064   1.332   .     S
C838   H1094   1.088   .     S
C839   C840    1.436   .     S
C839   C1288   1.332   1_545 S
C839   H1323   1.086   1_545 S
C840   O889    1.277   .     A
C840   O895    1.276   .     A
C841   O896    1.270   .     A
C841   O890    1.270   .     A
C842   O883    1.271   .     A
C842   O881    1.275   .     A
C842   C845    1.455   .     S
C843   C844    1.471   .     S
C843   O882    1.285   .     A
C843   O884    1.283   .     A
C844   C848    1.397   .     A
C846   C853    1.409   .     A
C846   H877    1.083   .     S
C847   H860    1.114   .     S
C847   O885    1.410   .     S
C847   H861    1.113   .     S
C848   C852    1.411   .     A
C848   H879    1.076   .     S
C849   O886    1.410   .     S
C849   H864    1.112   .     S
C849   H863    1.114   .     S
C849   H865    1.109   .     S
C850   H868    1.109   .     S
C850   H866    1.114   .     S
C850   O887    1.410   .     S
C851   H870    1.113   .     S
C851   O888    1.410   .     S
C851   H872    1.109   .     S
C851   H871    1.113   .     S
C852   C854    1.425   .     A
C852   C853    1.419   .     A
C853   C182    1.403   1_556 S
C854   C180    1.424   1_556 S
C855   C856    1.425   .     A
C856   O888    1.383   .     S
C856   C857    1.403   .     A
C857   O885    1.384   .     S
H858   C686    1.086   1_655 S
H862   C697    1.109   1_655 S
H867   C700    1.112   1_655 S
H869   C1288   1.088   1_545 S
H873   C1064   1.086   .     S
O880   Zn899   1.926   .     S
O880   Zn897   1.956   .     S
O880   Zn900   1.936   .     S
O880   Zn898   1.942   .     S
O881   Zn898   1.925   .     S
O882   Zn900   1.935   .     S
O883   Zn899   1.933   .     S
O884   Zn897   1.925   .     S
O889   Zn897   1.927   .     S
O890   Zn900   1.927   .     S
O891   Zn898   1.928   .     S
O892   Zn899   1.937   .     S
O893   Zn900   1.931   .     S
O894   Zn897   1.922   .     S
O895   Zn898   1.934   .     S
O896   Zn899   1.931   .     S
C901   O968    1.271   .     A
C901   C911    1.438   .     S
C901   O966    1.270   .     A
C902   C929    1.414   .     A
C902   H934    1.076   .     S
C902   C903    1.384   .     A
C903   H951    1.084   .     S
C903   C230    1.393   1_556 S
C904   O969    1.278   .     A
C904   O967    1.277   .     A
C904   C910    1.462   .     S
C905   C906    1.424   .     A
C905   C907    1.412   .     A
C906   C909    1.410   .     A
C906   C930    1.431   .     A
C907   C908    1.398   .     A
C907   O961    1.385   .     S
C908   C920    1.394   .     A
C908   H950    1.084   .     S
C909   H949    1.078   .     S
C909   C920    1.393   .     A
C910   C986    1.339   .     S
C910   O1037   1.387   .     S
C911   C1060   1.339   1_455 S
C911   H1083   1.086   1_455 S
C912   C921    1.393   .     A
C912   H953    1.083   .     S
C912   C919    1.397   .     A
C913   C916    1.452   .     S
C913   C1139   1.332   .     S
C913   H1169   1.088   .     S
C914   C915    1.436   .     S
C915   O964    1.277   .     A
C915   O970    1.276   .     A
C916   O971    1.270   .     A
C916   O965    1.270   .     A
C917   O958    1.271   .     A
C917   O956    1.275   .     A
C917   C920    1.455   .     S
C918   C919    1.471   .     S
C918   O957    1.285   .     A
C918   O959    1.283   .     A
C919   C923    1.397   .     A
C921   C928    1.409   .     A
C921   H952    1.083   .     S
C922   H935    1.114   .     S
C922   O960    1.410   .     S
C922   H936    1.113   .     S
C922   H1087   1.109   1_455 S
C923   C927    1.411   .     A
C923   H954    1.076   .     S
C924   O961    1.410   .     S
C924   H939    1.112   .     S
C924   H938    1.114   .     S
C924   H940    1.109   .     S
C925   H943    1.109   .     S
C925   H941    1.114   .     S
C925   O962    1.410   .     S
C925   H1092   1.112   1_455 S
C926   H945    1.113   .     S
C926   O963    1.410   .     S
C926   H947    1.109   .     S
C926   H946    1.113   .     S
C927   C929    1.425   .     A
C927   C928    1.419   .     A
C928   C257    1.403   1_556 S
C929   C255    1.424   1_556 S
C930   C931    1.425   .     A
C931   O963    1.383   .     S
C931   C932    1.403   .     A
C932   O960    1.384   .     S
H933   C986    1.086   .     S
H937   C997    1.109   .     S
H942   C1000   1.112   .     S
H948   C1139   1.086   .     S
O955   Zn974   1.926   .     S
O955   Zn972   1.956   .     S
O955   Zn975   1.936   .     S
O955   Zn973   1.942   .     S
O956   Zn973   1.925   .     S
O957   Zn975   1.935   .     S
O958   Zn974   1.933   .     S
O959   Zn972   1.925   .     S
O962   C1060   1.387   1_455 S
O964   Zn972   1.927   .     S
O965   Zn975   1.927   .     S
O966   Zn973   1.928   .     S
O967   Zn974   1.937   .     S
O968   Zn975   1.931   .     S
O969   Zn972   1.922   .     S
O970   Zn973   1.934   .     S
O971   Zn974   1.931   .     S
C976   O1043   1.271   .     A
C976   C986    1.438   .     S
C976   O1041   1.270   .     A
C977   C1004   1.414   .     A
C977   H1009   1.076   .     S
C977   C978    1.384   .     A
C978   H1026   1.084   .     S
C978   C305    1.393   1_556 S
C979   O1044   1.278   .     A
C979   O1042   1.277   .     A
C979   C985    1.462   .     S
C980   C981    1.424   .     A
C980   C982    1.412   .     A
C981   C984    1.410   .     A
C981   C1005   1.431   .     A
C982   C983    1.398   .     A
C982   O1036   1.385   .     S
C983   C995    1.394   .     A
C983   H1025   1.084   .     S
C984   H1024   1.078   .     S
C984   C995    1.393   .     A
C985   C1061   1.339   .     S
C985   O1112   1.387   .     S
C987   C996    1.393   .     A
C987   H1028   1.083   .     S
C987   C994    1.397   .     A
C988   C991    1.452   .     S
C988   C1214   1.332   .     S
C988   H1244   1.088   .     S
C989   C990    1.436   .     S
C990   O1039   1.277   .     A
C990   O1045   1.276   .     A
C991   O1046   1.270   .     A
C991   O1040   1.270   .     A
C992   O1033   1.271   .     A
C992   O1031   1.275   .     A
C992   C995    1.455   .     S
C993   C994    1.471   .     S
C993   O1032   1.285   .     A
C993   O1034   1.283   .     A
C994   C998    1.397   .     A
C996   C1003   1.409   .     A
C996   H1027   1.083   .     S
C997   H1010   1.114   .     S
C997   O1035   1.410   .     S
C997   H1011   1.113   .     S
C998   C1002   1.411   .     A
C998   H1029   1.076   .     S
C999   O1036   1.410   .     S
C999   H1014   1.112   .     S
C999   H1013   1.114   .     S
C999   H1015   1.109   .     S
C1000  H1018   1.109   .     S
C1000  H1016   1.114   .     S
C1000  O1037   1.410   .     S
C1001  H1020   1.113   .     S
C1001  O1038   1.410   .     S
C1001  H1022   1.109   .     S
C1001  H1021   1.113   .     S
C1002  C1004   1.425   .     A
C1002  C1003   1.419   .     A
C1003  C332    1.403   1_556 S
C1004  C330    1.424   1_556 S
C1005  C1006   1.425   .     A
C1006  O1038   1.383   .     S
C1006  C1007   1.403   .     A
C1007  O1035   1.384   .     S
H1008  C1061   1.086   .     S
H1012  C1072   1.109   .     S
H1017  C1075   1.112   .     S
H1023  C1214   1.086   .     S
O1030  Zn1049  1.926   .     S
O1030  Zn1047  1.956   .     S
O1030  Zn1050  1.936   .     S
O1030  Zn1048  1.942   .     S
O1031  Zn1048  1.925   .     S
O1032  Zn1050  1.935   .     S
O1033  Zn1049  1.933   .     S
O1034  Zn1047  1.925   .     S
O1039  Zn1047  1.927   .     S
O1040  Zn1050  1.927   .     S
O1041  Zn1048  1.928   .     S
O1042  Zn1049  1.937   .     S
O1043  Zn1050  1.931   .     S
O1044  Zn1047  1.922   .     S
O1045  Zn1048  1.934   .     S
O1046  Zn1049  1.931   .     S
C1051  O1118   1.271   .     A
C1051  C1061   1.438   .     S
C1051  O1116   1.270   .     A
C1052  C1079   1.414   .     A
C1052  H1084   1.076   .     S
C1052  C1053   1.384   .     A
C1053  H1101   1.084   .     S
C1053  C380    1.393   1_556 S
C1054  O1119   1.278   .     A
C1054  O1117   1.277   .     A
C1054  C1060   1.462   .     S
C1055  C1056   1.424   .     A
C1055  C1057   1.412   .     A
C1056  C1059   1.410   .     A
C1056  C1080   1.431   .     A
C1057  C1058   1.398   .     A
C1057  O1111   1.385   .     S
C1058  C1070   1.394   .     A
C1058  H1100   1.084   .     S
C1059  H1099   1.078   .     S
C1059  C1070   1.393   .     A
C1060  C911    1.339   1_655 S
C1060  O962    1.387   1_655 S
C1062  C1071   1.393   .     A
C1062  H1103   1.083   .     S
C1062  C1069   1.397   .     A
C1063  C1066   1.452   .     S
C1063  C1289   1.332   .     S
C1063  H1319   1.088   .     S
C1064  C1065   1.436   .     S
C1065  O1114   1.277   .     A
C1065  O1120   1.276   .     A
C1066  O1121   1.270   .     A
C1066  O1115   1.270   .     A
C1067  O1108   1.271   .     A
C1067  O1106   1.275   .     A
C1067  C1070   1.455   .     S
C1068  C1069   1.471   .     S
C1068  O1107   1.285   .     A
C1068  O1109   1.283   .     A
C1069  C1073   1.397   .     A
C1071  C1078   1.409   .     A
C1071  H1102   1.083   .     S
C1072  H1085   1.114   .     S
C1072  O1110   1.410   .     S
C1072  H1086   1.113   .     S
C1073  C1077   1.411   .     A
C1073  H1104   1.076   .     S
C1074  O1111   1.410   .     S
C1074  H1089   1.112   .     S
C1074  H1088   1.114   .     S
C1074  H1090   1.109   .     S
C1075  H1093   1.109   .     S
C1075  H1091   1.114   .     S
C1075  O1112   1.410   .     S
C1076  H1095   1.113   .     S
C1076  O1113   1.410   .     S
C1076  H1097   1.109   .     S
C1076  H1096   1.113   .     S
C1077  C1079   1.425   .     A
C1077  C1078   1.419   .     A
C1078  C407    1.403   1_556 S
C1079  C405    1.424   1_556 S
C1080  C1081   1.425   .     A
C1081  O1113   1.383   .     S
C1081  C1082   1.403   .     A
C1082  O1110   1.384   .     S
H1083  C911    1.086   1_655 S
H1087  C922    1.109   1_655 S
H1092  C925    1.112   1_655 S
H1098  C1289   1.086   .     S
O1105  Zn1124  1.926   .     S
O1105  Zn1122  1.956   .     S
O1105  Zn1125  1.936   .     S
O1105  Zn1123  1.942   .     S
O1106  Zn1123  1.925   .     S
O1107  Zn1125  1.935   .     S
O1108  Zn1124  1.933   .     S
O1109  Zn1122  1.925   .     S
O1114  Zn1122  1.927   .     S
O1115  Zn1125  1.927   .     S
O1116  Zn1123  1.928   .     S
O1117  Zn1124  1.937   .     S
O1118  Zn1125  1.931   .     S
O1119  Zn1122  1.922   .     S
O1120  Zn1123  1.934   .     S
O1121  Zn1124  1.931   .     S
C1126  O1193   1.271   .     A
C1126  C1136   1.438   .     S
C1126  O1191   1.270   .     A
C1127  C1154   1.414   .     A
C1127  H1159   1.076   .     S
C1127  C1128   1.384   .     A
C1128  H1176   1.084   .     S
C1128  C455    1.393   1_556 S
C1129  O1194   1.278   .     A
C1129  O1192   1.277   .     A
C1129  C1135   1.462   .     S
C1130  C1131   1.424   .     A
C1130  C1132   1.412   .     A
C1131  C1134   1.410   .     A
C1131  C1155   1.431   .     A
C1132  C1133   1.398   .     A
C1132  O1186   1.385   .     S
C1133  C1145   1.394   .     A
C1133  H1175   1.084   .     S
C1134  H1174   1.078   .     S
C1134  C1145   1.393   .     A
C1135  C1211   1.339   .     S
C1135  O1262   1.387   .     S
C1136  C1285   1.339   1_455 S
C1136  H1308   1.086   1_455 S
C1137  C1146   1.393   .     A
C1137  H1178   1.083   .     S
C1137  C1144   1.397   .     A
C1138  C1141   1.452   .     S
C1138  C689    1.332   1_565 S
C1138  H719    1.088   1_565 S
C1139  C1140   1.436   .     S
C1140  O1189   1.277   .     A
C1140  O1195   1.276   .     A
C1141  O1196   1.270   .     A
C1141  O1190   1.270   .     A
C1142  O1183   1.271   .     A
C1142  O1181   1.275   .     A
C1142  C1145   1.455   .     S
C1143  C1144   1.471   .     S
C1143  O1182   1.285   .     A
C1143  O1184   1.283   .     A
C1144  C1148   1.397   .     A
C1146  C1153   1.409   .     A
C1146  H1177   1.083   .     S
C1147  H1160   1.114   .     S
C1147  O1185   1.410   .     S
C1147  H1161   1.113   .     S
C1147  H1312   1.109   1_455 S
C1148  C1152   1.411   .     A
C1148  H1179   1.076   .     S
C1149  O1186   1.410   .     S
C1149  H1164   1.112   .     S
C1149  H1163   1.114   .     S
C1149  H1165   1.109   .     S
C1150  H1168   1.109   .     S
C1150  H1166   1.114   .     S
C1150  O1187   1.410   .     S
C1150  H1317   1.112   1_455 S
C1151  H1170   1.113   .     S
C1151  O1188   1.410   .     S
C1151  H1172   1.109   .     S
C1151  H1171   1.113   .     S
C1152  C1154   1.425   .     A
C1152  C1153   1.419   .     A
C1153  C482    1.403   1_556 S
C1154  C480    1.424   1_556 S
C1155  C1156   1.425   .     A
C1156  O1188   1.383   .     S
C1156  C1157   1.403   .     A
C1157  O1185   1.384   .     S
H1158  C1211   1.086   .     S
H1162  C1222   1.109   .     S
H1167  C1225   1.112   .     S
H1173  C689    1.086   1_565 S
O1180  Zn1199  1.926   .     S
O1180  Zn1197  1.956   .     S
O1180  Zn1200  1.936   .     S
O1180  Zn1198  1.942   .     S
O1181  Zn1198  1.925   .     S
O1182  Zn1200  1.935   .     S
O1183  Zn1199  1.933   .     S
O1184  Zn1197  1.925   .     S
O1187  C1285   1.387   1_455 S
O1189  Zn1197  1.927   .     S
O1190  Zn1200  1.927   .     S
O1191  Zn1198  1.928   .     S
O1192  Zn1199  1.937   .     S
O1193  Zn1200  1.931   .     S
O1194  Zn1197  1.922   .     S
O1195  Zn1198  1.934   .     S
O1196  Zn1199  1.931   .     S
C1201  O1268   1.271   .     A
C1201  C1211   1.438   .     S
C1201  O1266   1.270   .     A
C1202  C1229   1.414   .     A
C1202  H1234   1.076   .     S
C1202  C1203   1.384   .     A
C1203  H1251   1.084   .     S
C1203  C530    1.393   1_556 S
C1204  O1269   1.278   .     A
C1204  O1267   1.277   .     A
C1204  C1210   1.462   .     S
C1205  C1206   1.424   .     A
C1205  C1207   1.412   .     A
C1206  C1209   1.410   .     A
C1206  C1230   1.431   .     A
C1207  C1208   1.398   .     A
C1207  O1261   1.385   .     S
C1208  C1220   1.394   .     A
C1208  H1250   1.084   .     S
C1209  H1249   1.078   .     S
C1209  C1220   1.393   .     A
C1210  C1286   1.339   .     S
C1210  O1337   1.387   .     S
C1212  C1221   1.393   .     A
C1212  H1253   1.083   .     S
C1212  C1219   1.397   .     A
C1213  C1216   1.452   .     S
C1213  C764    1.332   1_565 S
C1213  H794    1.088   1_565 S
C1214  C1215   1.436   .     S
C1215  O1264   1.277   .     A
C1215  O1270   1.276   .     A
C1216  O1271   1.270   .     A
C1216  O1265   1.270   .     A
C1217  O1258   1.271   .     A
C1217  O1256   1.275   .     A
C1217  C1220   1.455   .     S
C1218  C1219   1.471   .     S
C1218  O1257   1.285   .     A
C1218  O1259   1.283   .     A
C1219  C1223   1.397   .     A
C1221  C1228   1.409   .     A
C1221  H1252   1.083   .     S
C1222  H1235   1.114   .     S
C1222  O1260   1.410   .     S
C1222  H1236   1.113   .     S
C1223  C1227   1.411   .     A
C1223  H1254   1.076   .     S
C1224  O1261   1.410   .     S
C1224  H1239   1.112   .     S
C1224  H1238   1.114   .     S
C1224  H1240   1.109   .     S
C1225  H1243   1.109   .     S
C1225  H1241   1.114   .     S
C1225  O1262   1.410   .     S
C1226  H1245   1.113   .     S
C1226  O1263   1.410   .     S
C1226  H1247   1.109   .     S
C1226  H1246   1.113   .     S
C1227  C1229   1.425   .     A
C1227  C1228   1.419   .     A
C1228  C557    1.403   1_556 S
C1229  C555    1.424   1_556 S
C1230  C1231   1.425   .     A
C1231  O1263   1.383   .     S
C1231  C1232   1.403   .     A
C1232  O1260   1.384   .     S
H1233  C1286   1.086   .     S
H1237  C1297   1.109   .     S
H1242  C1300   1.112   .     S
H1248  C764    1.086   1_565 S
O1255  Zn1274  1.926   .     S
O1255  Zn1272  1.956   .     S
O1255  Zn1275  1.936   .     S
O1255  Zn1273  1.942   .     S
O1256  Zn1273  1.925   .     S
O1257  Zn1275  1.935   .     S
O1258  Zn1274  1.933   .     S
O1259  Zn1272  1.925   .     S
O1264  Zn1272  1.927   .     S
O1265  Zn1275  1.927   .     S
O1266  Zn1273  1.928   .     S
O1267  Zn1274  1.937   .     S
O1268  Zn1275  1.931   .     S
O1269  Zn1272  1.922   .     S
O1270  Zn1273  1.934   .     S
O1271  Zn1274  1.931   .     S
C1276  O1343   1.271   .     A
C1276  C1286   1.438   .     S
C1276  O1341   1.270   .     A
C1277  C1304   1.414   .     A
C1277  H1309   1.076   .     S
C1277  C1278   1.384   .     A
C1278  H1326   1.084   .     S
C1278  C605    1.393   1_556 S
C1279  O1344   1.278   .     A
C1279  O1342   1.277   .     A
C1279  C1285   1.462   .     S
C1280  C1281   1.424   .     A
C1280  C1282   1.412   .     A
C1281  C1284   1.410   .     A
C1281  C1305   1.431   .     A
C1282  C1283   1.398   .     A
C1282  O1336   1.385   .     S
C1283  C1295   1.394   .     A
C1283  H1325   1.084   .     S
C1284  H1324   1.078   .     S
C1284  C1295   1.393   .     A
C1285  C1136   1.339   1_655 S
C1285  O1187   1.387   1_655 S
C1287  C1296   1.393   .     A
C1287  H1328   1.083   .     S
C1287  C1294   1.397   .     A
C1288  C1291   1.452   .     S
C1288  C839    1.332   1_565 S
C1288  H869    1.088   1_565 S
C1289  C1290   1.436   .     S
C1290  O1339   1.277   .     A
C1290  O1345   1.276   .     A
C1291  O1346   1.270   .     A
C1291  O1340   1.270   .     A
C1292  O1333   1.271   .     A
C1292  O1331   1.275   .     A
C1292  C1295   1.455   .     S
C1293  C1294   1.471   .     S
C1293  O1332   1.285   .     A
C1293  O1334   1.283   .     A
C1294  C1298   1.397   .     A
C1296  C1303   1.409   .     A
C1296  H1327   1.083   .     S
C1297  H1310   1.114   .     S
C1297  O1335   1.410   .     S
C1297  H1311   1.113   .     S
C1298  C1302   1.411   .     A
C1298  H1329   1.076   .     S
C1299  O1336   1.410   .     S
C1299  H1314   1.112   .     S
C1299  H1313   1.114   .     S
C1299  H1315   1.109   .     S
C1300  H1318   1.109   .     S
C1300  H1316   1.114   .     S
C1300  O1337   1.410   .     S
C1301  H1320   1.113   .     S
C1301  O1338   1.410   .     S
C1301  H1322   1.109   .     S
C1301  H1321   1.113   .     S
C1302  C1304   1.425   .     A
C1302  C1303   1.419   .     A
C1303  C632    1.403   1_556 S
C1304  C630    1.424   1_556 S
C1305  C1306   1.425   .     A
C1306  O1338   1.383   .     S
C1306  C1307   1.403   .     A
C1307  O1335   1.384   .     S
H1308  C1136   1.086   1_655 S
H1312  C1147   1.109   1_655 S
H1317  C1150   1.112   1_655 S
H1323  C839    1.086   1_565 S
O1330  Zn1349  1.926   .     S
O1330  Zn1347  1.956   .     S
O1330  Zn1350  1.936   .     S
O1330  Zn1348  1.942   .     S
O1331  Zn1348  1.925   .     S
O1332  Zn1350  1.935   .     S
O1333  Zn1349  1.933   .     S
O1334  Zn1347  1.925   .     S
O1339  Zn1347  1.927   .     S
O1340  Zn1350  1.927   .     S
O1341  Zn1348  1.928   .     S
O1342  Zn1349  1.937   .     S
O1343  Zn1350  1.931   .     S
O1344  Zn1347  1.922   .     S
O1345  Zn1348  1.934   .     S
O1346  Zn1349  1.931   .     S
