data_str_m1_o1_o17_pcu_sym.34
_audit_creation_date              2020-01-03
_audit_creation_method            'Materials Studio'
_symmetry_space_group_name_H-M    'P1'
_symmetry_Int_Tables_number       1
_symmetry_cell_setting            triclinic
loop_
_symmetry_equiv_pos_as_xyz
  x,y,z
_cell_length_a                    36.6458
_cell_length_b                    36.6449
_cell_length_c                    34.3454
_cell_angle_alpha                 90.0013
_cell_angle_beta                  89.9804
_cell_angle_gamma                 90.0021
loop_
_atom_site_label
_atom_site_type_symbol
_atom_site_fract_x
_atom_site_fract_y
_atom_site_fract_z
_atom_site_U_iso_or_equiv
_atom_site_adp_type
_atom_site_occupancy
Br1    Br    0.48392   0.13794   0.45579   0.00000  Uiso   1.00
Br2    Br    0.26577   0.11210   0.04420   0.00000  Uiso   1.00
Br3    Br    0.11188   0.23265   0.95566   0.00000  Uiso   1.00
Br4    Br    0.38805   0.23369   0.04438   0.00000  Uiso   1.00
Br5    Br    0.23209   0.11172   0.95559   0.00000  Uiso   1.00
Br6    Br    0.23326   0.38810   0.04442   0.00000  Uiso   1.00
Br7    Br    0.38818   0.26718   0.95569   0.00000  Uiso   1.00
Br8    Br    0.11201   0.26647   0.04425   0.00000  Uiso   1.00
Br9    Br    0.47099   0.32224   0.38929   0.00000  Uiso   1.00
Br10   Br    0.47139   0.17761   0.61075   0.00000  Uiso   1.00
Br11   Br    0.17773   0.02907   0.38921   0.00000  Uiso   1.00
Br12   Br    0.48341   0.36198   0.54423   0.00000  Uiso   1.00
Br13   Br    0.32232   0.02883   0.61074   0.00000  Uiso   1.00
Br14   Br    0.02926   0.17779   0.38914   0.00000  Uiso   1.00
Br15   Br    0.02894   0.32234   0.61085   0.00000  Uiso   1.00
Br16   Br    0.32213   0.47066   0.38923   0.00000  Uiso   1.00
Br17   Br    0.17753   0.47145   0.61089   0.00000  Uiso   1.00
Br18   Br    0.27840   0.07247   0.88924   0.00000  Uiso   1.00
Br19   Br    0.27920   0.42783   0.11070   0.00000  Uiso   1.00
Br20   Br    0.42766   0.22120   0.88926   0.00000  Uiso   1.00
Br21   Br    0.07225   0.22088   0.11079   0.00000  Uiso   1.00
Br22   Br    0.22129   0.42757   0.88913   0.00000  Uiso   1.00
Br23   Br    0.36194   0.01636   0.45563   0.00000  Uiso   1.00
Br24   Br    0.22054   0.07213   0.11085   0.00000  Uiso   1.00
Br25   Br    0.07247   0.27853   0.88913   0.00000  Uiso   1.00
Br26   Br    0.42789   0.27938   0.11077   0.00000  Uiso   1.00
Br27   Br    0.13811   0.01727   0.54433   0.00000  Uiso   1.00
Br28   Br    0.01704   0.36185   0.45558   0.00000  Uiso   1.00
Br29   Br    0.01760   0.13822   0.54441   0.00000  Uiso   1.00
Br30   Br    0.13800   0.48346   0.45575   0.00000  Uiso   1.00
Br31   Br    0.36182   0.48286   0.54431   0.00000  Uiso   1.00
Br32   Br    0.26690   0.38807   0.95577   0.00000  Uiso   1.00
C33    C     0.49330   0.28253   0.41810   0.00000  Uiso   1.00
C34    C     0.25679   0.46748   0.08190   0.00000  Uiso   1.00
C35    C     0.21631   0.49864   0.54122   0.00000  Uiso   1.00
C36    C     0.49863   0.28361   0.45880   0.00000  Uiso   1.00
C37    C     0.49882   0.21638   0.54121   0.00000  Uiso   1.00
C38    C     0.21633   0.00158   0.45882   0.00000  Uiso   1.00
C39    C     0.28359   0.00141   0.54119   0.00000  Uiso   1.00
C40    C     0.24844   0.46634   0.95880   0.00000  Uiso   1.00
C41    C     0.24810   0.03364   0.04118   0.00000  Uiso   1.00
C42    C     0.03368   0.25134   0.95878   0.00000  Uiso   1.00
C43    C     0.46641   0.25167   0.04120   0.00000  Uiso   1.00
C44    C     0.25108   0.03362   0.95878   0.00000  Uiso   1.00
C45    C     0.46744   0.24336   0.91809   0.00000  Uiso   1.00
C46    C     0.25146   0.46639   0.04120   0.00000  Uiso   1.00
C47    C     0.46640   0.24860   0.95881   0.00000  Uiso   1.00
C48    C     0.03367   0.24839   0.04118   0.00000  Uiso   1.00
C49    C     0.09809   0.34810   0.25000   0.00000  Uiso   1.00
C50    C     0.40191   0.15190   0.75001   0.00000  Uiso   1.00
C51    C     0.15190   0.09809   0.25001   0.00000  Uiso   1.00
C52    C     0.34787   0.40165   0.75014   0.00000  Uiso   1.00
C53    C     0.40190   0.15190   0.25001   0.00000  Uiso   1.00
C54    C     0.09803   0.34808   0.74987   0.00000  Uiso   1.00
C55    C     0.34809   0.40190   0.24999   0.00000  Uiso   1.00
C56    C     0.03258   0.24318   0.08191   0.00000  Uiso   1.00
C57    C     0.15190   0.09809   0.75000   0.00000  Uiso   1.00
C58    C     0.09810   0.15191   0.75000   0.00000  Uiso   1.00
C59    C     0.40191   0.34810   0.25001   0.00000  Uiso   1.00
C60    C     0.15165   0.40213   0.74985   0.00000  Uiso   1.00
C61    C     0.34810   0.09810   0.24999   0.00000  Uiso   1.00
C62    C     0.40192   0.34803   0.75014   0.00000  Uiso   1.00
C63    C     0.09810   0.15191   0.24999   0.00000  Uiso   1.00
C64    C     0.34809   0.09810   0.74999   0.00000  Uiso   1.00
C65    C     0.15191   0.40190   0.25000   0.00000  Uiso   1.00
C66    C     0.00023   0.24999   0.47942   0.00000  Uiso   1.00
C67    C     0.24330   0.46737   0.91806   0.00000  Uiso   1.00
C68    C     0.00024   0.25001   0.52058   0.00000  Uiso   1.00
C69    C     0.24995   0.49998   0.47942   0.00000  Uiso   1.00
C70    C     0.24995   0.00000   0.52059   0.00000  Uiso   1.00
C71    C     0.24976   0.49999   0.97941   0.00000  Uiso   1.00
C72    C     0.24977   0.00001   0.02057   0.00000  Uiso   1.00
C73    C     0.00004   0.24999   0.97941   0.00000  Uiso   1.00
C74    C     0.00004   0.25001   0.02057   0.00000  Uiso   1.00
C75    C     0.24298   0.03256   0.08192   0.00000  Uiso   1.00
C76    C     0.03264   0.25655   0.91805   0.00000  Uiso   1.00
C77    C     0.46749   0.25691   0.08192   0.00000  Uiso   1.00
C78    C     0.00002   0.24997   0.39808   0.00000  Uiso   1.00
C79    C     0.00006   0.25003   0.60193   0.00000  Uiso   1.00
C80    C     0.24997   0.49998   0.39808   0.00000  Uiso   1.00
C81    C     0.49350   0.21743   0.58192   0.00000  Uiso   1.00
C82    C     0.24997   0.00002   0.60193   0.00000  Uiso   1.00
C83    C     0.24994   0.49997   0.89807   0.00000  Uiso   1.00
C84    C     0.24997   0.00003   0.10192   0.00000  Uiso   1.00
C85    C     0.00003   0.24998   0.89807   0.00000  Uiso   1.00
C86    C     0.00003   0.25002   0.10192   0.00000  Uiso   1.00
C87    C     0.49949   0.18318   0.47972   0.00000  Uiso   1.00
C88    C     0.49917   0.31682   0.52029   0.00000  Uiso   1.00
C89    C     0.31676   0.00074   0.47966   0.00000  Uiso   1.00
C90    C     0.18316   0.00124   0.52035   0.00000  Uiso   1.00
C91    C     0.00117   0.31679   0.47965   0.00000  Uiso   1.00
C92    C     0.21741   0.00680   0.41809   0.00000  Uiso   1.00
C93    C     0.00150   0.18321   0.52036   0.00000  Uiso   1.00
C94    C     0.18315   0.49920   0.47971   0.00000  Uiso   1.00
C95    C     0.31675   0.49878   0.52030   0.00000  Uiso   1.00
C96    C     0.25101   0.43318   0.97971   0.00000  Uiso   1.00
C97    C     0.25033   0.06682   0.02028   0.00000  Uiso   1.00
C98    C     0.06684   0.24871   0.97965   0.00000  Uiso   1.00
C99    C     0.43323   0.24928   0.02034   0.00000  Uiso   1.00
C100   C     0.24831   0.06678   0.97964   0.00000  Uiso   1.00
C101   C     0.24902   0.43321   0.02035   0.00000  Uiso   1.00
C102   C     0.43324   0.25124   0.97970   0.00000  Uiso   1.00
C103   C     0.28255   0.00666   0.58191   0.00000  Uiso   1.00
C104   C     0.06684   0.25076   0.02029   0.00000  Uiso   1.00
C105   C     0.24999  -0.00000   0.35578   0.00000  Uiso   1.00
C106   C     0.24999   0.00000   0.64423   0.00000  Uiso   1.00
C107   C    -0.00000   0.24999   0.35578   0.00000  Uiso   1.00
C108   C     0.00001   0.25001   0.64423   0.00000  Uiso   1.00
C109   C     0.00001   0.25000   0.85577   0.00000  Uiso   1.00
C110   C     0.00001   0.25000   0.14422   0.00000  Uiso   1.00
C111   C     0.24999   0.49999   0.85577   0.00000  Uiso   1.00
C112   C     0.25000   0.00001   0.14422   0.00000  Uiso   1.00
C113   C     0.17998   0.07001   0.25001   0.00000  Uiso   1.00
C114   C     0.00693   0.21742   0.41807   0.00000  Uiso   1.00
C115   C     0.31988   0.42984   0.75014   0.00000  Uiso   1.00
C116   C     0.42998   0.17998   0.25000   0.00000  Uiso   1.00
C117   C     0.07002   0.31998   0.75001   0.00000  Uiso   1.00
C118   C     0.32001   0.42998   0.24999   0.00000  Uiso   1.00
C119   C     0.17998   0.07001   0.75000   0.00000  Uiso   1.00
C120   C     0.07001   0.32002   0.25000   0.00000  Uiso   1.00
C121   C     0.42999   0.17998   0.75000   0.00000  Uiso   1.00
C122   C     0.17983   0.43012   0.74985   0.00000  Uiso   1.00
C123   C     0.32002   0.07002   0.25000   0.00000  Uiso   1.00
C124   C     0.43002   0.32002   0.75000   0.00000  Uiso   1.00
C125   C     0.00680   0.28261   0.58193   0.00000  Uiso   1.00
C126   C     0.07002   0.17999   0.24999   0.00000  Uiso   1.00
C127   C     0.32001   0.07002   0.75000   0.00000  Uiso   1.00
C128   C     0.17999   0.42998   0.25000   0.00000  Uiso   1.00
C129   C     0.07002   0.17999   0.75000   0.00000  Uiso   1.00
C130   C     0.42999   0.32002   0.25001   0.00000  Uiso   1.00
C131   C     0.13830   0.38879   0.21435   0.00000  Uiso   1.00
C132   C     0.38507   0.08783   0.75073   0.00000  Uiso   1.00
C133   C     0.08783   0.11493   0.24921   0.00000  Uiso   1.00
C134   C     0.41205   0.38504   0.74954   0.00000  Uiso   1.00
C135   C     0.38508   0.08784   0.24904   0.00000  Uiso   1.00
C136   C     0.28251   0.49310   0.41808   0.00000  Uiso   1.00
C137   C     0.11442   0.41212   0.74864   0.00000  Uiso   1.00
C138   C     0.41215   0.38509   0.24921   0.00000  Uiso   1.00
C139   C     0.11121   0.13830   0.78564   0.00000  Uiso   1.00
C140   C     0.13828   0.11122   0.78565   0.00000  Uiso   1.00
C141   C     0.38507   0.41217   0.24920   0.00000  Uiso   1.00
C142   C     0.08767   0.38496   0.74866   0.00000  Uiso   1.00
C143   C     0.41216   0.11492   0.24905   0.00000  Uiso   1.00
C144   C     0.38486   0.41203   0.74950   0.00000  Uiso   1.00
C145   C     0.11491   0.08785   0.24922   0.00000  Uiso   1.00
C146   C     0.41215   0.11491   0.75074   0.00000  Uiso   1.00
C147   C     0.21736   0.49343   0.58195   0.00000  Uiso   1.00
C148   C     0.11122   0.36171   0.21435   0.00000  Uiso   1.00
C149   C     0.36493   0.16217   0.74927   0.00000  Uiso   1.00
C150   C     0.11170   0.36121   0.28564   0.00000  Uiso   1.00
C151   C     0.33787   0.36441   0.75097   0.00000  Uiso   1.00
C152   C     0.16217   0.13507   0.25079   0.00000  Uiso   1.00
C153   C     0.13503   0.33797   0.75083   0.00000  Uiso   1.00
C154   C     0.36492   0.16216   0.25096   0.00000  Uiso   1.00
C155   C     0.13878   0.11169   0.71435   0.00000  Uiso   1.00
C156   C     0.33785   0.36491   0.25079   0.00000  Uiso   1.00
C157   C     0.36493   0.33783   0.25080   0.00000  Uiso   1.00
C158   C     0.25641   0.03259   0.91808   0.00000  Uiso   1.00
C159   C     0.11171   0.13878   0.71435   0.00000  Uiso   1.00
C160   C     0.33784   0.13508   0.25095   0.00000  Uiso   1.00
C161   C     0.16202   0.36517   0.75087   0.00000  Uiso   1.00
C162   C     0.13509   0.16215   0.25078   0.00000  Uiso   1.00
C163   C     0.36503   0.33766   0.75097   0.00000  Uiso   1.00
C164   C     0.13878   0.38829   0.28565   0.00000  Uiso   1.00
C165   C     0.33785   0.13509   0.74926   0.00000  Uiso   1.00
C166   C     0.00181   0.21635   0.45881   0.00000  Uiso   1.00
C167   C     0.00166   0.28366   0.54120   0.00000  Uiso   1.00
C168   C     0.28358   0.49834   0.45880   0.00000  Uiso   1.00
H169   H     0.16442   0.38074   0.16285   0.00000  Uiso   1.00
H170   H     0.41045   0.04439   0.27396   0.00000  Uiso   1.00
H171   H     0.11003   0.46298   0.77178   0.00000  Uiso   1.00
H172   H     0.11665   0.46193   0.72264   0.00000  Uiso   1.00
H173   H     0.45548   0.41041   0.27436   0.00000  Uiso   1.00
H174   H     0.45583   0.41046   0.22485   0.00000  Uiso   1.00
H175   H     0.11926   0.16442   0.83713   0.00000  Uiso   1.00
H176   H     0.08631   0.13176   0.83803   0.00000  Uiso   1.00
H177   H     0.16439   0.11927   0.83713   0.00000  Uiso   1.00
H178   H     0.13171   0.08633   0.83803   0.00000  Uiso   1.00
H179   H     0.41035   0.45555   0.27436   0.00000  Uiso   1.00
H180   H     0.13175   0.41370   0.16198   0.00000  Uiso   1.00
H181   H     0.41042   0.45589   0.22484   0.00000  Uiso   1.00
H182   H     0.04556   0.40964   0.72091   0.00000  Uiso   1.00
H183   H     0.04346   0.41135   0.77018   0.00000  Uiso   1.00
H184   H     0.45581   0.08964   0.22446   0.00000  Uiso   1.00
H185   H     0.45559   0.08954   0.27397   0.00000  Uiso   1.00
H186   H     0.41064   0.45643   0.77181   0.00000  Uiso   1.00
H187   H     0.40937   0.45479   0.72235   0.00000  Uiso   1.00
H188   H     0.08958   0.04452   0.27440   0.00000  Uiso   1.00
H189   H     0.08955   0.04416   0.22488   0.00000  Uiso   1.00
H190   H     0.45547   0.08962   0.72550   0.00000  Uiso   1.00
H191   H     0.41033   0.04448   0.72547   0.00000  Uiso   1.00
H192   H     0.45584   0.08951   0.77501   0.00000  Uiso   1.00
H193   H     0.11927   0.33561   0.16285   0.00000  Uiso   1.00
H194   H     0.08633   0.36829   0.16198   0.00000  Uiso   1.00
H195   H     0.33958   0.20592   0.72502   0.00000  Uiso   1.00
H196   H     0.33967   0.20551   0.77453   0.00000  Uiso   1.00
H197   H     0.11825   0.33630   0.33802   0.00000  Uiso   1.00
H198   H     0.08558   0.36926   0.33715   0.00000  Uiso   1.00
H199   H     0.28719   0.36008   0.72732   0.00000  Uiso   1.00
H200   H     0.28781   0.36645   0.77652   0.00000  Uiso   1.00
H201   H     0.20588   0.16042   0.27512   0.00000  Uiso   1.00
H202   H     0.41042   0.04408   0.77499   0.00000  Uiso   1.00
H203   H     0.20555   0.16035   0.22561   0.00000  Uiso   1.00
H204   H     0.16126   0.29365   0.72899   0.00000  Uiso   1.00
H205   H     0.15959   0.29552   0.77842   0.00000  Uiso   1.00
H206   H     0.33955   0.20561   0.22604   0.00000  Uiso   1.00
H207   H     0.33963   0.20580   0.27555   0.00000  Uiso   1.00
H208   H     0.16368   0.11823   0.66197   0.00000  Uiso   1.00
H209   H     0.13073   0.08556   0.66287   0.00000  Uiso   1.00
H210   H     0.29417   0.33954   0.27515   0.00000  Uiso   1.00
H211   H     0.29452   0.33959   0.22564   0.00000  Uiso   1.00
H212   H     0.33958   0.29411   0.27516   0.00000  Uiso   1.00
H213   H     0.04445   0.08965   0.27440   0.00000  Uiso   1.00
H214   H     0.33965   0.29445   0.22564   0.00000  Uiso   1.00
H215   H     0.11828   0.16366   0.66197   0.00000  Uiso   1.00
H216   H     0.08560   0.13071   0.66287   0.00000  Uiso   1.00
H217   H     0.29440   0.16047   0.22603   0.00000  Uiso   1.00
H218   H     0.29420   0.16036   0.27554   0.00000  Uiso   1.00
H219   H     0.20660   0.33924   0.72912   0.00000  Uiso   1.00
H220   H     0.20460   0.34089   0.77856   0.00000  Uiso   1.00
H221   H     0.16045   0.20584   0.27512   0.00000  Uiso   1.00
H222   H     0.16041   0.20548   0.22560   0.00000  Uiso   1.00
H223   H     0.34012   0.29536   0.77819   0.00000  Uiso   1.00
H224   H     0.04412   0.08958   0.22488   0.00000  Uiso   1.00
H225   H     0.33880   0.29361   0.72889   0.00000  Uiso   1.00
H226   H     0.16367   0.38171   0.33802   0.00000  Uiso   1.00
H227   H     0.13073   0.41439   0.33715   0.00000  Uiso   1.00
H228   H     0.29416   0.16049   0.72499   0.00000  Uiso   1.00
H229   H     0.29453   0.16038   0.77450   0.00000  Uiso   1.00
H230   H     0.45624   0.41109   0.77194   0.00000  Uiso   1.00
H231   H     0.45473   0.40978   0.72248   0.00000  Uiso   1.00
H232   H     0.41037   0.04420   0.22445   0.00000  Uiso   1.00
N233   N     0.15296   0.40242   0.17838   0.00000  Uiso   1.00
N234   N     0.39477   0.45015   0.24954   0.00000  Uiso   1.00
N235   N     0.04976   0.39465   0.74642   0.00000  Uiso   1.00
N236   N     0.45014   0.10520   0.24923   0.00000  Uiso   1.00
N237   N     0.39441   0.45002   0.74775   0.00000  Uiso   1.00
N238   N     0.10519   0.04987   0.24957   0.00000  Uiso   1.00
N239   N     0.45013   0.10519   0.75034   0.00000  Uiso   1.00
N240   N     0.09759   0.34708   0.17838   0.00000  Uiso   1.00
N241   N     0.35523   0.20015   0.74968   0.00000  Uiso   1.00
N242   N     0.09704   0.34758   0.32162   0.00000  Uiso   1.00
N243   N     0.30040   0.35308   0.75321   0.00000  Uiso   1.00
N244   N     0.39477   0.04985   0.75032   0.00000  Uiso   1.00
N245   N     0.20015   0.14477   0.25043   0.00000  Uiso   1.00
N246   N     0.14479   0.30005   0.75287   0.00000  Uiso   1.00
N247   N     0.35521   0.20015   0.25078   0.00000  Uiso   1.00
N248   N     0.15241   0.09703   0.67838   0.00000  Uiso   1.00
N249   N     0.29987   0.35519   0.25045   0.00000  Uiso   1.00
N250   N     0.35523   0.29985   0.25046   0.00000  Uiso   1.00
N251   N     0.09707   0.15240   0.67838   0.00000  Uiso   1.00
N252   N     0.29986   0.14480   0.25077   0.00000  Uiso   1.00
N253   N     0.20000   0.35565   0.75299   0.00000  Uiso   1.00
N254   N     0.14481   0.20013   0.25042   0.00000  Uiso   1.00
N255   N     0.04985   0.10523   0.24957   0.00000  Uiso   1.00
N256   N     0.35530   0.29974   0.75284   0.00000  Uiso   1.00
N257   N     0.15241   0.40293   0.32162   0.00000  Uiso   1.00
N258   N     0.29988   0.14481   0.74966   0.00000  Uiso   1.00
N259   N     0.44999   0.39481   0.74787   0.00000  Uiso   1.00
N260   N     0.39479   0.04986   0.24922   0.00000  Uiso   1.00
N261   N     0.10313   0.44956   0.74598   0.00000  Uiso   1.00
N262   N     0.45012   0.39481   0.24955   0.00000  Uiso   1.00
N263   N     0.09758   0.15296   0.82161   0.00000  Uiso   1.00
N264   N     0.15292   0.09759   0.82162   0.00000  Uiso   1.00
O265   O     0.25000   0.00000   0.25000   0.00000  Uiso   1.00
O266   O     0.25000   0.46964   0.66245   0.00000  Uiso   1.00
O267   O     0.46963   0.25000   0.33755   0.00000  Uiso   1.00
O268   O     0.03036   0.25000   0.66245   0.00000  Uiso   1.00
O269   O     0.00000   0.21964   0.83755   0.00000  Uiso   1.00
O270   O     0.00000   0.28037   0.16245   0.00000  Uiso   1.00
O271   O     0.28036   0.00000   0.83755   0.00000  Uiso   1.00
O272   O     0.21963   0.00000   0.16245   0.00000  Uiso   1.00
O273   O     0.00000   0.28037   0.83755   0.00000  Uiso   1.00
O274   O     0.00000   0.21964   0.16245   0.00000  Uiso   1.00
O275   O     0.21963   0.00000   0.83755   0.00000  Uiso   1.00
O276   O     0.25000   0.00000   0.75000   0.00000  Uiso   1.00
O277   O     0.28036   0.00000   0.16245   0.00000  Uiso   1.00
O278   O     0.20724   0.07308   0.27302   0.00000  Uiso   1.00
O279   O     0.29275   0.42693   0.72698   0.00000  Uiso   1.00
O280   O     0.42692   0.20725   0.27302   0.00000  Uiso   1.00
O281   O     0.07307   0.29276   0.72698   0.00000  Uiso   1.00
O282   O     0.29275   0.42693   0.27302   0.00000  Uiso   1.00
O283   O     0.20724   0.07308   0.72698   0.00000  Uiso   1.00
O284   O     0.07307   0.29276   0.27302   0.00000  Uiso   1.00
O285   O     0.42692   0.20725   0.72698   0.00000  Uiso   1.00
O286   O     0.20724   0.42693   0.72698   0.00000  Uiso   1.00
O287   O     0.00000   0.25000   0.25000   0.00000  Uiso   1.00
O288   O     0.29275   0.07308   0.27302   0.00000  Uiso   1.00
O289   O     0.42692   0.29276   0.72698   0.00000  Uiso   1.00
O290   O     0.07307   0.20725   0.27302   0.00000  Uiso   1.00
O291   O     0.29275   0.07308   0.72698   0.00000  Uiso   1.00
O292   O     0.20724   0.42693   0.27302   0.00000  Uiso   1.00
O293   O     0.07307   0.20725   0.72698   0.00000  Uiso   1.00
O294   O     0.42692   0.29276   0.27302   0.00000  Uiso   1.00
O295   O     0.45724   0.32308   0.77302   0.00000  Uiso   1.00
O296   O     0.04275   0.17693   0.22698   0.00000  Uiso   1.00
O297   O     0.17692   0.45725   0.77302   0.00000  Uiso   1.00
O298   O     0.00000   0.25000   0.75000   0.00000  Uiso   1.00
O299   O     0.32307   0.04276   0.22698   0.00000  Uiso   1.00
O300   O     0.04275   0.17693   0.77302   0.00000  Uiso   1.00
O301   O     0.45724   0.32308   0.22698   0.00000  Uiso   1.00
O302   O     0.32307   0.04276   0.77302   0.00000  Uiso   1.00
O303   O     0.17692   0.45725   0.22698   0.00000  Uiso   1.00
O304   O     0.45724   0.17693   0.22698   0.00000  Uiso   1.00
O305   O     0.04275   0.32308   0.77302   0.00000  Uiso   1.00
O306   O     0.17692   0.04276   0.22698   0.00000  Uiso   1.00
O307   O     0.32307   0.45725   0.77302   0.00000  Uiso   1.00
O308   O     0.04275   0.32308   0.22698   0.00000  Uiso   1.00
O309   O     0.25000   0.46964   0.33755   0.00000  Uiso   1.00
O310   O     0.45724   0.17693   0.77302   0.00000  Uiso   1.00
O311   O     0.32307   0.45725   0.22698   0.00000  Uiso   1.00
O312   O     0.17692   0.04276   0.77302   0.00000  Uiso   1.00
O313   O     0.25000   0.03037   0.66245   0.00000  Uiso   1.00
O314   O     0.03036   0.25000   0.33755   0.00000  Uiso   1.00
O315   O     0.46963   0.25000   0.66245   0.00000  Uiso   1.00
O316   O     0.25000   0.03037   0.33755   0.00000  Uiso   1.00
Zn317  Zn    0.20659   0.00000   0.21735   0.00000  Uiso   1.00
Zn318  Zn    0.04340   0.25000   0.28265   0.00000  Uiso   1.00
Zn319  Zn    0.25000   0.45660   0.71735   0.00000  Uiso   1.00
Zn320  Zn    0.25000   0.04341   0.28265   0.00000  Uiso   1.00
Zn321  Zn    0.04340   0.25000   0.71735   0.00000  Uiso   1.00
Zn322  Zn    0.45659   0.25000   0.28265   0.00000  Uiso   1.00
Zn323  Zn    0.25000   0.04341   0.71735   0.00000  Uiso   1.00
Zn324  Zn    0.25000   0.45660   0.28265   0.00000  Uiso   1.00
Zn325  Zn    0.29340   0.00000   0.78265   0.00000  Uiso   1.00
Zn326  Zn    0.00000   0.20660   0.21735   0.00000  Uiso   1.00
Zn327  Zn    0.00000   0.29341   0.78265   0.00000  Uiso   1.00
Zn328  Zn    0.29340   0.00000   0.21735   0.00000  Uiso   1.00
Zn329  Zn    0.20659   0.00000   0.78265   0.00000  Uiso   1.00
Zn330  Zn    0.00000   0.29341   0.21735   0.00000  Uiso   1.00
Zn331  Zn    0.00000   0.20660   0.78265   0.00000  Uiso   1.00
Zn332  Zn    0.45659   0.25000   0.71735   0.00000  Uiso   1.00
Br333  Br    0.98392   0.13794   0.45579   0.00000  Uiso   1.00
Br334  Br    0.76577   0.11210   0.04420   0.00000  Uiso   1.00
Br335  Br    0.61188   0.23265   0.95566   0.00000  Uiso   1.00
Br336  Br    0.88805   0.23369   0.04438   0.00000  Uiso   1.00
Br337  Br    0.73209   0.11172   0.95559   0.00000  Uiso   1.00
Br338  Br    0.73326   0.38810   0.04442   0.00000  Uiso   1.00
Br339  Br    0.88818   0.26718   0.95569   0.00000  Uiso   1.00
Br340  Br    0.61201   0.26647   0.04425   0.00000  Uiso   1.00
Br341  Br    0.97099   0.32224   0.38929   0.00000  Uiso   1.00
Br342  Br    0.97139   0.17761   0.61075   0.00000  Uiso   1.00
Br343  Br    0.67773   0.02907   0.38921   0.00000  Uiso   1.00
Br344  Br    0.98341   0.36198   0.54423   0.00000  Uiso   1.00
Br345  Br    0.82232   0.02883   0.61074   0.00000  Uiso   1.00
Br346  Br    0.52926   0.17779   0.38914   0.00000  Uiso   1.00
Br347  Br    0.52894   0.32234   0.61085   0.00000  Uiso   1.00
Br348  Br    0.82213   0.47066   0.38923   0.00000  Uiso   1.00
Br349  Br    0.67753   0.47145   0.61089   0.00000  Uiso   1.00
Br350  Br    0.77840   0.07247   0.88924   0.00000  Uiso   1.00
Br351  Br    0.77920   0.42783   0.11070   0.00000  Uiso   1.00
Br352  Br    0.92766   0.22120   0.88926   0.00000  Uiso   1.00
Br353  Br    0.57225   0.22088   0.11079   0.00000  Uiso   1.00
Br354  Br    0.72129   0.42757   0.88913   0.00000  Uiso   1.00
Br355  Br    0.86194   0.01636   0.45563   0.00000  Uiso   1.00
Br356  Br    0.72054   0.07213   0.11085   0.00000  Uiso   1.00
Br357  Br    0.57247   0.27853   0.88913   0.00000  Uiso   1.00
Br358  Br    0.92789   0.27938   0.11077   0.00000  Uiso   1.00
Br359  Br    0.63811   0.01727   0.54433   0.00000  Uiso   1.00
Br360  Br    0.51704   0.36185   0.45558   0.00000  Uiso   1.00
Br361  Br    0.51760   0.13822   0.54441   0.00000  Uiso   1.00
Br362  Br    0.63800   0.48346   0.45575   0.00000  Uiso   1.00
Br363  Br    0.86182   0.48286   0.54431   0.00000  Uiso   1.00
Br364  Br    0.76690   0.38807   0.95577   0.00000  Uiso   1.00
C365   C     0.99330   0.28253   0.41810   0.00000  Uiso   1.00
C366   C     0.75679   0.46748   0.08190   0.00000  Uiso   1.00
C367   C     0.71631   0.49864   0.54122   0.00000  Uiso   1.00
C368   C     0.99863   0.28361   0.45880   0.00000  Uiso   1.00
C369   C     0.99882   0.21638   0.54121   0.00000  Uiso   1.00
C370   C     0.71633   0.00158   0.45882   0.00000  Uiso   1.00
C371   C     0.78359   0.00141   0.54119   0.00000  Uiso   1.00
C372   C     0.74844   0.46634   0.95880   0.00000  Uiso   1.00
C373   C     0.74810   0.03364   0.04118   0.00000  Uiso   1.00
C374   C     0.53368   0.25134   0.95878   0.00000  Uiso   1.00
C375   C     0.96641   0.25167   0.04120   0.00000  Uiso   1.00
C376   C     0.75108   0.03362   0.95878   0.00000  Uiso   1.00
C377   C     0.96744   0.24336   0.91809   0.00000  Uiso   1.00
C378   C     0.75146   0.46639   0.04120   0.00000  Uiso   1.00
C379   C     0.96640   0.24860   0.95881   0.00000  Uiso   1.00
C380   C     0.53367   0.24839   0.04118   0.00000  Uiso   1.00
C381   C     0.59809   0.34810   0.25000   0.00000  Uiso   1.00
C382   C     0.90191   0.15190   0.75001   0.00000  Uiso   1.00
C383   C     0.65190   0.09809   0.25001   0.00000  Uiso   1.00
C384   C     0.84787   0.40165   0.75014   0.00000  Uiso   1.00
C385   C     0.90190   0.15190   0.25001   0.00000  Uiso   1.00
C386   C     0.59803   0.34808   0.74987   0.00000  Uiso   1.00
C387   C     0.84809   0.40190   0.24999   0.00000  Uiso   1.00
C388   C     0.53258   0.24318   0.08191   0.00000  Uiso   1.00
C389   C     0.65190   0.09809   0.75000   0.00000  Uiso   1.00
C390   C     0.59810   0.15191   0.75000   0.00000  Uiso   1.00
C391   C     0.90191   0.34810   0.25001   0.00000  Uiso   1.00
C392   C     0.65165   0.40213   0.74985   0.00000  Uiso   1.00
C393   C     0.84810   0.09810   0.24999   0.00000  Uiso   1.00
C394   C     0.90192   0.34803   0.75014   0.00000  Uiso   1.00
C395   C     0.59810   0.15191   0.24999   0.00000  Uiso   1.00
C396   C     0.84809   0.09810   0.74999   0.00000  Uiso   1.00
C397   C     0.65191   0.40190   0.25000   0.00000  Uiso   1.00
C398   C     0.50023   0.24999   0.47942   0.00000  Uiso   1.00
C399   C     0.74330   0.46737   0.91806   0.00000  Uiso   1.00
C400   C     0.50024   0.25001   0.52058   0.00000  Uiso   1.00
C401   C     0.74995   0.49998   0.47942   0.00000  Uiso   1.00
C402   C     0.74995   0.00000   0.52059   0.00000  Uiso   1.00
C403   C     0.74976   0.49999   0.97941   0.00000  Uiso   1.00
C404   C     0.74977   0.00001   0.02057   0.00000  Uiso   1.00
C405   C     0.50004   0.24999   0.97941   0.00000  Uiso   1.00
C406   C     0.50004   0.25001   0.02057   0.00000  Uiso   1.00
C407   C     0.74298   0.03256   0.08192   0.00000  Uiso   1.00
C408   C     0.53264   0.25655   0.91805   0.00000  Uiso   1.00
C409   C     0.96749   0.25691   0.08192   0.00000  Uiso   1.00
C410   C     0.50002   0.24997   0.39808   0.00000  Uiso   1.00
C411   C     0.50006   0.25003   0.60193   0.00000  Uiso   1.00
C412   C     0.74997   0.49998   0.39808   0.00000  Uiso   1.00
C413   C     0.99350   0.21743   0.58192   0.00000  Uiso   1.00
C414   C     0.74997   0.00002   0.60193   0.00000  Uiso   1.00
C415   C     0.74994   0.49997   0.89807   0.00000  Uiso   1.00
C416   C     0.74997   0.00003   0.10192   0.00000  Uiso   1.00
C417   C     0.50003   0.24998   0.89807   0.00000  Uiso   1.00
C418   C     0.50003   0.25002   0.10192   0.00000  Uiso   1.00
C419   C     0.99949   0.18318   0.47972   0.00000  Uiso   1.00
C420   C     0.99917   0.31682   0.52029   0.00000  Uiso   1.00
C421   C     0.81676   0.00074   0.47966   0.00000  Uiso   1.00
C422   C     0.68316   0.00124   0.52035   0.00000  Uiso   1.00
C423   C     0.50117   0.31679   0.47965   0.00000  Uiso   1.00
C424   C     0.71741   0.00680   0.41809   0.00000  Uiso   1.00
C425   C     0.50150   0.18321   0.52036   0.00000  Uiso   1.00
C426   C     0.68315   0.49920   0.47971   0.00000  Uiso   1.00
C427   C     0.81675   0.49878   0.52030   0.00000  Uiso   1.00
C428   C     0.75101   0.43318   0.97971   0.00000  Uiso   1.00
C429   C     0.75033   0.06682   0.02028   0.00000  Uiso   1.00
C430   C     0.56684   0.24871   0.97965   0.00000  Uiso   1.00
C431   C     0.93323   0.24928   0.02034   0.00000  Uiso   1.00
C432   C     0.74831   0.06678   0.97964   0.00000  Uiso   1.00
C433   C     0.74902   0.43321   0.02035   0.00000  Uiso   1.00
C434   C     0.93324   0.25124   0.97970   0.00000  Uiso   1.00
C435   C     0.78255   0.00666   0.58191   0.00000  Uiso   1.00
C436   C     0.56684   0.25076   0.02029   0.00000  Uiso   1.00
C437   C     0.74999  -0.00000   0.35578   0.00000  Uiso   1.00
C438   C     0.74999   0.00000   0.64423   0.00000  Uiso   1.00
C439   C     0.50000   0.24999   0.35578   0.00000  Uiso   1.00
C440   C     0.50001   0.25001   0.64423   0.00000  Uiso   1.00
C441   C     0.50001   0.25000   0.85577   0.00000  Uiso   1.00
C442   C     0.50001   0.25000   0.14422   0.00000  Uiso   1.00
C443   C     0.74999   0.49999   0.85577   0.00000  Uiso   1.00
C444   C     0.75000   0.00001   0.14422   0.00000  Uiso   1.00
C445   C     0.67998   0.07001   0.25001   0.00000  Uiso   1.00
C446   C     0.50693   0.21742   0.41807   0.00000  Uiso   1.00
C447   C     0.81988   0.42984   0.75014   0.00000  Uiso   1.00
C448   C     0.92998   0.17998   0.25000   0.00000  Uiso   1.00
C449   C     0.57002   0.31998   0.75001   0.00000  Uiso   1.00
C450   C     0.82001   0.42998   0.24999   0.00000  Uiso   1.00
C451   C     0.67998   0.07001   0.75000   0.00000  Uiso   1.00
C452   C     0.57001   0.32002   0.25000   0.00000  Uiso   1.00
C453   C     0.92999   0.17998   0.75000   0.00000  Uiso   1.00
C454   C     0.67983   0.43012   0.74985   0.00000  Uiso   1.00
C455   C     0.82002   0.07002   0.25000   0.00000  Uiso   1.00
C456   C     0.93002   0.32002   0.75000   0.00000  Uiso   1.00
C457   C     0.50680   0.28261   0.58193   0.00000  Uiso   1.00
C458   C     0.57002   0.17999   0.24999   0.00000  Uiso   1.00
C459   C     0.82001   0.07002   0.75000   0.00000  Uiso   1.00
C460   C     0.67999   0.42998   0.25000   0.00000  Uiso   1.00
C461   C     0.57002   0.17999   0.75000   0.00000  Uiso   1.00
C462   C     0.92999   0.32002   0.25001   0.00000  Uiso   1.00
C463   C     0.63830   0.38879   0.21435   0.00000  Uiso   1.00
C464   C     0.88507   0.08783   0.75073   0.00000  Uiso   1.00
C465   C     0.58783   0.11493   0.24921   0.00000  Uiso   1.00
C466   C     0.91205   0.38504   0.74954   0.00000  Uiso   1.00
C467   C     0.88508   0.08784   0.24904   0.00000  Uiso   1.00
C468   C     0.78251   0.49310   0.41808   0.00000  Uiso   1.00
C469   C     0.61442   0.41212   0.74864   0.00000  Uiso   1.00
C470   C     0.91215   0.38509   0.24921   0.00000  Uiso   1.00
C471   C     0.61121   0.13830   0.78564   0.00000  Uiso   1.00
C472   C     0.63828   0.11122   0.78565   0.00000  Uiso   1.00
C473   C     0.88507   0.41217   0.24920   0.00000  Uiso   1.00
C474   C     0.58767   0.38496   0.74866   0.00000  Uiso   1.00
C475   C     0.91216   0.11492   0.24905   0.00000  Uiso   1.00
C476   C     0.88486   0.41203   0.74950   0.00000  Uiso   1.00
C477   C     0.61491   0.08785   0.24922   0.00000  Uiso   1.00
C478   C     0.91215   0.11491   0.75074   0.00000  Uiso   1.00
C479   C     0.71736   0.49343   0.58195   0.00000  Uiso   1.00
C480   C     0.61122   0.36171   0.21435   0.00000  Uiso   1.00
C481   C     0.86493   0.16217   0.74927   0.00000  Uiso   1.00
C482   C     0.61170   0.36121   0.28564   0.00000  Uiso   1.00
C483   C     0.83787   0.36441   0.75097   0.00000  Uiso   1.00
C484   C     0.66217   0.13507   0.25079   0.00000  Uiso   1.00
C485   C     0.63503   0.33797   0.75083   0.00000  Uiso   1.00
C486   C     0.86492   0.16216   0.25096   0.00000  Uiso   1.00
C487   C     0.63878   0.11169   0.71435   0.00000  Uiso   1.00
C488   C     0.83785   0.36491   0.25079   0.00000  Uiso   1.00
C489   C     0.86493   0.33783   0.25080   0.00000  Uiso   1.00
C490   C     0.75641   0.03259   0.91808   0.00000  Uiso   1.00
C491   C     0.61171   0.13878   0.71435   0.00000  Uiso   1.00
C492   C     0.83784   0.13508   0.25095   0.00000  Uiso   1.00
C493   C     0.66202   0.36517   0.75087   0.00000  Uiso   1.00
C494   C     0.63509   0.16215   0.25078   0.00000  Uiso   1.00
C495   C     0.86503   0.33766   0.75097   0.00000  Uiso   1.00
C496   C     0.63878   0.38829   0.28565   0.00000  Uiso   1.00
C497   C     0.83785   0.13509   0.74926   0.00000  Uiso   1.00
C498   C     0.50181   0.21635   0.45881   0.00000  Uiso   1.00
C499   C     0.50166   0.28366   0.54120   0.00000  Uiso   1.00
C500   C     0.78358   0.49834   0.45880   0.00000  Uiso   1.00
H501   H     0.66442   0.38074   0.16285   0.00000  Uiso   1.00
H502   H     0.91045   0.04439   0.27396   0.00000  Uiso   1.00
H503   H     0.61003   0.46298   0.77178   0.00000  Uiso   1.00
H504   H     0.61665   0.46193   0.72264   0.00000  Uiso   1.00
H505   H     0.95548   0.41041   0.27436   0.00000  Uiso   1.00
H506   H     0.95583   0.41046   0.22485   0.00000  Uiso   1.00
H507   H     0.61926   0.16442   0.83713   0.00000  Uiso   1.00
H508   H     0.58631   0.13176   0.83803   0.00000  Uiso   1.00
H509   H     0.66439   0.11927   0.83713   0.00000  Uiso   1.00
H510   H     0.63171   0.08633   0.83803   0.00000  Uiso   1.00
H511   H     0.91035   0.45555   0.27436   0.00000  Uiso   1.00
H512   H     0.63175   0.41370   0.16198   0.00000  Uiso   1.00
H513   H     0.91042   0.45589   0.22484   0.00000  Uiso   1.00
H514   H     0.54556   0.40964   0.72091   0.00000  Uiso   1.00
H515   H     0.54346   0.41135   0.77018   0.00000  Uiso   1.00
H516   H     0.95581   0.08964   0.22446   0.00000  Uiso   1.00
H517   H     0.95559   0.08954   0.27397   0.00000  Uiso   1.00
H518   H     0.91064   0.45643   0.77181   0.00000  Uiso   1.00
H519   H     0.90937   0.45479   0.72235   0.00000  Uiso   1.00
H520   H     0.58958   0.04452   0.27440   0.00000  Uiso   1.00
H521   H     0.58955   0.04416   0.22488   0.00000  Uiso   1.00
H522   H     0.95547   0.08962   0.72550   0.00000  Uiso   1.00
H523   H     0.91033   0.04448   0.72547   0.00000  Uiso   1.00
H524   H     0.95584   0.08951   0.77501   0.00000  Uiso   1.00
H525   H     0.61927   0.33561   0.16285   0.00000  Uiso   1.00
H526   H     0.58633   0.36829   0.16198   0.00000  Uiso   1.00
H527   H     0.83958   0.20592   0.72502   0.00000  Uiso   1.00
H528   H     0.83967   0.20551   0.77453   0.00000  Uiso   1.00
H529   H     0.61825   0.33630   0.33802   0.00000  Uiso   1.00
H530   H     0.58558   0.36926   0.33715   0.00000  Uiso   1.00
H531   H     0.78719   0.36008   0.72732   0.00000  Uiso   1.00
H532   H     0.78781   0.36645   0.77652   0.00000  Uiso   1.00
H533   H     0.70588   0.16042   0.27512   0.00000  Uiso   1.00
H534   H     0.91042   0.04408   0.77499   0.00000  Uiso   1.00
H535   H     0.70555   0.16035   0.22561   0.00000  Uiso   1.00
H536   H     0.66126   0.29365   0.72899   0.00000  Uiso   1.00
H537   H     0.65959   0.29552   0.77842   0.00000  Uiso   1.00
H538   H     0.83955   0.20561   0.22604   0.00000  Uiso   1.00
H539   H     0.83963   0.20580   0.27555   0.00000  Uiso   1.00
H540   H     0.66368   0.11823   0.66197   0.00000  Uiso   1.00
H541   H     0.63073   0.08556   0.66287   0.00000  Uiso   1.00
H542   H     0.79417   0.33954   0.27515   0.00000  Uiso   1.00
H543   H     0.79452   0.33959   0.22564   0.00000  Uiso   1.00
H544   H     0.83958   0.29411   0.27516   0.00000  Uiso   1.00
H545   H     0.54445   0.08965   0.27440   0.00000  Uiso   1.00
H546   H     0.83965   0.29445   0.22564   0.00000  Uiso   1.00
H547   H     0.61828   0.16366   0.66197   0.00000  Uiso   1.00
H548   H     0.58560   0.13071   0.66287   0.00000  Uiso   1.00
H549   H     0.79440   0.16047   0.22603   0.00000  Uiso   1.00
H550   H     0.79420   0.16036   0.27554   0.00000  Uiso   1.00
H551   H     0.70660   0.33924   0.72912   0.00000  Uiso   1.00
H552   H     0.70460   0.34089   0.77856   0.00000  Uiso   1.00
H553   H     0.66045   0.20584   0.27512   0.00000  Uiso   1.00
H554   H     0.66041   0.20548   0.22560   0.00000  Uiso   1.00
H555   H     0.84012   0.29536   0.77819   0.00000  Uiso   1.00
H556   H     0.54412   0.08958   0.22488   0.00000  Uiso   1.00
H557   H     0.83880   0.29361   0.72889   0.00000  Uiso   1.00
H558   H     0.66367   0.38171   0.33802   0.00000  Uiso   1.00
H559   H     0.63073   0.41439   0.33715   0.00000  Uiso   1.00
H560   H     0.79416   0.16049   0.72499   0.00000  Uiso   1.00
H561   H     0.79453   0.16038   0.77450   0.00000  Uiso   1.00
H562   H     0.95624   0.41109   0.77194   0.00000  Uiso   1.00
H563   H     0.95473   0.40978   0.72248   0.00000  Uiso   1.00
H564   H     0.91037   0.04420   0.22445   0.00000  Uiso   1.00
N565   N     0.65296   0.40242   0.17838   0.00000  Uiso   1.00
N566   N     0.89477   0.45015   0.24954   0.00000  Uiso   1.00
N567   N     0.54976   0.39465   0.74642   0.00000  Uiso   1.00
N568   N     0.95014   0.10520   0.24923   0.00000  Uiso   1.00
N569   N     0.89441   0.45002   0.74775   0.00000  Uiso   1.00
N570   N     0.60519   0.04987   0.24957   0.00000  Uiso   1.00
N571   N     0.95013   0.10519   0.75034   0.00000  Uiso   1.00
N572   N     0.59759   0.34708   0.17838   0.00000  Uiso   1.00
N573   N     0.85523   0.20015   0.74968   0.00000  Uiso   1.00
N574   N     0.59704   0.34758   0.32162   0.00000  Uiso   1.00
N575   N     0.80040   0.35308   0.75321   0.00000  Uiso   1.00
N576   N     0.89477   0.04985   0.75032   0.00000  Uiso   1.00
N577   N     0.70015   0.14477   0.25043   0.00000  Uiso   1.00
N578   N     0.64479   0.30005   0.75287   0.00000  Uiso   1.00
N579   N     0.85521   0.20015   0.25078   0.00000  Uiso   1.00
N580   N     0.65241   0.09703   0.67838   0.00000  Uiso   1.00
N581   N     0.79987   0.35519   0.25045   0.00000  Uiso   1.00
N582   N     0.85523   0.29985   0.25046   0.00000  Uiso   1.00
N583   N     0.59707   0.15240   0.67838   0.00000  Uiso   1.00
N584   N     0.79986   0.14480   0.25077   0.00000  Uiso   1.00
N585   N     0.70000   0.35565   0.75299   0.00000  Uiso   1.00
N586   N     0.64481   0.20013   0.25042   0.00000  Uiso   1.00
N587   N     0.54985   0.10523   0.24957   0.00000  Uiso   1.00
N588   N     0.85530   0.29974   0.75284   0.00000  Uiso   1.00
N589   N     0.65241   0.40293   0.32162   0.00000  Uiso   1.00
N590   N     0.79988   0.14481   0.74966   0.00000  Uiso   1.00
N591   N     0.94999   0.39481   0.74787   0.00000  Uiso   1.00
N592   N     0.89479   0.04986   0.24922   0.00000  Uiso   1.00
N593   N     0.60313   0.44956   0.74598   0.00000  Uiso   1.00
N594   N     0.95012   0.39481   0.24955   0.00000  Uiso   1.00
N595   N     0.59758   0.15296   0.82161   0.00000  Uiso   1.00
N596   N     0.65292   0.09759   0.82162   0.00000  Uiso   1.00
O597   O     0.75000   0.00000   0.25000   0.00000  Uiso   1.00
O598   O     0.75000   0.46964   0.66245   0.00000  Uiso   1.00
O599   O     0.96963   0.25000   0.33755   0.00000  Uiso   1.00
O600   O     0.53036   0.25000   0.66245   0.00000  Uiso   1.00
O601   O     0.50000   0.21964   0.83755   0.00000  Uiso   1.00
O602   O     0.50000   0.28037   0.16245   0.00000  Uiso   1.00
O603   O     0.78036   0.00000   0.83755   0.00000  Uiso   1.00
O604   O     0.71963   0.00000   0.16245   0.00000  Uiso   1.00
O605   O     0.50000   0.28037   0.83755   0.00000  Uiso   1.00
O606   O     0.50000   0.21964   0.16245   0.00000  Uiso   1.00
O607   O     0.71963   0.00000   0.83755   0.00000  Uiso   1.00
O608   O     0.75000   0.00000   0.75000   0.00000  Uiso   1.00
O609   O     0.78036   0.00000   0.16245   0.00000  Uiso   1.00
O610   O     0.70724   0.07308   0.27302   0.00000  Uiso   1.00
O611   O     0.79275   0.42693   0.72698   0.00000  Uiso   1.00
O612   O     0.92692   0.20725   0.27302   0.00000  Uiso   1.00
O613   O     0.57307   0.29276   0.72698   0.00000  Uiso   1.00
O614   O     0.79275   0.42693   0.27302   0.00000  Uiso   1.00
O615   O     0.70724   0.07308   0.72698   0.00000  Uiso   1.00
O616   O     0.57307   0.29276   0.27302   0.00000  Uiso   1.00
O617   O     0.92692   0.20725   0.72698   0.00000  Uiso   1.00
O618   O     0.70724   0.42693   0.72698   0.00000  Uiso   1.00
O619   O     0.50000   0.25000   0.25000   0.00000  Uiso   1.00
O620   O     0.79275   0.07308   0.27302   0.00000  Uiso   1.00
O621   O     0.92692   0.29276   0.72698   0.00000  Uiso   1.00
O622   O     0.57307   0.20725   0.27302   0.00000  Uiso   1.00
O623   O     0.79275   0.07308   0.72698   0.00000  Uiso   1.00
O624   O     0.70724   0.42693   0.27302   0.00000  Uiso   1.00
O625   O     0.57307   0.20725   0.72698   0.00000  Uiso   1.00
O626   O     0.92692   0.29276   0.27302   0.00000  Uiso   1.00
O627   O     0.95724   0.32308   0.77302   0.00000  Uiso   1.00
O628   O     0.54275   0.17693   0.22698   0.00000  Uiso   1.00
O629   O     0.67692   0.45725   0.77302   0.00000  Uiso   1.00
O630   O     0.50000   0.25000   0.75000   0.00000  Uiso   1.00
O631   O     0.82307   0.04276   0.22698   0.00000  Uiso   1.00
O632   O     0.54275   0.17693   0.77302   0.00000  Uiso   1.00
O633   O     0.95724   0.32308   0.22698   0.00000  Uiso   1.00
O634   O     0.82307   0.04276   0.77302   0.00000  Uiso   1.00
O635   O     0.67692   0.45725   0.22698   0.00000  Uiso   1.00
O636   O     0.95724   0.17693   0.22698   0.00000  Uiso   1.00
O637   O     0.54275   0.32308   0.77302   0.00000  Uiso   1.00
O638   O     0.67692   0.04276   0.22698   0.00000  Uiso   1.00
O639   O     0.82307   0.45725   0.77302   0.00000  Uiso   1.00
O640   O     0.54275   0.32308   0.22698   0.00000  Uiso   1.00
O641   O     0.75000   0.46964   0.33755   0.00000  Uiso   1.00
O642   O     0.95724   0.17693   0.77302   0.00000  Uiso   1.00
O643   O     0.82307   0.45725   0.22698   0.00000  Uiso   1.00
O644   O     0.67692   0.04276   0.77302   0.00000  Uiso   1.00
O645   O     0.75000   0.03037   0.66245   0.00000  Uiso   1.00
O646   O     0.53036   0.25000   0.33755   0.00000  Uiso   1.00
O647   O     0.96963   0.25000   0.66245   0.00000  Uiso   1.00
O648   O     0.75000   0.03037   0.33755   0.00000  Uiso   1.00
Zn649  Zn    0.70659   0.00000   0.21735   0.00000  Uiso   1.00
Zn650  Zn    0.54340   0.25000   0.28265   0.00000  Uiso   1.00
Zn651  Zn    0.75000   0.45660   0.71735   0.00000  Uiso   1.00
Zn652  Zn    0.75000   0.04341   0.28265   0.00000  Uiso   1.00
Zn653  Zn    0.54340   0.25000   0.71735   0.00000  Uiso   1.00
Zn654  Zn    0.95659   0.25000   0.28265   0.00000  Uiso   1.00
Zn655  Zn    0.75000   0.04341   0.71735   0.00000  Uiso   1.00
Zn656  Zn    0.75000   0.45660   0.28265   0.00000  Uiso   1.00
Zn657  Zn    0.79340   0.00000   0.78265   0.00000  Uiso   1.00
Zn658  Zn    0.50000   0.20660   0.21735   0.00000  Uiso   1.00
Zn659  Zn    0.50000   0.29341   0.78265   0.00000  Uiso   1.00
Zn660  Zn    0.79340   0.00000   0.21735   0.00000  Uiso   1.00
Zn661  Zn    0.70659   0.00000   0.78265   0.00000  Uiso   1.00
Zn662  Zn    0.50000   0.29341   0.21735   0.00000  Uiso   1.00
Zn663  Zn    0.50000   0.20660   0.78265   0.00000  Uiso   1.00
Zn664  Zn    0.95659   0.25000   0.71735   0.00000  Uiso   1.00
Br665  Br    0.48392   0.63794   0.45579   0.00000  Uiso   1.00
Br666  Br    0.26577   0.61210   0.04420   0.00000  Uiso   1.00
Br667  Br    0.11188   0.73265   0.95566   0.00000  Uiso   1.00
Br668  Br    0.38805   0.73369   0.04438   0.00000  Uiso   1.00
Br669  Br    0.23209   0.61172   0.95559   0.00000  Uiso   1.00
Br670  Br    0.23326   0.88810   0.04442   0.00000  Uiso   1.00
Br671  Br    0.38818   0.76718   0.95569   0.00000  Uiso   1.00
Br672  Br    0.11201   0.76647   0.04425   0.00000  Uiso   1.00
Br673  Br    0.47099   0.82224   0.38929   0.00000  Uiso   1.00
Br674  Br    0.47139   0.67761   0.61075   0.00000  Uiso   1.00
Br675  Br    0.17773   0.52907   0.38921   0.00000  Uiso   1.00
Br676  Br    0.48341   0.86198   0.54423   0.00000  Uiso   1.00
Br677  Br    0.32232   0.52883   0.61074   0.00000  Uiso   1.00
Br678  Br    0.02926   0.67779   0.38914   0.00000  Uiso   1.00
Br679  Br    0.02894   0.82234   0.61085   0.00000  Uiso   1.00
Br680  Br    0.32213   0.97066   0.38923   0.00000  Uiso   1.00
Br681  Br    0.17753   0.97145   0.61089   0.00000  Uiso   1.00
Br682  Br    0.27840   0.57247   0.88924   0.00000  Uiso   1.00
Br683  Br    0.27920   0.92783   0.11070   0.00000  Uiso   1.00
Br684  Br    0.42766   0.72120   0.88926   0.00000  Uiso   1.00
Br685  Br    0.07225   0.72088   0.11079   0.00000  Uiso   1.00
Br686  Br    0.22129   0.92757   0.88913   0.00000  Uiso   1.00
Br687  Br    0.36194   0.51636   0.45563   0.00000  Uiso   1.00
Br688  Br    0.22054   0.57213   0.11085   0.00000  Uiso   1.00
Br689  Br    0.07247   0.77853   0.88913   0.00000  Uiso   1.00
Br690  Br    0.42789   0.77938   0.11077   0.00000  Uiso   1.00
Br691  Br    0.13811   0.51727   0.54433   0.00000  Uiso   1.00
Br692  Br    0.01704   0.86185   0.45558   0.00000  Uiso   1.00
Br693  Br    0.01760   0.63822   0.54441   0.00000  Uiso   1.00
Br694  Br    0.13800   0.98346   0.45575   0.00000  Uiso   1.00
Br695  Br    0.36182   0.98286   0.54431   0.00000  Uiso   1.00
Br696  Br    0.26690   0.88807   0.95577   0.00000  Uiso   1.00
C697   C     0.49330   0.78253   0.41810   0.00000  Uiso   1.00
C698   C     0.25679   0.96748   0.08190   0.00000  Uiso   1.00
C699   C     0.21631   0.99864   0.54122   0.00000  Uiso   1.00
C700   C     0.49863   0.78361   0.45880   0.00000  Uiso   1.00
C701   C     0.49882   0.71638   0.54121   0.00000  Uiso   1.00
C702   C     0.21633   0.50158   0.45882   0.00000  Uiso   1.00
C703   C     0.28359   0.50141   0.54119   0.00000  Uiso   1.00
C704   C     0.24844   0.96634   0.95880   0.00000  Uiso   1.00
C705   C     0.24810   0.53364   0.04118   0.00000  Uiso   1.00
C706   C     0.03368   0.75134   0.95878   0.00000  Uiso   1.00
C707   C     0.46641   0.75167   0.04120   0.00000  Uiso   1.00
C708   C     0.25108   0.53362   0.95878   0.00000  Uiso   1.00
C709   C     0.46744   0.74336   0.91809   0.00000  Uiso   1.00
C710   C     0.25146   0.96639   0.04120   0.00000  Uiso   1.00
C711   C     0.46640   0.74860   0.95881   0.00000  Uiso   1.00
C712   C     0.03367   0.74839   0.04118   0.00000  Uiso   1.00
C713   C     0.09809   0.84810   0.25000   0.00000  Uiso   1.00
C714   C     0.40191   0.65190   0.75001   0.00000  Uiso   1.00
C715   C     0.15190   0.59809   0.25001   0.00000  Uiso   1.00
C716   C     0.34787   0.90165   0.75014   0.00000  Uiso   1.00
C717   C     0.40190   0.65190   0.25001   0.00000  Uiso   1.00
C718   C     0.09803   0.84808   0.74987   0.00000  Uiso   1.00
C719   C     0.34809   0.90190   0.24999   0.00000  Uiso   1.00
C720   C     0.03258   0.74318   0.08191   0.00000  Uiso   1.00
C721   C     0.15190   0.59809   0.75000   0.00000  Uiso   1.00
C722   C     0.09810   0.65191   0.75000   0.00000  Uiso   1.00
C723   C     0.40191   0.84810   0.25001   0.00000  Uiso   1.00
C724   C     0.15165   0.90213   0.74985   0.00000  Uiso   1.00
C725   C     0.34810   0.59810   0.24999   0.00000  Uiso   1.00
C726   C     0.40192   0.84803   0.75014   0.00000  Uiso   1.00
C727   C     0.09810   0.65191   0.24999   0.00000  Uiso   1.00
C728   C     0.34809   0.59810   0.74999   0.00000  Uiso   1.00
C729   C     0.15191   0.90190   0.25000   0.00000  Uiso   1.00
C730   C     0.00023   0.74999   0.47942   0.00000  Uiso   1.00
C731   C     0.24330   0.96737   0.91806   0.00000  Uiso   1.00
C732   C     0.00024   0.75001   0.52058   0.00000  Uiso   1.00
C733   C     0.24995   0.99998   0.47942   0.00000  Uiso   1.00
C734   C     0.24995   0.50000   0.52059   0.00000  Uiso   1.00
C735   C     0.24976   0.99999   0.97941   0.00000  Uiso   1.00
C736   C     0.24977   0.50001   0.02057   0.00000  Uiso   1.00
C737   C     0.00004   0.74999   0.97941   0.00000  Uiso   1.00
C738   C     0.00004   0.75001   0.02057   0.00000  Uiso   1.00
C739   C     0.24298   0.53256   0.08192   0.00000  Uiso   1.00
C740   C     0.03264   0.75655   0.91805   0.00000  Uiso   1.00
C741   C     0.46749   0.75691   0.08192   0.00000  Uiso   1.00
C742   C     0.00002   0.74997   0.39808   0.00000  Uiso   1.00
C743   C     0.00006   0.75003   0.60193   0.00000  Uiso   1.00
C744   C     0.24997   0.99998   0.39808   0.00000  Uiso   1.00
C745   C     0.49350   0.71743   0.58192   0.00000  Uiso   1.00
C746   C     0.24997   0.50002   0.60193   0.00000  Uiso   1.00
C747   C     0.24994   0.99997   0.89807   0.00000  Uiso   1.00
C748   C     0.24997   0.50003   0.10192   0.00000  Uiso   1.00
C749   C     0.00003   0.74998   0.89807   0.00000  Uiso   1.00
C750   C     0.00003   0.75002   0.10192   0.00000  Uiso   1.00
C751   C     0.49949   0.68318   0.47972   0.00000  Uiso   1.00
C752   C     0.49917   0.81682   0.52029   0.00000  Uiso   1.00
C753   C     0.31676   0.50074   0.47966   0.00000  Uiso   1.00
C754   C     0.18316   0.50124   0.52035   0.00000  Uiso   1.00
C755   C     0.00117   0.81679   0.47965   0.00000  Uiso   1.00
C756   C     0.21741   0.50680   0.41809   0.00000  Uiso   1.00
C757   C     0.00150   0.68321   0.52036   0.00000  Uiso   1.00
C758   C     0.18315   0.99920   0.47971   0.00000  Uiso   1.00
C759   C     0.31675   0.99878   0.52030   0.00000  Uiso   1.00
C760   C     0.25101   0.93318   0.97971   0.00000  Uiso   1.00
C761   C     0.25033   0.56682   0.02028   0.00000  Uiso   1.00
C762   C     0.06684   0.74871   0.97965   0.00000  Uiso   1.00
C763   C     0.43323   0.74928   0.02034   0.00000  Uiso   1.00
C764   C     0.24831   0.56678   0.97964   0.00000  Uiso   1.00
C765   C     0.24902   0.93321   0.02035   0.00000  Uiso   1.00
C766   C     0.43324   0.75124   0.97970   0.00000  Uiso   1.00
C767   C     0.28255   0.50666   0.58191   0.00000  Uiso   1.00
C768   C     0.06684   0.75076   0.02029   0.00000  Uiso   1.00
C769   C     0.24999   0.50000   0.35578   0.00000  Uiso   1.00
C770   C     0.24999   0.50000   0.64423   0.00000  Uiso   1.00
C771   C    -0.00000   0.74999   0.35578   0.00000  Uiso   1.00
C772   C     0.00001   0.75001   0.64423   0.00000  Uiso   1.00
C773   C     0.00001   0.75000   0.85577   0.00000  Uiso   1.00
C774   C     0.00001   0.75000   0.14422   0.00000  Uiso   1.00
C775   C     0.24999   0.99999   0.85577   0.00000  Uiso   1.00
C776   C     0.25000   0.50001   0.14422   0.00000  Uiso   1.00
C777   C     0.17998   0.57001   0.25001   0.00000  Uiso   1.00
C778   C     0.00693   0.71742   0.41807   0.00000  Uiso   1.00
C779   C     0.31988   0.92984   0.75014   0.00000  Uiso   1.00
C780   C     0.42998   0.67998   0.25000   0.00000  Uiso   1.00
C781   C     0.07002   0.81998   0.75001   0.00000  Uiso   1.00
C782   C     0.32001   0.92998   0.24999   0.00000  Uiso   1.00
C783   C     0.17998   0.57001   0.75000   0.00000  Uiso   1.00
C784   C     0.07001   0.82002   0.25000   0.00000  Uiso   1.00
C785   C     0.42999   0.67998   0.75000   0.00000  Uiso   1.00
C786   C     0.17983   0.93012   0.74985   0.00000  Uiso   1.00
C787   C     0.32002   0.57002   0.25000   0.00000  Uiso   1.00
C788   C     0.43002   0.82002   0.75000   0.00000  Uiso   1.00
C789   C     0.00680   0.78261   0.58193   0.00000  Uiso   1.00
C790   C     0.07002   0.67999   0.24999   0.00000  Uiso   1.00
C791   C     0.32001   0.57002   0.75000   0.00000  Uiso   1.00
C792   C     0.17999   0.92998   0.25000   0.00000  Uiso   1.00
C793   C     0.07002   0.67999   0.75000   0.00000  Uiso   1.00
C794   C     0.42999   0.82002   0.25001   0.00000  Uiso   1.00
C795   C     0.13830   0.88879   0.21435   0.00000  Uiso   1.00
C796   C     0.38507   0.58783   0.75073   0.00000  Uiso   1.00
C797   C     0.08783   0.61493   0.24921   0.00000  Uiso   1.00
C798   C     0.41205   0.88504   0.74954   0.00000  Uiso   1.00
C799   C     0.38508   0.58784   0.24904   0.00000  Uiso   1.00
C800   C     0.28251   0.99310   0.41808   0.00000  Uiso   1.00
C801   C     0.11442   0.91212   0.74864   0.00000  Uiso   1.00
C802   C     0.41215   0.88509   0.24921   0.00000  Uiso   1.00
C803   C     0.11121   0.63830   0.78564   0.00000  Uiso   1.00
C804   C     0.13828   0.61122   0.78565   0.00000  Uiso   1.00
C805   C     0.38507   0.91217   0.24920   0.00000  Uiso   1.00
C806   C     0.08767   0.88496   0.74866   0.00000  Uiso   1.00
C807   C     0.41216   0.61492   0.24905   0.00000  Uiso   1.00
C808   C     0.38486   0.91203   0.74950   0.00000  Uiso   1.00
C809   C     0.11491   0.58785   0.24922   0.00000  Uiso   1.00
C810   C     0.41215   0.61491   0.75074   0.00000  Uiso   1.00
C811   C     0.21736   0.99343   0.58195   0.00000  Uiso   1.00
C812   C     0.11122   0.86171   0.21435   0.00000  Uiso   1.00
C813   C     0.36493   0.66217   0.74927   0.00000  Uiso   1.00
C814   C     0.11170   0.86121   0.28564   0.00000  Uiso   1.00
C815   C     0.33787   0.86441   0.75097   0.00000  Uiso   1.00
C816   C     0.16217   0.63507   0.25079   0.00000  Uiso   1.00
C817   C     0.13503   0.83797   0.75083   0.00000  Uiso   1.00
C818   C     0.36492   0.66216   0.25096   0.00000  Uiso   1.00
C819   C     0.13878   0.61169   0.71435   0.00000  Uiso   1.00
C820   C     0.33785   0.86491   0.25079   0.00000  Uiso   1.00
C821   C     0.36493   0.83783   0.25080   0.00000  Uiso   1.00
C822   C     0.25641   0.53259   0.91808   0.00000  Uiso   1.00
C823   C     0.11171   0.63878   0.71435   0.00000  Uiso   1.00
C824   C     0.33784   0.63508   0.25095   0.00000  Uiso   1.00
C825   C     0.16202   0.86517   0.75087   0.00000  Uiso   1.00
C826   C     0.13509   0.66215   0.25078   0.00000  Uiso   1.00
C827   C     0.36503   0.83766   0.75097   0.00000  Uiso   1.00
C828   C     0.13878   0.88829   0.28565   0.00000  Uiso   1.00
C829   C     0.33785   0.63509   0.74926   0.00000  Uiso   1.00
C830   C     0.00181   0.71635   0.45881   0.00000  Uiso   1.00
C831   C     0.00166   0.78366   0.54120   0.00000  Uiso   1.00
C832   C     0.28358   0.99834   0.45880   0.00000  Uiso   1.00
H833   H     0.16442   0.88074   0.16285   0.00000  Uiso   1.00
H834   H     0.41045   0.54439   0.27396   0.00000  Uiso   1.00
H835   H     0.11003   0.96298   0.77178   0.00000  Uiso   1.00
H836   H     0.11665   0.96193   0.72264   0.00000  Uiso   1.00
H837   H     0.45548   0.91041   0.27436   0.00000  Uiso   1.00
H838   H     0.45583   0.91046   0.22485   0.00000  Uiso   1.00
H839   H     0.11926   0.66442   0.83713   0.00000  Uiso   1.00
H840   H     0.08631   0.63176   0.83803   0.00000  Uiso   1.00
H841   H     0.16439   0.61927   0.83713   0.00000  Uiso   1.00
H842   H     0.13171   0.58633   0.83803   0.00000  Uiso   1.00
H843   H     0.41035   0.95555   0.27436   0.00000  Uiso   1.00
H844   H     0.13175   0.91370   0.16198   0.00000  Uiso   1.00
H845   H     0.41042   0.95589   0.22484   0.00000  Uiso   1.00
H846   H     0.04556   0.90964   0.72091   0.00000  Uiso   1.00
H847   H     0.04346   0.91135   0.77018   0.00000  Uiso   1.00
H848   H     0.45581   0.58964   0.22446   0.00000  Uiso   1.00
H849   H     0.45559   0.58954   0.27397   0.00000  Uiso   1.00
H850   H     0.41064   0.95643   0.77181   0.00000  Uiso   1.00
H851   H     0.40937   0.95479   0.72235   0.00000  Uiso   1.00
H852   H     0.08958   0.54452   0.27440   0.00000  Uiso   1.00
H853   H     0.08955   0.54416   0.22488   0.00000  Uiso   1.00
H854   H     0.45547   0.58962   0.72550   0.00000  Uiso   1.00
H855   H     0.41033   0.54448   0.72547   0.00000  Uiso   1.00
H856   H     0.45584   0.58951   0.77501   0.00000  Uiso   1.00
H857   H     0.11927   0.83561   0.16285   0.00000  Uiso   1.00
H858   H     0.08633   0.86829   0.16198   0.00000  Uiso   1.00
H859   H     0.33958   0.70592   0.72502   0.00000  Uiso   1.00
H860   H     0.33967   0.70551   0.77453   0.00000  Uiso   1.00
H861   H     0.11825   0.83630   0.33802   0.00000  Uiso   1.00
H862   H     0.08558   0.86926   0.33715   0.00000  Uiso   1.00
H863   H     0.28719   0.86008   0.72732   0.00000  Uiso   1.00
H864   H     0.28781   0.86645   0.77652   0.00000  Uiso   1.00
H865   H     0.20588   0.66042   0.27512   0.00000  Uiso   1.00
H866   H     0.41042   0.54408   0.77499   0.00000  Uiso   1.00
H867   H     0.20555   0.66035   0.22561   0.00000  Uiso   1.00
H868   H     0.16126   0.79365   0.72899   0.00000  Uiso   1.00
H869   H     0.15959   0.79552   0.77842   0.00000  Uiso   1.00
H870   H     0.33955   0.70561   0.22604   0.00000  Uiso   1.00
H871   H     0.33963   0.70580   0.27555   0.00000  Uiso   1.00
H872   H     0.16368   0.61823   0.66197   0.00000  Uiso   1.00
H873   H     0.13073   0.58556   0.66287   0.00000  Uiso   1.00
H874   H     0.29417   0.83954   0.27515   0.00000  Uiso   1.00
H875   H     0.29452   0.83959   0.22564   0.00000  Uiso   1.00
H876   H     0.33958   0.79411   0.27516   0.00000  Uiso   1.00
H877   H     0.04445   0.58965   0.27440   0.00000  Uiso   1.00
H878   H     0.33965   0.79445   0.22564   0.00000  Uiso   1.00
H879   H     0.11828   0.66366   0.66197   0.00000  Uiso   1.00
H880   H     0.08560   0.63071   0.66287   0.00000  Uiso   1.00
H881   H     0.29440   0.66047   0.22603   0.00000  Uiso   1.00
H882   H     0.29420   0.66036   0.27554   0.00000  Uiso   1.00
H883   H     0.20660   0.83924   0.72912   0.00000  Uiso   1.00
H884   H     0.20460   0.84089   0.77856   0.00000  Uiso   1.00
H885   H     0.16045   0.70584   0.27512   0.00000  Uiso   1.00
H886   H     0.16041   0.70548   0.22560   0.00000  Uiso   1.00
H887   H     0.34012   0.79536   0.77819   0.00000  Uiso   1.00
H888   H     0.04412   0.58958   0.22488   0.00000  Uiso   1.00
H889   H     0.33880   0.79361   0.72889   0.00000  Uiso   1.00
H890   H     0.16367   0.88171   0.33802   0.00000  Uiso   1.00
H891   H     0.13073   0.91439   0.33715   0.00000  Uiso   1.00
H892   H     0.29416   0.66049   0.72499   0.00000  Uiso   1.00
H893   H     0.29453   0.66038   0.77450   0.00000  Uiso   1.00
H894   H     0.45624   0.91109   0.77194   0.00000  Uiso   1.00
H895   H     0.45473   0.90978   0.72248   0.00000  Uiso   1.00
H896   H     0.41037   0.54420   0.22445   0.00000  Uiso   1.00
N897   N     0.15296   0.90242   0.17838   0.00000  Uiso   1.00
N898   N     0.39477   0.95015   0.24954   0.00000  Uiso   1.00
N899   N     0.04976   0.89465   0.74642   0.00000  Uiso   1.00
N900   N     0.45014   0.60520   0.24923   0.00000  Uiso   1.00
N901   N     0.39441   0.95002   0.74775   0.00000  Uiso   1.00
N902   N     0.10519   0.54987   0.24957   0.00000  Uiso   1.00
N903   N     0.45013   0.60519   0.75034   0.00000  Uiso   1.00
N904   N     0.09759   0.84708   0.17838   0.00000  Uiso   1.00
N905   N     0.35523   0.70015   0.74968   0.00000  Uiso   1.00
N906   N     0.09704   0.84758   0.32162   0.00000  Uiso   1.00
N907   N     0.30040   0.85308   0.75321   0.00000  Uiso   1.00
N908   N     0.39477   0.54985   0.75032   0.00000  Uiso   1.00
N909   N     0.20015   0.64477   0.25043   0.00000  Uiso   1.00
N910   N     0.14479   0.80005   0.75287   0.00000  Uiso   1.00
N911   N     0.35521   0.70015   0.25078   0.00000  Uiso   1.00
N912   N     0.15241   0.59703   0.67838   0.00000  Uiso   1.00
N913   N     0.29987   0.85519   0.25045   0.00000  Uiso   1.00
N914   N     0.35523   0.79985   0.25046   0.00000  Uiso   1.00
N915   N     0.09707   0.65240   0.67838   0.00000  Uiso   1.00
N916   N     0.29986   0.64480   0.25077   0.00000  Uiso   1.00
N917   N     0.20000   0.85565   0.75299   0.00000  Uiso   1.00
N918   N     0.14481   0.70013   0.25042   0.00000  Uiso   1.00
N919   N     0.04985   0.60523   0.24957   0.00000  Uiso   1.00
N920   N     0.35530   0.79974   0.75284   0.00000  Uiso   1.00
N921   N     0.15241   0.90293   0.32162   0.00000  Uiso   1.00
N922   N     0.29988   0.64481   0.74966   0.00000  Uiso   1.00
N923   N     0.44999   0.89481   0.74787   0.00000  Uiso   1.00
N924   N     0.39479   0.54986   0.24922   0.00000  Uiso   1.00
N925   N     0.10313   0.94956   0.74598   0.00000  Uiso   1.00
N926   N     0.45012   0.89481   0.24955   0.00000  Uiso   1.00
N927   N     0.09758   0.65296   0.82161   0.00000  Uiso   1.00
N928   N     0.15292   0.59759   0.82162   0.00000  Uiso   1.00
O929   O     0.25000   0.50000   0.25000   0.00000  Uiso   1.00
O930   O     0.25000   0.96964   0.66245   0.00000  Uiso   1.00
O931   O     0.46963   0.75000   0.33755   0.00000  Uiso   1.00
O932   O     0.03036   0.75000   0.66245   0.00000  Uiso   1.00
O933   O     0.00000   0.71964   0.83755   0.00000  Uiso   1.00
O934   O     0.00000   0.78037   0.16245   0.00000  Uiso   1.00
O935   O     0.28036   0.50000   0.83755   0.00000  Uiso   1.00
O936   O     0.21963   0.50000   0.16245   0.00000  Uiso   1.00
O937   O     0.00000   0.78037   0.83755   0.00000  Uiso   1.00
O938   O     0.00000   0.71964   0.16245   0.00000  Uiso   1.00
O939   O     0.21963   0.50000   0.83755   0.00000  Uiso   1.00
O940   O     0.25000   0.50000   0.75000   0.00000  Uiso   1.00
O941   O     0.28036   0.50000   0.16245   0.00000  Uiso   1.00
O942   O     0.20724   0.57308   0.27302   0.00000  Uiso   1.00
O943   O     0.29275   0.92693   0.72698   0.00000  Uiso   1.00
O944   O     0.42692   0.70725   0.27302   0.00000  Uiso   1.00
O945   O     0.07307   0.79276   0.72698   0.00000  Uiso   1.00
O946   O     0.29275   0.92693   0.27302   0.00000  Uiso   1.00
O947   O     0.20724   0.57308   0.72698   0.00000  Uiso   1.00
O948   O     0.07307   0.79276   0.27302   0.00000  Uiso   1.00
O949   O     0.42692   0.70725   0.72698   0.00000  Uiso   1.00
O950   O     0.20724   0.92693   0.72698   0.00000  Uiso   1.00
O951   O     0.00000   0.75000   0.25000   0.00000  Uiso   1.00
O952   O     0.29275   0.57308   0.27302   0.00000  Uiso   1.00
O953   O     0.42692   0.79276   0.72698   0.00000  Uiso   1.00
O954   O     0.07307   0.70725   0.27302   0.00000  Uiso   1.00
O955   O     0.29275   0.57308   0.72698   0.00000  Uiso   1.00
O956   O     0.20724   0.92693   0.27302   0.00000  Uiso   1.00
O957   O     0.07307   0.70725   0.72698   0.00000  Uiso   1.00
O958   O     0.42692   0.79276   0.27302   0.00000  Uiso   1.00
O959   O     0.45724   0.82308   0.77302   0.00000  Uiso   1.00
O960   O     0.04275   0.67693   0.22698   0.00000  Uiso   1.00
O961   O     0.17692   0.95725   0.77302   0.00000  Uiso   1.00
O962   O     0.00000   0.75000   0.75000   0.00000  Uiso   1.00
O963   O     0.32307   0.54276   0.22698   0.00000  Uiso   1.00
O964   O     0.04275   0.67693   0.77302   0.00000  Uiso   1.00
O965   O     0.45724   0.82308   0.22698   0.00000  Uiso   1.00
O966   O     0.32307   0.54276   0.77302   0.00000  Uiso   1.00
O967   O     0.17692   0.95725   0.22698   0.00000  Uiso   1.00
O968   O     0.45724   0.67693   0.22698   0.00000  Uiso   1.00
O969   O     0.04275   0.82308   0.77302   0.00000  Uiso   1.00
O970   O     0.17692   0.54276   0.22698   0.00000  Uiso   1.00
O971   O     0.32307   0.95725   0.77302   0.00000  Uiso   1.00
O972   O     0.04275   0.82308   0.22698   0.00000  Uiso   1.00
O973   O     0.25000   0.96964   0.33755   0.00000  Uiso   1.00
O974   O     0.45724   0.67693   0.77302   0.00000  Uiso   1.00
O975   O     0.32307   0.95725   0.22698   0.00000  Uiso   1.00
O976   O     0.17692   0.54276   0.77302   0.00000  Uiso   1.00
O977   O     0.25000   0.53037   0.66245   0.00000  Uiso   1.00
O978   O     0.03036   0.75000   0.33755   0.00000  Uiso   1.00
O979   O     0.46963   0.75000   0.66245   0.00000  Uiso   1.00
O980   O     0.25000   0.53037   0.33755   0.00000  Uiso   1.00
Zn981  Zn    0.20659   0.50000   0.21735   0.00000  Uiso   1.00
Zn982  Zn    0.04340   0.75000   0.28265   0.00000  Uiso   1.00
Zn983  Zn    0.25000   0.95660   0.71735   0.00000  Uiso   1.00
Zn984  Zn    0.25000   0.54341   0.28265   0.00000  Uiso   1.00
Zn985  Zn    0.04340   0.75000   0.71735   0.00000  Uiso   1.00
Zn986  Zn    0.45659   0.75000   0.28265   0.00000  Uiso   1.00
Zn987  Zn    0.25000   0.54341   0.71735   0.00000  Uiso   1.00
Zn988  Zn    0.25000   0.95660   0.28265   0.00000  Uiso   1.00
Zn989  Zn    0.29340   0.50000   0.78265   0.00000  Uiso   1.00
Zn990  Zn    0.00000   0.70660   0.21735   0.00000  Uiso   1.00
Zn991  Zn    0.00000   0.79341   0.78265   0.00000  Uiso   1.00
Zn992  Zn    0.29340   0.50000   0.21735   0.00000  Uiso   1.00
Zn993  Zn    0.20659   0.50000   0.78265   0.00000  Uiso   1.00
Zn994  Zn    0.00000   0.79341   0.21735   0.00000  Uiso   1.00
Zn995  Zn    0.00000   0.70660   0.78265   0.00000  Uiso   1.00
Zn996  Zn    0.45659   0.75000   0.71735   0.00000  Uiso   1.00
Br997  Br    0.98392   0.63794   0.45579   0.00000  Uiso   1.00
Br998  Br    0.76577   0.61210   0.04420   0.00000  Uiso   1.00
Br999  Br    0.61188   0.73265   0.95566   0.00000  Uiso   1.00
Br1000 Br    0.88805   0.73369   0.04438   0.00000  Uiso   1.00
Br1001 Br    0.73209   0.61172   0.95559   0.00000  Uiso   1.00
Br1002 Br    0.73326   0.88810   0.04442   0.00000  Uiso   1.00
Br1003 Br    0.88818   0.76718   0.95569   0.00000  Uiso   1.00
Br1004 Br    0.61201   0.76647   0.04425   0.00000  Uiso   1.00
Br1005 Br    0.97099   0.82224   0.38929   0.00000  Uiso   1.00
Br1006 Br    0.97139   0.67761   0.61075   0.00000  Uiso   1.00
Br1007 Br    0.67773   0.52907   0.38921   0.00000  Uiso   1.00
Br1008 Br    0.98341   0.86198   0.54423   0.00000  Uiso   1.00
Br1009 Br    0.82232   0.52883   0.61074   0.00000  Uiso   1.00
Br1010 Br    0.52926   0.67779   0.38914   0.00000  Uiso   1.00
Br1011 Br    0.52894   0.82234   0.61085   0.00000  Uiso   1.00
Br1012 Br    0.82213   0.97066   0.38923   0.00000  Uiso   1.00
Br1013 Br    0.67753   0.97145   0.61089   0.00000  Uiso   1.00
Br1014 Br    0.77840   0.57247   0.88924   0.00000  Uiso   1.00
Br1015 Br    0.77920   0.92783   0.11070   0.00000  Uiso   1.00
Br1016 Br    0.92766   0.72120   0.88926   0.00000  Uiso   1.00
Br1017 Br    0.57225   0.72088   0.11079   0.00000  Uiso   1.00
Br1018 Br    0.72129   0.92757   0.88913   0.00000  Uiso   1.00
Br1019 Br    0.86194   0.51636   0.45563   0.00000  Uiso   1.00
Br1020 Br    0.72054   0.57213   0.11085   0.00000  Uiso   1.00
Br1021 Br    0.57247   0.77853   0.88913   0.00000  Uiso   1.00
Br1022 Br    0.92789   0.77938   0.11077   0.00000  Uiso   1.00
Br1023 Br    0.63811   0.51727   0.54433   0.00000  Uiso   1.00
Br1024 Br    0.51704   0.86185   0.45558   0.00000  Uiso   1.00
Br1025 Br    0.51760   0.63822   0.54441   0.00000  Uiso   1.00
Br1026 Br    0.63800   0.98346   0.45575   0.00000  Uiso   1.00
Br1027 Br    0.86182   0.98286   0.54431   0.00000  Uiso   1.00
Br1028 Br    0.76690   0.88807   0.95577   0.00000  Uiso   1.00
C1029  C     0.99330   0.78253   0.41810   0.00000  Uiso   1.00
C1030  C     0.75679   0.96748   0.08190   0.00000  Uiso   1.00
C1031  C     0.71631   0.99864   0.54122   0.00000  Uiso   1.00
C1032  C     0.99863   0.78361   0.45880   0.00000  Uiso   1.00
C1033  C     0.99882   0.71638   0.54121   0.00000  Uiso   1.00
C1034  C     0.71633   0.50158   0.45882   0.00000  Uiso   1.00
C1035  C     0.78359   0.50141   0.54119   0.00000  Uiso   1.00
C1036  C     0.74844   0.96634   0.95880   0.00000  Uiso   1.00
C1037  C     0.74810   0.53364   0.04118   0.00000  Uiso   1.00
C1038  C     0.53368   0.75134   0.95878   0.00000  Uiso   1.00
C1039  C     0.96641   0.75167   0.04120   0.00000  Uiso   1.00
C1040  C     0.75108   0.53362   0.95878   0.00000  Uiso   1.00
C1041  C     0.96744   0.74336   0.91809   0.00000  Uiso   1.00
C1042  C     0.75146   0.96639   0.04120   0.00000  Uiso   1.00
C1043  C     0.96640   0.74860   0.95881   0.00000  Uiso   1.00
C1044  C     0.53367   0.74839   0.04118   0.00000  Uiso   1.00
C1045  C     0.59809   0.84810   0.25000   0.00000  Uiso   1.00
C1046  C     0.90191   0.65190   0.75001   0.00000  Uiso   1.00
C1047  C     0.65190   0.59809   0.25001   0.00000  Uiso   1.00
C1048  C     0.84787   0.90165   0.75014   0.00000  Uiso   1.00
C1049  C     0.90190   0.65190   0.25001   0.00000  Uiso   1.00
C1050  C     0.59803   0.84808   0.74987   0.00000  Uiso   1.00
C1051  C     0.84809   0.90190   0.24999   0.00000  Uiso   1.00
C1052  C     0.53258   0.74318   0.08191   0.00000  Uiso   1.00
C1053  C     0.65190   0.59809   0.75000   0.00000  Uiso   1.00
C1054  C     0.59810   0.65191   0.75000   0.00000  Uiso   1.00
C1055  C     0.90191   0.84810   0.25001   0.00000  Uiso   1.00
C1056  C     0.65165   0.90213   0.74985   0.00000  Uiso   1.00
C1057  C     0.84810   0.59810   0.24999   0.00000  Uiso   1.00
C1058  C     0.90192   0.84803   0.75014   0.00000  Uiso   1.00
C1059  C     0.59810   0.65191   0.24999   0.00000  Uiso   1.00
C1060  C     0.84809   0.59810   0.74999   0.00000  Uiso   1.00
C1061  C     0.65191   0.90190   0.25000   0.00000  Uiso   1.00
C1062  C     0.50023   0.74999   0.47942   0.00000  Uiso   1.00
C1063  C     0.74330   0.96737   0.91806   0.00000  Uiso   1.00
C1064  C     0.50024   0.75001   0.52058   0.00000  Uiso   1.00
C1065  C     0.74995   0.99998   0.47942   0.00000  Uiso   1.00
C1066  C     0.74995   0.50000   0.52059   0.00000  Uiso   1.00
C1067  C     0.74976   0.99999   0.97941   0.00000  Uiso   1.00
C1068  C     0.74977   0.50001   0.02057   0.00000  Uiso   1.00
C1069  C     0.50004   0.74999   0.97941   0.00000  Uiso   1.00
C1070  C     0.50004   0.75001   0.02057   0.00000  Uiso   1.00
C1071  C     0.74298   0.53256   0.08192   0.00000  Uiso   1.00
C1072  C     0.53264   0.75655   0.91805   0.00000  Uiso   1.00
C1073  C     0.96749   0.75691   0.08192   0.00000  Uiso   1.00
C1074  C     0.50002   0.74997   0.39808   0.00000  Uiso   1.00
C1075  C     0.50006   0.75003   0.60193   0.00000  Uiso   1.00
C1076  C     0.74997   0.99998   0.39808   0.00000  Uiso   1.00
C1077  C     0.99350   0.71743   0.58192   0.00000  Uiso   1.00
C1078  C     0.74997   0.50002   0.60193   0.00000  Uiso   1.00
C1079  C     0.74994   0.99997   0.89807   0.00000  Uiso   1.00
C1080  C     0.74997   0.50003   0.10192   0.00000  Uiso   1.00
C1081  C     0.50003   0.74998   0.89807   0.00000  Uiso   1.00
C1082  C     0.50003   0.75002   0.10192   0.00000  Uiso   1.00
C1083  C     0.99949   0.68318   0.47972   0.00000  Uiso   1.00
C1084  C     0.99917   0.81682   0.52029   0.00000  Uiso   1.00
C1085  C     0.81676   0.50074   0.47966   0.00000  Uiso   1.00
C1086  C     0.68316   0.50124   0.52035   0.00000  Uiso   1.00
C1087  C     0.50117   0.81679   0.47965   0.00000  Uiso   1.00
C1088  C     0.71741   0.50680   0.41809   0.00000  Uiso   1.00
C1089  C     0.50150   0.68321   0.52036   0.00000  Uiso   1.00
C1090  C     0.68315   0.99920   0.47971   0.00000  Uiso   1.00
C1091  C     0.81675   0.99878   0.52030   0.00000  Uiso   1.00
C1092  C     0.75101   0.93318   0.97971   0.00000  Uiso   1.00
C1093  C     0.75033   0.56682   0.02028   0.00000  Uiso   1.00
C1094  C     0.56684   0.74871   0.97965   0.00000  Uiso   1.00
C1095  C     0.93323   0.74928   0.02034   0.00000  Uiso   1.00
C1096  C     0.74831   0.56678   0.97964   0.00000  Uiso   1.00
C1097  C     0.74902   0.93321   0.02035   0.00000  Uiso   1.00
C1098  C     0.93324   0.75124   0.97970   0.00000  Uiso   1.00
C1099  C     0.78255   0.50666   0.58191   0.00000  Uiso   1.00
C1100  C     0.56684   0.75076   0.02029   0.00000  Uiso   1.00
C1101  C     0.74999   0.50000   0.35578   0.00000  Uiso   1.00
C1102  C     0.74999   0.50000   0.64423   0.00000  Uiso   1.00
C1103  C     0.50000   0.74999   0.35578   0.00000  Uiso   1.00
C1104  C     0.50001   0.75001   0.64423   0.00000  Uiso   1.00
C1105  C     0.50001   0.75000   0.85577   0.00000  Uiso   1.00
C1106  C     0.50001   0.75000   0.14422   0.00000  Uiso   1.00
C1107  C     0.74999   0.99999   0.85577   0.00000  Uiso   1.00
C1108  C     0.75000   0.50001   0.14422   0.00000  Uiso   1.00
C1109  C     0.67998   0.57001   0.25001   0.00000  Uiso   1.00
C1110  C     0.50693   0.71742   0.41807   0.00000  Uiso   1.00
C1111  C     0.81988   0.92984   0.75014   0.00000  Uiso   1.00
C1112  C     0.92998   0.67998   0.25000   0.00000  Uiso   1.00
C1113  C     0.57002   0.81998   0.75001   0.00000  Uiso   1.00
C1114  C     0.82001   0.92998   0.24999   0.00000  Uiso   1.00
C1115  C     0.67998   0.57001   0.75000   0.00000  Uiso   1.00
C1116  C     0.57001   0.82002   0.25000   0.00000  Uiso   1.00
C1117  C     0.92999   0.67998   0.75000   0.00000  Uiso   1.00
C1118  C     0.67983   0.93012   0.74985   0.00000  Uiso   1.00
C1119  C     0.82002   0.57002   0.25000   0.00000  Uiso   1.00
C1120  C     0.93002   0.82002   0.75000   0.00000  Uiso   1.00
C1121  C     0.50680   0.78261   0.58193   0.00000  Uiso   1.00
C1122  C     0.57002   0.67999   0.24999   0.00000  Uiso   1.00
C1123  C     0.82001   0.57002   0.75000   0.00000  Uiso   1.00
C1124  C     0.67999   0.92998   0.25000   0.00000  Uiso   1.00
C1125  C     0.57002   0.67999   0.75000   0.00000  Uiso   1.00
C1126  C     0.92999   0.82002   0.25001   0.00000  Uiso   1.00
C1127  C     0.63830   0.88879   0.21435   0.00000  Uiso   1.00
C1128  C     0.88507   0.58783   0.75073   0.00000  Uiso   1.00
C1129  C     0.58783   0.61493   0.24921   0.00000  Uiso   1.00
C1130  C     0.91205   0.88504   0.74954   0.00000  Uiso   1.00
C1131  C     0.88508   0.58784   0.24904   0.00000  Uiso   1.00
C1132  C     0.78251   0.99310   0.41808   0.00000  Uiso   1.00
C1133  C     0.61442   0.91212   0.74864   0.00000  Uiso   1.00
C1134  C     0.91215   0.88509   0.24921   0.00000  Uiso   1.00
C1135  C     0.61121   0.63830   0.78564   0.00000  Uiso   1.00
C1136  C     0.63828   0.61122   0.78565   0.00000  Uiso   1.00
C1137  C     0.88507   0.91217   0.24920   0.00000  Uiso   1.00
C1138  C     0.58767   0.88496   0.74866   0.00000  Uiso   1.00
C1139  C     0.91216   0.61492   0.24905   0.00000  Uiso   1.00
C1140  C     0.88486   0.91203   0.74950   0.00000  Uiso   1.00
C1141  C     0.61491   0.58785   0.24922   0.00000  Uiso   1.00
C1142  C     0.91215   0.61491   0.75074   0.00000  Uiso   1.00
C1143  C     0.71736   0.99343   0.58195   0.00000  Uiso   1.00
C1144  C     0.61122   0.86171   0.21435   0.00000  Uiso   1.00
C1145  C     0.86493   0.66217   0.74927   0.00000  Uiso   1.00
C1146  C     0.61170   0.86121   0.28564   0.00000  Uiso   1.00
C1147  C     0.83787   0.86441   0.75097   0.00000  Uiso   1.00
C1148  C     0.66217   0.63507   0.25079   0.00000  Uiso   1.00
C1149  C     0.63503   0.83797   0.75083   0.00000  Uiso   1.00
C1150  C     0.86492   0.66216   0.25096   0.00000  Uiso   1.00
C1151  C     0.63878   0.61169   0.71435   0.00000  Uiso   1.00
C1152  C     0.83785   0.86491   0.25079   0.00000  Uiso   1.00
C1153  C     0.86493   0.83783   0.25080   0.00000  Uiso   1.00
C1154  C     0.75641   0.53259   0.91808   0.00000  Uiso   1.00
C1155  C     0.61171   0.63878   0.71435   0.00000  Uiso   1.00
C1156  C     0.83784   0.63508   0.25095   0.00000  Uiso   1.00
C1157  C     0.66202   0.86517   0.75087   0.00000  Uiso   1.00
C1158  C     0.63509   0.66215   0.25078   0.00000  Uiso   1.00
C1159  C     0.86503   0.83766   0.75097   0.00000  Uiso   1.00
C1160  C     0.63878   0.88829   0.28565   0.00000  Uiso   1.00
C1161  C     0.83785   0.63509   0.74926   0.00000  Uiso   1.00
C1162  C     0.50181   0.71635   0.45881   0.00000  Uiso   1.00
C1163  C     0.50166   0.78366   0.54120   0.00000  Uiso   1.00
C1164  C     0.78358   0.99834   0.45880   0.00000  Uiso   1.00
H1165  H     0.66442   0.88074   0.16285   0.00000  Uiso   1.00
H1166  H     0.91045   0.54439   0.27396   0.00000  Uiso   1.00
H1167  H     0.61003   0.96298   0.77178   0.00000  Uiso   1.00
H1168  H     0.61665   0.96193   0.72264   0.00000  Uiso   1.00
H1169  H     0.95548   0.91041   0.27436   0.00000  Uiso   1.00
H1170  H     0.95583   0.91046   0.22485   0.00000  Uiso   1.00
H1171  H     0.61926   0.66442   0.83713   0.00000  Uiso   1.00
H1172  H     0.58631   0.63176   0.83803   0.00000  Uiso   1.00
H1173  H     0.66439   0.61927   0.83713   0.00000  Uiso   1.00
H1174  H     0.63171   0.58633   0.83803   0.00000  Uiso   1.00
H1175  H     0.91035   0.95555   0.27436   0.00000  Uiso   1.00
H1176  H     0.63175   0.91370   0.16198   0.00000  Uiso   1.00
H1177  H     0.91042   0.95589   0.22484   0.00000  Uiso   1.00
H1178  H     0.54556   0.90964   0.72091   0.00000  Uiso   1.00
H1179  H     0.54346   0.91135   0.77018   0.00000  Uiso   1.00
H1180  H     0.95581   0.58964   0.22446   0.00000  Uiso   1.00
H1181  H     0.95559   0.58954   0.27397   0.00000  Uiso   1.00
H1182  H     0.91064   0.95643   0.77181   0.00000  Uiso   1.00
H1183  H     0.90937   0.95479   0.72235   0.00000  Uiso   1.00
H1184  H     0.58958   0.54452   0.27440   0.00000  Uiso   1.00
H1185  H     0.58955   0.54416   0.22488   0.00000  Uiso   1.00
H1186  H     0.95547   0.58962   0.72550   0.00000  Uiso   1.00
H1187  H     0.91033   0.54448   0.72547   0.00000  Uiso   1.00
H1188  H     0.95584   0.58951   0.77501   0.00000  Uiso   1.00
H1189  H     0.61927   0.83561   0.16285   0.00000  Uiso   1.00
H1190  H     0.58633   0.86829   0.16198   0.00000  Uiso   1.00
H1191  H     0.83958   0.70592   0.72502   0.00000  Uiso   1.00
H1192  H     0.83967   0.70551   0.77453   0.00000  Uiso   1.00
H1193  H     0.61825   0.83630   0.33802   0.00000  Uiso   1.00
H1194  H     0.58558   0.86926   0.33715   0.00000  Uiso   1.00
H1195  H     0.78719   0.86008   0.72732   0.00000  Uiso   1.00
H1196  H     0.78781   0.86645   0.77652   0.00000  Uiso   1.00
H1197  H     0.70588   0.66042   0.27512   0.00000  Uiso   1.00
H1198  H     0.91042   0.54408   0.77499   0.00000  Uiso   1.00
H1199  H     0.70555   0.66035   0.22561   0.00000  Uiso   1.00
H1200  H     0.66126   0.79365   0.72899   0.00000  Uiso   1.00
H1201  H     0.65959   0.79552   0.77842   0.00000  Uiso   1.00
H1202  H     0.83955   0.70561   0.22604   0.00000  Uiso   1.00
H1203  H     0.83963   0.70580   0.27555   0.00000  Uiso   1.00
H1204  H     0.66368   0.61823   0.66197   0.00000  Uiso   1.00
H1205  H     0.63073   0.58556   0.66287   0.00000  Uiso   1.00
H1206  H     0.79417   0.83954   0.27515   0.00000  Uiso   1.00
H1207  H     0.79452   0.83959   0.22564   0.00000  Uiso   1.00
H1208  H     0.83958   0.79411   0.27516   0.00000  Uiso   1.00
H1209  H     0.54445   0.58965   0.27440   0.00000  Uiso   1.00
H1210  H     0.83965   0.79445   0.22564   0.00000  Uiso   1.00
H1211  H     0.61828   0.66366   0.66197   0.00000  Uiso   1.00
H1212  H     0.58560   0.63071   0.66287   0.00000  Uiso   1.00
H1213  H     0.79440   0.66047   0.22603   0.00000  Uiso   1.00
H1214  H     0.79420   0.66036   0.27554   0.00000  Uiso   1.00
H1215  H     0.70660   0.83924   0.72912   0.00000  Uiso   1.00
H1216  H     0.70460   0.84089   0.77856   0.00000  Uiso   1.00
H1217  H     0.66045   0.70584   0.27512   0.00000  Uiso   1.00
H1218  H     0.66041   0.70548   0.22560   0.00000  Uiso   1.00
H1219  H     0.84012   0.79536   0.77819   0.00000  Uiso   1.00
H1220  H     0.54412   0.58958   0.22488   0.00000  Uiso   1.00
H1221  H     0.83880   0.79361   0.72889   0.00000  Uiso   1.00
H1222  H     0.66367   0.88171   0.33802   0.00000  Uiso   1.00
H1223  H     0.63073   0.91439   0.33715   0.00000  Uiso   1.00
H1224  H     0.79416   0.66049   0.72499   0.00000  Uiso   1.00
H1225  H     0.79453   0.66038   0.77450   0.00000  Uiso   1.00
H1226  H     0.95624   0.91109   0.77194   0.00000  Uiso   1.00
H1227  H     0.95473   0.90978   0.72248   0.00000  Uiso   1.00
H1228  H     0.91037   0.54420   0.22445   0.00000  Uiso   1.00
N1229  N     0.65296   0.90242   0.17838   0.00000  Uiso   1.00
N1230  N     0.89477   0.95015   0.24954   0.00000  Uiso   1.00
N1231  N     0.54976   0.89465   0.74642   0.00000  Uiso   1.00
N1232  N     0.95014   0.60520   0.24923   0.00000  Uiso   1.00
N1233  N     0.89441   0.95002   0.74775   0.00000  Uiso   1.00
N1234  N     0.60519   0.54987   0.24957   0.00000  Uiso   1.00
N1235  N     0.95013   0.60519   0.75034   0.00000  Uiso   1.00
N1236  N     0.59759   0.84708   0.17838   0.00000  Uiso   1.00
N1237  N     0.85523   0.70015   0.74968   0.00000  Uiso   1.00
N1238  N     0.59704   0.84758   0.32162   0.00000  Uiso   1.00
N1239  N     0.80040   0.85308   0.75321   0.00000  Uiso   1.00
N1240  N     0.89477   0.54985   0.75032   0.00000  Uiso   1.00
N1241  N     0.70015   0.64477   0.25043   0.00000  Uiso   1.00
N1242  N     0.64479   0.80005   0.75287   0.00000  Uiso   1.00
N1243  N     0.85521   0.70015   0.25078   0.00000  Uiso   1.00
N1244  N     0.65241   0.59703   0.67838   0.00000  Uiso   1.00
N1245  N     0.79987   0.85519   0.25045   0.00000  Uiso   1.00
N1246  N     0.85523   0.79985   0.25046   0.00000  Uiso   1.00
N1247  N     0.59707   0.65240   0.67838   0.00000  Uiso   1.00
N1248  N     0.79986   0.64480   0.25077   0.00000  Uiso   1.00
N1249  N     0.70000   0.85565   0.75299   0.00000  Uiso   1.00
N1250  N     0.64481   0.70013   0.25042   0.00000  Uiso   1.00
N1251  N     0.54985   0.60523   0.24957   0.00000  Uiso   1.00
N1252  N     0.85530   0.79974   0.75284   0.00000  Uiso   1.00
N1253  N     0.65241   0.90293   0.32162   0.00000  Uiso   1.00
N1254  N     0.79988   0.64481   0.74966   0.00000  Uiso   1.00
N1255  N     0.94999   0.89481   0.74787   0.00000  Uiso   1.00
N1256  N     0.89479   0.54986   0.24922   0.00000  Uiso   1.00
N1257  N     0.60313   0.94956   0.74598   0.00000  Uiso   1.00
N1258  N     0.95012   0.89481   0.24955   0.00000  Uiso   1.00
N1259  N     0.59758   0.65296   0.82161   0.00000  Uiso   1.00
N1260  N     0.65292   0.59759   0.82162   0.00000  Uiso   1.00
O1261  O     0.75000   0.50000   0.25000   0.00000  Uiso   1.00
O1262  O     0.75000   0.96964   0.66245   0.00000  Uiso   1.00
O1263  O     0.96963   0.75000   0.33755   0.00000  Uiso   1.00
O1264  O     0.53036   0.75000   0.66245   0.00000  Uiso   1.00
O1265  O     0.50000   0.71964   0.83755   0.00000  Uiso   1.00
O1266  O     0.50000   0.78037   0.16245   0.00000  Uiso   1.00
O1267  O     0.78036   0.50000   0.83755   0.00000  Uiso   1.00
O1268  O     0.71963   0.50000   0.16245   0.00000  Uiso   1.00
O1269  O     0.50000   0.78037   0.83755   0.00000  Uiso   1.00
O1270  O     0.50000   0.71964   0.16245   0.00000  Uiso   1.00
O1271  O     0.71963   0.50000   0.83755   0.00000  Uiso   1.00
O1272  O     0.75000   0.50000   0.75000   0.00000  Uiso   1.00
O1273  O     0.78036   0.50000   0.16245   0.00000  Uiso   1.00
O1274  O     0.70724   0.57308   0.27302   0.00000  Uiso   1.00
O1275  O     0.79275   0.92693   0.72698   0.00000  Uiso   1.00
O1276  O     0.92692   0.70725   0.27302   0.00000  Uiso   1.00
O1277  O     0.57307   0.79276   0.72698   0.00000  Uiso   1.00
O1278  O     0.79275   0.92693   0.27302   0.00000  Uiso   1.00
O1279  O     0.70724   0.57308   0.72698   0.00000  Uiso   1.00
O1280  O     0.57307   0.79276   0.27302   0.00000  Uiso   1.00
O1281  O     0.92692   0.70725   0.72698   0.00000  Uiso   1.00
O1282  O     0.70724   0.92693   0.72698   0.00000  Uiso   1.00
O1283  O     0.50000   0.75000   0.25000   0.00000  Uiso   1.00
O1284  O     0.79275   0.57308   0.27302   0.00000  Uiso   1.00
O1285  O     0.92692   0.79276   0.72698   0.00000  Uiso   1.00
O1286  O     0.57307   0.70725   0.27302   0.00000  Uiso   1.00
O1287  O     0.79275   0.57308   0.72698   0.00000  Uiso   1.00
O1288  O     0.70724   0.92693   0.27302   0.00000  Uiso   1.00
O1289  O     0.57307   0.70725   0.72698   0.00000  Uiso   1.00
O1290  O     0.92692   0.79276   0.27302   0.00000  Uiso   1.00
O1291  O     0.95724   0.82308   0.77302   0.00000  Uiso   1.00
O1292  O     0.54275   0.67693   0.22698   0.00000  Uiso   1.00
O1293  O     0.67692   0.95725   0.77302   0.00000  Uiso   1.00
O1294  O     0.50000   0.75000   0.75000   0.00000  Uiso   1.00
O1295  O     0.82307   0.54276   0.22698   0.00000  Uiso   1.00
O1296  O     0.54275   0.67693   0.77302   0.00000  Uiso   1.00
O1297  O     0.95724   0.82308   0.22698   0.00000  Uiso   1.00
O1298  O     0.82307   0.54276   0.77302   0.00000  Uiso   1.00
O1299  O     0.67692   0.95725   0.22698   0.00000  Uiso   1.00
O1300  O     0.95724   0.67693   0.22698   0.00000  Uiso   1.00
O1301  O     0.54275   0.82308   0.77302   0.00000  Uiso   1.00
O1302  O     0.67692   0.54276   0.22698   0.00000  Uiso   1.00
O1303  O     0.82307   0.95725   0.77302   0.00000  Uiso   1.00
O1304  O     0.54275   0.82308   0.22698   0.00000  Uiso   1.00
O1305  O     0.75000   0.96964   0.33755   0.00000  Uiso   1.00
O1306  O     0.95724   0.67693   0.77302   0.00000  Uiso   1.00
O1307  O     0.82307   0.95725   0.22698   0.00000  Uiso   1.00
O1308  O     0.67692   0.54276   0.77302   0.00000  Uiso   1.00
O1309  O     0.75000   0.53037   0.66245   0.00000  Uiso   1.00
O1310  O     0.53036   0.75000   0.33755   0.00000  Uiso   1.00
O1311  O     0.96963   0.75000   0.66245   0.00000  Uiso   1.00
O1312  O     0.75000   0.53037   0.33755   0.00000  Uiso   1.00
Zn1313 Zn    0.70659   0.50000   0.21735   0.00000  Uiso   1.00
Zn1314 Zn    0.54340   0.75000   0.28265   0.00000  Uiso   1.00
Zn1315 Zn    0.75000   0.95660   0.71735   0.00000  Uiso   1.00
Zn1316 Zn    0.75000   0.54341   0.28265   0.00000  Uiso   1.00
Zn1317 Zn    0.54340   0.75000   0.71735   0.00000  Uiso   1.00
Zn1318 Zn    0.95659   0.75000   0.28265   0.00000  Uiso   1.00
Zn1319 Zn    0.75000   0.54341   0.71735   0.00000  Uiso   1.00
Zn1320 Zn    0.75000   0.95660   0.28265   0.00000  Uiso   1.00
Zn1321 Zn    0.79340   0.50000   0.78265   0.00000  Uiso   1.00
Zn1322 Zn    0.50000   0.70660   0.21735   0.00000  Uiso   1.00
Zn1323 Zn    0.50000   0.79341   0.78265   0.00000  Uiso   1.00
Zn1324 Zn    0.79340   0.50000   0.21735   0.00000  Uiso   1.00
Zn1325 Zn    0.70659   0.50000   0.78265   0.00000  Uiso   1.00
Zn1326 Zn    0.50000   0.79341   0.21735   0.00000  Uiso   1.00
Zn1327 Zn    0.50000   0.70660   0.78265   0.00000  Uiso   1.00
Zn1328 Zn    0.95659   0.75000   0.71735   0.00000  Uiso   1.00
loop_
_geom_bond_atom_site_label_1
_geom_bond_atom_site_label_2
_geom_bond_distance
_geom_bond_site_symmetry_2
_ccdc_geom_bond_type
Br1    C87     1.936   .     S
Br2    C97     1.936   .     S
Br3    C98     1.936   .     S
Br4    C99     1.936   .     S
Br5    C100    1.936   .     S
Br6    C101    1.936   .     S
Br7    C102    1.936   .     S
Br8    C104    1.936   .     S
Br9    C33     1.940   .     S
Br10   C81     1.940   .     S
Br11   C92     1.940   .     S
Br12   C88     1.936   .     S
Br13   C103    1.940   .     S
Br14   C114    1.940   .     S
Br15   C125    1.940   .     S
Br16   C136    1.940   .     S
Br17   C147    1.940   .     S
Br18   C158    1.940   .     S
Br19   C34     1.940   .     S
Br20   C45     1.940   .     S
Br21   C56     1.940   .     S
Br22   C67     1.940   .     S
Br23   C89     1.936   .     S
Br24   C75     1.940   .     S
Br25   C76     1.940   .     S
Br26   C77     1.940   .     S
Br27   C90     1.936   .     S
Br28   C91     1.936   .     S
Br29   C93     1.936   .     S
Br30   C94     1.936   .     S
Br31   C95     1.936   .     S
Br32   C96     1.936   .     S
C33    C36     1.412   .     A
C33    C410    1.399   .     S
C34    C46     1.412   .     A
C34    C748    1.399   .     S
C35    C147    1.412   .     A
C35    C734    1.423   .     S
C35    C754    1.414   .     S
C36    C398    1.422   .     S
C36    C423    1.414   .     S
C37    C81     1.412   .     A
C37    C400    1.422   .     S
C37    C425    1.414   .     S
C38    C92     1.412   .     A
C38    C733    1.423   1_545 S
C38    C758    1.414   1_545 S
C39    C103    1.412   .     A
C39    C70     1.423   .     A
C39    C759    1.414   1_545 S
C40    C71     1.423   .     A
C40    C67     1.412   .     A
C40    C96     1.414   .     A
C41    C97     1.414   .     A
C41    C75     1.412   .     A
C41    C72     1.423   .     A
C42    C73     1.423   .     A
C42    C76     1.412   .     A
C42    C98     1.414   .     A
C43    C99     1.414   .     A
C43    C77     1.412   .     A
C43    C406    1.423   .     S
C44    C100    1.414   .     A
C44    C158    1.412   .     A
C44    C735    1.423   1_545 S
C45    C47     1.412   .     A
C45    C417    1.399   .     S
C46    C101    1.414   .     A
C46    C736    1.422   .     S
C47    C102    1.414   .     A
C47    C405    1.423   .     S
C48    C74     1.423   .     A
C48    C104    1.414   .     A
C48    C56     1.412   .     A
C49    C120    1.455   .     S
C49    C148    1.407   .     A
C49    C150    1.407   .     A
C50    C121    1.455   .     S
C50    C149    1.407   .     A
C50    C146    1.407   .     A
C51    C145    1.407   .     A
C51    C152    1.407   .     A
C51    C113    1.455   .     S
C52    C144    1.408   .     A
C52    C115    1.456   .     S
C52    C151    1.413   .     A
C53    C116    1.455   .     S
C53    C154    1.407   .     A
C53    C143    1.407   .     A
C54    C142    1.405   .     A
C54    C153    1.406   .     A
C54    C117    1.454   .     S
C55    C141    1.407   .     A
C55    C118    1.455   .     S
C55    C156    1.407   .     A
C56    C86     1.399   .     A
C57    C140    1.407   .     A
C57    C155    1.407   .     A
C57    C119    1.455   .     S
C58    C159    1.407   .     A
C58    C129    1.455   .     S
C58    C139    1.407   .     A
C59    C138    1.407   .     A
C59    C157    1.407   .     A
C59    C130    1.455   .     S
C60    C122    1.456   .     S
C60    C137    1.413   .     A
C60    C161    1.407   .     A
C61    C135    1.407   .     A
C61    C160    1.407   .     A
C61    C123    1.455   .     S
C62    C163    1.405   .     A
C62    C124    1.454   .     S
C62    C134    1.406   .     A
C63    C133    1.407   .     A
C63    C126    1.455   .     S
C63    C162    1.407   .     A
C64    C165    1.407   .     A
C64    C132    1.407   .     A
C64    C127    1.455   .     S
C65    C128    1.455   .     S
C65    C131    1.407   .     A
C65    C164    1.407   .     A
C66    C68     1.414   .     A
C66    C166    1.423   .     A
C66    C368    1.422   1_455 S
C67    C83     1.399   .     A
C68    C167    1.423   .     A
C68    C369    1.422   1_455 S
C69    C168    1.423   .     A
C69    C702    1.423   .     S
C69    C734    1.414   .     S
C70    C699    1.423   1_545 S
C70    C733    1.414   1_545 S
C71    C708    1.423   .     S
C71    C736    1.414   1_556 S
C72    C710    1.422   1_545 S
C72    C735    1.414   1_544 S
C73    C379    1.423   1_455 S
C73    C74     1.414   1_556 S
C74    C375    1.423   1_455 S
C74    C73     1.414   1_554 S
C75    C84     1.399   .     A
C76    C85     1.399   .     A
C77    C418    1.399   .     S
C78    C114    1.399   .     A
C78    C365    1.399   1_455 S
C78    C107    1.453   .     S
C79    C108    1.453   .     S
C79    C125    1.399   .     A
C79    C413    1.399   1_455 S
C80    C136    1.399   .     A
C80    C769    1.453   .     S
C80    C756    1.399   .     S
C81    C411    1.399   .     S
C82    C106    1.453   .     S
C82    C103    1.399   .     A
C82    C811    1.399   1_545 S
C83    C111    1.453   .     S
C83    C822    1.399   .     S
C84    C112    1.453   .     S
C84    C698    1.399   1_545 S
C85    C109    1.453   .     S
C85    C377    1.399   1_455 S
C86    C110    1.453   .     S
C86    C409    1.399   1_455 S
C87    C425    1.398   .     S
C87    C498    1.414   .     S
C88    C423    1.398   .     S
C88    C499    1.414   .     S
C89    C759    1.398   1_545 S
C89    C832    1.414   1_545 S
C90    C699    1.414   1_545 S
C90    C758    1.398   1_545 S
C91    C368    1.414   1_455 S
C91    C420    1.398   1_455 S
C92    C744    1.399   1_545 S
C93    C369    1.414   1_455 S
C93    C419    1.398   1_455 S
C94    C702    1.414   .     S
C94    C754    1.398   .     S
C95    C703    1.414   .     S
C95    C753    1.398   .     S
C96    C101    1.398   1_556 S
C97    C100    1.398   1_554 S
C98    C104    1.398   1_556 S
C99    C102    1.398   1_554 S
C100   C97     1.398   1_556 S
C101   C96     1.398   1_554 S
C102   C99     1.398   1_556 S
C104   C98     1.398   1_554 S
C105   O973    1.277   1_545 A
C105   C744    1.453   1_545 S
C105   O316    1.277   .     S
C106   O313    1.277   .     A
C106   O930    1.277   1_545 S
C107   O599    1.277   1_455 A
C107   O314    1.277   .     S
C108   O268    1.277   .     A
C108   O647    1.277   1_455 S
C109   O269    1.277   .     A
C109   O273    1.277   .     A
C110   O274    1.277   .     A
C110   O270    1.277   .     A
C111   O935    1.277   .     S
C111   O939    1.277   .     S
C112   O272    1.277   .     S
C112   O277    1.277   .     S
C113   O306    1.279   .     A
C113   O278    1.279   .     A
C114   C166    1.412   .     A
C115   O307    1.281   .     A
C115   O279    1.278   .     A
C116   O304    1.279   .     A
C116   O280    1.279   .     A
C117   O305    1.279   .     A
C117   O281    1.278   .     A
C118   O282    1.279   .     A
C118   O311    1.279   .     A
C119   O283    1.279   .     A
C119   O312    1.279   .     A
C120   O284    1.279   .     A
C120   O308    1.279   .     A
C121   O310    1.279   .     A
C121   O285    1.279   .     A
C122   O297    1.278   .     A
C122   O286    1.280   .     A
C123   O299    1.279   .     A
C123   O288    1.279   .     A
C124   O295    1.278   .     A
C124   O289    1.279   .     A
C125   C167    1.412   .     A
C126   O296    1.279   .     A
C126   O290    1.279   .     A
C127   O302    1.279   .     A
C127   O291    1.279   .     A
C128   O303    1.279   .     A
C128   O292    1.279   .     A
C129   O293    1.279   .     A
C129   O300    1.279   .     A
C130   O301    1.279   .     A
C130   O294    1.279   .     A
C131   N233    1.437   .     S
C131   C148    1.403   .     A
C132   N244    1.437   .     S
C132   C146    1.403   .     A
C133   C145    1.403   .     A
C133   N255    1.437   .     S
C134   C144    1.404   .     A
C134   N259    1.437   .     S
C135   N260    1.437   .     S
C135   C143    1.403   .     A
C136   C168    1.412   .     A
C137   C142    1.397   .     A
C137   N261    1.436   .     S
C138   C141    1.403   .     A
C138   N262    1.436   .     S
C139   C140    1.403   .     A
C139   N263    1.437   .     S
C140   N264    1.437   .     S
C141   N234    1.437   .     S
C142   N235    1.436   .     S
C143   N236    1.437   .     S
C144   N237    1.437   .     S
C145   N238    1.436   .     S
C146   N239    1.436   .     S
C147   C746    1.399   .     S
C148   N240    1.437   .     S
C149   C165    1.403   .     A
C149   N241    1.437   .     S
C150   C164    1.403   .     A
C150   N242    1.437   .     S
C151   N243    1.436   .     S
C151   C163    1.397   .     A
C152   N245    1.437   .     S
C152   C162    1.403   .     A
C153   C161    1.404   .     A
C153   N246    1.436   .     S
C154   N247    1.437   .     S
C154   C160    1.403   .     A
C155   C159    1.403   .     A
C155   N248    1.437   .     S
C156   N249    1.436   .     S
C156   C157    1.403   .     A
C157   N250    1.437   .     S
C158   C747    1.399   1_545 S
C159   N251    1.437   .     S
C160   N252    1.437   .     S
C161   N253    1.437   .     S
C162   N254    1.436   .     S
C163   N256    1.436   .     S
C164   N257    1.437   .     S
C165   N258    1.436   .     S
C166   C419    1.414   1_455 S
C167   C420    1.414   1_455 S
C168   C753    1.414   .     S
H169   N233    1.045   .     S
H170   N260    1.045   .     S
H171   N261    1.044   .     S
H172   N261    1.046   .     S
H173   N262    1.045   .     S
H174   N262    1.045   .     S
H175   N263    1.045   .     S
H176   N263    1.045   .     S
H177   N264    1.045   .     S
H178   N264    1.045   .     S
H179   N234    1.045   .     S
H180   N233    1.045   .     S
H181   N234    1.045   .     S
H182   N235    1.046   .     S
H183   N235    1.046   .     S
H184   N236    1.045   .     S
H185   N236    1.045   .     S
H186   N237    1.045   .     S
H187   N237    1.045   .     S
H188   N238    1.045   .     S
H189   N238    1.045   .     S
H190   N239    1.045   .     S
H191   N244    1.045   .     S
H192   N239    1.045   .     S
H193   N240    1.045   .     S
H194   N240    1.045   .     S
H195   N241    1.045   .     S
H196   N241    1.045   .     S
H197   N242    1.045   .     S
H198   N242    1.045   .     S
H199   N243    1.044   .     S
H200   N243    1.046   .     S
H201   N245    1.045   .     S
H202   N244    1.045   .     S
H203   N245    1.045   .     S
H204   N246    1.045   .     S
H205   N246    1.045   .     S
H206   N247    1.045   .     S
H207   N247    1.045   .     S
H208   N248    1.045   .     S
H209   N248    1.045   .     S
H210   N249    1.045   .     S
H211   N249    1.045   .     S
H212   N250    1.045   .     S
H213   N255    1.045   .     S
H214   N250    1.045   .     S
H215   N251    1.045   .     S
H216   N251    1.045   .     S
H217   N252    1.045   .     S
H218   N252    1.045   .     S
H219   N253    1.045   .     S
H220   N253    1.045   .     S
H221   N254    1.045   .     S
H222   N254    1.045   .     S
H223   N256    1.046   .     S
H224   N255    1.045   .     S
H225   N256    1.046   .     S
H226   N257    1.045   .     S
H227   N257    1.045   .     S
H228   N258    1.045   .     S
H229   N258    1.045   .     S
H230   N259    1.045   .     S
H231   N259    1.045   .     S
H232   N260    1.045   .     S
O265   Zn320   1.946   .     S
O265   Zn328   1.946   .     S
O265   Zn317   1.946   .     S
O265   Zn988   1.946   1_545 S
O266   Zn319   1.945   .     S
O266   C770    1.277   .     S
O267   Zn322   1.945   .     S
O267   C439    1.277   .     A
O268   Zn321   1.945   .     S
O269   Zn331   1.945   .     S
O270   Zn330   1.945   .     S
O271   Zn325   1.945   .     S
O271   C775    1.277   1_545 S
O272   Zn317   1.945   .     S
O273   Zn327   1.945   .     S
O274   Zn326   1.945   .     S
O275   Zn329   1.945   .     S
O275   C775    1.277   1_545 S
O276   Zn323   1.946   .     S
O276   Zn325   1.946   .     S
O276   Zn329   1.946   .     S
O276   Zn983   1.946   1_545 S
O277   Zn328   1.945   .     S
O278   Zn320   1.936   .     S
O279   Zn319   1.936   .     S
O280   Zn322   1.936   .     S
O281   Zn321   1.936   .     S
O282   Zn324   1.935   .     S
O283   Zn323   1.935   .     S
O284   Zn318   1.935   .     S
O285   Zn332   1.935   .     S
O286   Zn319   1.935   .     S
O287   Zn326   1.946   .     S
O287   Zn318   1.946   .     S
O287   Zn330   1.946   .     S
O287   Zn654   1.946   1_455 S
O288   Zn320   1.935   .     S
O289   Zn332   1.935   .     S
O290   Zn318   1.935   .     S
O291   Zn323   1.936   .     S
O292   Zn324   1.936   .     S
O293   Zn321   1.936   .     S
O294   Zn322   1.936   .     S
O295   Zn659   1.936   .     S
O296   Zn326   1.936   .     S
O297   Zn993   1.936   .     S
O298   Zn321   1.946   .     S
O298   Zn327   1.946   .     S
O298   Zn331   1.946   .     S
O298   Zn664   1.946   1_455 S
O299   Zn328   1.936   .     S
O300   Zn331   1.935   .     S
O301   Zn662   1.935   .     S
O302   Zn325   1.935   .     S
O303   Zn981   1.935   .     S
O304   Zn658   1.935   .     S
O305   Zn327   1.935   .     S
O306   Zn317   1.935   .     S
O307   Zn989   1.935   .     S
O308   Zn330   1.936   .     S
O309   C769    1.277   .     A
O309   Zn324   1.945   .     S
O310   Zn663   1.936   .     S
O311   Zn992   1.936   .     S
O312   Zn329   1.936   .     S
O313   Zn323   1.945   .     S
O314   Zn318   1.945   .     S
O315   Zn332   1.945   .     S
O315   C440    1.277   .     S
O316   Zn320   1.945   .     S
Zn317  O967    1.935   1_545 S
Zn319  O940    1.946   .     S
Zn322  O619    1.946   .     S
Zn324  O929    1.946   .     S
Zn325  O971    1.935   1_545 S
Zn326  O636    1.935   1_455 S
Zn327  O627    1.936   1_455 S
Zn328  O975    1.936   1_545 S
Zn329  O961    1.936   1_545 S
Zn330  O633    1.935   1_455 S
Zn331  O642    1.936   1_455 S
Zn332  O630    1.946   .     S
Br333  C419    1.936   .     S
Br334  C429    1.936   .     S
Br335  C430    1.936   .     S
Br336  C431    1.936   .     S
Br337  C432    1.936   .     S
Br338  C433    1.936   .     S
Br339  C434    1.936   .     S
Br340  C436    1.936   .     S
Br341  C365    1.940   .     S
Br342  C413    1.940   .     S
Br343  C424    1.940   .     S
Br344  C420    1.936   .     S
Br345  C435    1.940   .     S
Br346  C446    1.940   .     S
Br347  C457    1.940   .     S
Br348  C468    1.940   .     S
Br349  C479    1.940   .     S
Br350  C490    1.940   .     S
Br351  C366    1.940   .     S
Br352  C377    1.940   .     S
Br353  C388    1.940   .     S
Br354  C399    1.940   .     S
Br355  C421    1.936   .     S
Br356  C407    1.940   .     S
Br357  C408    1.940   .     S
Br358  C409    1.940   .     S
Br359  C422    1.936   .     S
Br360  C423    1.936   .     S
Br361  C425    1.936   .     S
Br362  C426    1.936   .     S
Br363  C427    1.936   .     S
Br364  C428    1.936   .     S
C365   C368    1.412   .     A
C365   C78     1.399   1_655 S
C366   C378    1.412   .     A
C366   C1080   1.399   .     S
C367   C479    1.412   .     A
C367   C1066   1.423   .     S
C367   C1086   1.414   .     S
C368   C66     1.422   1_655 S
C368   C91     1.414   1_655 S
C369   C413    1.412   .     A
C369   C68     1.422   1_655 S
C369   C93     1.414   1_655 S
C370   C424    1.412   .     A
C370   C1065   1.423   1_545 S
C370   C1090   1.414   1_545 S
C371   C435    1.412   .     A
C371   C402    1.423   .     A
C371   C1091   1.414   1_545 S
C372   C403    1.423   .     A
C372   C399    1.412   .     A
C372   C428    1.414   .     A
C373   C429    1.414   .     A
C373   C407    1.412   .     A
C373   C404    1.423   .     A
C374   C405    1.423   .     A
C374   C408    1.412   .     A
C374   C430    1.414   .     A
C375   C431    1.414   .     A
C375   C409    1.412   .     A
C375   C74     1.423   1_655 S
C376   C432    1.414   .     A
C376   C490    1.412   .     A
C376   C1067   1.423   1_545 S
C377   C379    1.412   .     A
C377   C85     1.399   1_655 S
C378   C433    1.414   .     A
C378   C1068   1.422   .     S
C379   C434    1.414   .     A
C379   C73     1.423   1_655 S
C380   C406    1.423   .     A
C380   C436    1.414   .     A
C380   C388    1.412   .     A
C381   C452    1.455   .     S
C381   C480    1.407   .     A
C381   C482    1.407   .     A
C382   C453    1.455   .     S
C382   C481    1.407   .     A
C382   C478    1.407   .     A
C383   C477    1.407   .     A
C383   C484    1.407   .     A
C383   C445    1.455   .     S
C384   C476    1.408   .     A
C384   C447    1.456   .     S
C384   C483    1.413   .     A
C385   C448    1.455   .     S
C385   C486    1.407   .     A
C385   C475    1.407   .     A
C386   C474    1.405   .     A
C386   C485    1.406   .     A
C386   C449    1.454   .     S
C387   C473    1.407   .     A
C387   C450    1.455   .     S
C387   C488    1.407   .     A
C388   C418    1.399   .     A
C389   C472    1.407   .     A
C389   C487    1.407   .     A
C389   C451    1.455   .     S
C390   C491    1.407   .     A
C390   C461    1.455   .     S
C390   C471    1.407   .     A
C391   C470    1.407   .     A
C391   C489    1.407   .     A
C391   C462    1.455   .     S
C392   C454    1.456   .     S
C392   C469    1.413   .     A
C392   C493    1.407   .     A
C393   C467    1.407   .     A
C393   C492    1.407   .     A
C393   C455    1.455   .     S
C394   C495    1.405   .     A
C394   C456    1.454   .     S
C394   C466    1.406   .     A
C395   C465    1.407   .     A
C395   C458    1.455   .     S
C395   C494    1.407   .     A
C396   C497    1.407   .     A
C396   C464    1.407   .     A
C396   C459    1.455   .     S
C397   C460    1.455   .     S
C397   C463    1.407   .     A
C397   C496    1.407   .     A
C398   C400    1.414   .     A
C398   C498    1.423   .     A
C399   C415    1.399   .     A
C400   C499    1.423   .     A
C401   C500    1.423   .     A
C401   C1034   1.423   .     S
C401   C1066   1.414   .     S
C402   C1031   1.423   1_545 S
C402   C1065   1.414   1_545 S
C403   C1040   1.423   .     S
C403   C1068   1.414   1_556 S
C404   C1042   1.422   1_545 S
C404   C1067   1.414   1_544 S
C405   C406    1.414   1_556 S
C406   C405    1.414   1_554 S
C407   C416    1.399   .     A
C408   C417    1.399   .     A
C409   C86     1.399   1_655 S
C410   C446    1.399   .     A
C410   C439    1.453   .     S
C411   C440    1.453   .     S
C411   C457    1.399   .     A
C412   C468    1.399   .     A
C412   C1101   1.453   .     S
C412   C1088   1.399   .     S
C413   C79     1.399   1_655 S
C414   C438    1.453   .     S
C414   C435    1.399   .     A
C414   C1143   1.399   1_545 S
C415   C443    1.453   .     S
C415   C1154   1.399   .     S
C416   C444    1.453   .     S
C416   C1030   1.399   1_545 S
C417   C441    1.453   .     S
C418   C442    1.453   .     S
C419   C93     1.398   1_655 S
C419   C166    1.414   1_655 S
C420   C91     1.398   1_655 S
C420   C167    1.414   1_655 S
C421   C1091   1.398   1_545 S
C421   C1164   1.414   1_545 S
C422   C1031   1.414   1_545 S
C422   C1090   1.398   1_545 S
C424   C1076   1.399   1_545 S
C426   C1034   1.414   .     S
C426   C1086   1.398   .     S
C427   C1035   1.414   .     S
C427   C1085   1.398   .     S
C428   C433    1.398   1_556 S
C429   C432    1.398   1_554 S
C430   C436    1.398   1_556 S
C431   C434    1.398   1_554 S
C432   C429    1.398   1_556 S
C433   C428    1.398   1_554 S
C434   C431    1.398   1_556 S
C436   C430    1.398   1_554 S
C437   O1305   1.277   1_545 A
C437   C1076   1.453   1_545 S
C437   O648    1.277   .     S
C438   O645    1.277   .     A
C438   O1262   1.277   1_545 S
C439   O646    1.277   .     S
C440   O600    1.277   .     A
C441   O601    1.277   .     A
C441   O605    1.277   .     A
C442   O606    1.277   .     A
C442   O602    1.277   .     A
C443   O1267   1.277   .     S
C443   O1271   1.277   .     S
C444   O604    1.277   .     S
C444   O609    1.277   .     S
C445   O638    1.279   .     A
C445   O610    1.279   .     A
C446   C498    1.412   .     A
C447   O639    1.281   .     A
C447   O611    1.278   .     A
C448   O636    1.279   .     A
C448   O612    1.279   .     A
C449   O637    1.279   .     A
C449   O613    1.278   .     A
C450   O614    1.279   .     A
C450   O643    1.279   .     A
C451   O615    1.279   .     A
C451   O644    1.279   .     A
C452   O616    1.279   .     A
C452   O640    1.279   .     A
C453   O642    1.279   .     A
C453   O617    1.279   .     A
C454   O629    1.278   .     A
C454   O618    1.280   .     A
C455   O631    1.279   .     A
C455   O620    1.279   .     A
C456   O627    1.278   .     A
C456   O621    1.279   .     A
C457   C499    1.412   .     A
C458   O628    1.279   .     A
C458   O622    1.279   .     A
C459   O634    1.279   .     A
C459   O623    1.279   .     A
C460   O635    1.279   .     A
C460   O624    1.279   .     A
C461   O625    1.279   .     A
C461   O632    1.279   .     A
C462   O633    1.279   .     A
C462   O626    1.279   .     A
C463   N565    1.437   .     S
C463   C480    1.403   .     A
C464   N576    1.437   .     S
C464   C478    1.403   .     A
C465   C477    1.403   .     A
C465   N587    1.437   .     S
C466   C476    1.404   .     A
C466   N591    1.437   .     S
C467   N592    1.437   .     S
C467   C475    1.403   .     A
C468   C500    1.412   .     A
C469   C474    1.397   .     A
C469   N593    1.436   .     S
C470   C473    1.403   .     A
C470   N594    1.436   .     S
C471   C472    1.403   .     A
C471   N595    1.437   .     S
C472   N596    1.437   .     S
C473   N566    1.437   .     S
C474   N567    1.436   .     S
C475   N568    1.437   .     S
C476   N569    1.437   .     S
C477   N570    1.436   .     S
C478   N571    1.436   .     S
C479   C1078   1.399   .     S
C480   N572    1.437   .     S
C481   C497    1.403   .     A
C481   N573    1.437   .     S
C482   C496    1.403   .     A
C482   N574    1.437   .     S
C483   N575    1.436   .     S
C483   C495    1.397   .     A
C484   N577    1.437   .     S
C484   C494    1.403   .     A
C485   C493    1.404   .     A
C485   N578    1.436   .     S
C486   N579    1.437   .     S
C486   C492    1.403   .     A
C487   C491    1.403   .     A
C487   N580    1.437   .     S
C488   N581    1.436   .     S
C488   C489    1.403   .     A
C489   N582    1.437   .     S
C490   C1079   1.399   1_545 S
C491   N583    1.437   .     S
C492   N584    1.437   .     S
C493   N585    1.437   .     S
C494   N586    1.436   .     S
C495   N588    1.436   .     S
C496   N589    1.437   .     S
C497   N590    1.436   .     S
C500   C1085   1.414   .     S
H501   N565    1.045   .     S
H502   N592    1.045   .     S
H503   N593    1.044   .     S
H504   N593    1.046   .     S
H505   N594    1.045   .     S
H506   N594    1.045   .     S
H507   N595    1.045   .     S
H508   N595    1.045   .     S
H509   N596    1.045   .     S
H510   N596    1.045   .     S
H511   N566    1.045   .     S
H512   N565    1.045   .     S
H513   N566    1.045   .     S
H514   N567    1.046   .     S
H515   N567    1.046   .     S
H516   N568    1.045   .     S
H517   N568    1.045   .     S
H518   N569    1.045   .     S
H519   N569    1.045   .     S
H520   N570    1.045   .     S
H521   N570    1.045   .     S
H522   N571    1.045   .     S
H523   N576    1.045   .     S
H524   N571    1.045   .     S
H525   N572    1.045   .     S
H526   N572    1.045   .     S
H527   N573    1.045   .     S
H528   N573    1.045   .     S
H529   N574    1.045   .     S
H530   N574    1.045   .     S
H531   N575    1.044   .     S
H532   N575    1.046   .     S
H533   N577    1.045   .     S
H534   N576    1.045   .     S
H535   N577    1.045   .     S
H536   N578    1.045   .     S
H537   N578    1.045   .     S
H538   N579    1.045   .     S
H539   N579    1.045   .     S
H540   N580    1.045   .     S
H541   N580    1.045   .     S
H542   N581    1.045   .     S
H543   N581    1.045   .     S
H544   N582    1.045   .     S
H545   N587    1.045   .     S
H546   N582    1.045   .     S
H547   N583    1.045   .     S
H548   N583    1.045   .     S
H549   N584    1.045   .     S
H550   N584    1.045   .     S
H551   N585    1.045   .     S
H552   N585    1.045   .     S
H553   N586    1.045   .     S
H554   N586    1.045   .     S
H555   N588    1.046   .     S
H556   N587    1.045   .     S
H557   N588    1.046   .     S
H558   N589    1.045   .     S
H559   N589    1.045   .     S
H560   N590    1.045   .     S
H561   N590    1.045   .     S
H562   N591    1.045   .     S
H563   N591    1.045   .     S
H564   N592    1.045   .     S
O597   Zn652   1.946   .     S
O597   Zn660   1.946   .     S
O597   Zn649   1.946   .     S
O597   Zn1320  1.946   1_545 S
O598   Zn651   1.945   .     S
O598   C1102   1.277   .     S
O599   Zn654   1.945   .     S
O599   C107    1.277   1_655 A
O600   Zn653   1.945   .     S
O601   Zn663   1.945   .     S
O602   Zn662   1.945   .     S
O603   Zn657   1.945   .     S
O603   C1107   1.277   1_545 S
O604   Zn649   1.945   .     S
O605   Zn659   1.945   .     S
O606   Zn658   1.945   .     S
O607   Zn661   1.945   .     S
O607   C1107   1.277   1_545 S
O608   Zn655   1.946   .     S
O608   Zn657   1.946   .     S
O608   Zn661   1.946   .     S
O608   Zn1315  1.946   1_545 S
O609   Zn660   1.945   .     S
O610   Zn652   1.936   .     S
O611   Zn651   1.936   .     S
O612   Zn654   1.936   .     S
O613   Zn653   1.936   .     S
O614   Zn656   1.935   .     S
O615   Zn655   1.935   .     S
O616   Zn650   1.935   .     S
O617   Zn664   1.935   .     S
O618   Zn651   1.935   .     S
O619   Zn658   1.946   .     S
O619   Zn650   1.946   .     S
O619   Zn662   1.946   .     S
O620   Zn652   1.935   .     S
O621   Zn664   1.935   .     S
O622   Zn650   1.935   .     S
O623   Zn655   1.936   .     S
O624   Zn656   1.936   .     S
O625   Zn653   1.936   .     S
O626   Zn654   1.936   .     S
O627   Zn327   1.936   1_655 S
O628   Zn658   1.936   .     S
O629   Zn1325  1.936   .     S
O630   Zn653   1.946   .     S
O630   Zn659   1.946   .     S
O630   Zn663   1.946   .     S
O631   Zn660   1.936   .     S
O632   Zn663   1.935   .     S
O633   Zn330   1.935   1_655 S
O634   Zn657   1.935   .     S
O635   Zn1313  1.935   .     S
O636   Zn326   1.935   1_655 S
O637   Zn659   1.935   .     S
O638   Zn649   1.935   .     S
O639   Zn1321  1.935   .     S
O640   Zn662   1.936   .     S
O641   C1101   1.277   .     A
O641   Zn656   1.945   .     S
O642   Zn331   1.936   1_655 S
O643   Zn1324  1.936   .     S
O644   Zn661   1.936   .     S
O645   Zn655   1.945   .     S
O646   Zn650   1.945   .     S
O647   Zn664   1.945   .     S
O647   C108    1.277   1_655 S
O648   Zn652   1.945   .     S
Zn649  O1299   1.935   1_545 S
Zn651  O1272   1.946   .     S
Zn654  O287    1.946   1_655 S
Zn656  O1261   1.946   .     S
Zn657  O1303   1.935   1_545 S
Zn660  O1307   1.936   1_545 S
Zn661  O1293   1.936   1_545 S
Zn664  O298    1.946   1_655 S
Br665  C751    1.936   .     S
Br666  C761    1.936   .     S
Br667  C762    1.936   .     S
Br668  C763    1.936   .     S
Br669  C764    1.936   .     S
Br670  C765    1.936   .     S
Br671  C766    1.936   .     S
Br672  C768    1.936   .     S
Br673  C697    1.940   .     S
Br674  C745    1.940   .     S
Br675  C756    1.940   .     S
Br676  C752    1.936   .     S
Br677  C767    1.940   .     S
Br678  C778    1.940   .     S
Br679  C789    1.940   .     S
Br680  C800    1.940   .     S
Br681  C811    1.940   .     S
Br682  C822    1.940   .     S
Br683  C698    1.940   .     S
Br684  C709    1.940   .     S
Br685  C720    1.940   .     S
Br686  C731    1.940   .     S
Br687  C753    1.936   .     S
Br688  C739    1.940   .     S
Br689  C740    1.940   .     S
Br690  C741    1.940   .     S
Br691  C754    1.936   .     S
Br692  C755    1.936   .     S
Br693  C757    1.936   .     S
Br694  C758    1.936   .     S
Br695  C759    1.936   .     S
Br696  C760    1.936   .     S
C697   C700    1.412   .     A
C697   C1074   1.399   .     S
C698   C710    1.412   .     A
C698   C84     1.399   1_565 S
C699   C811    1.412   .     A
C699   C70     1.423   1_565 S
C699   C90     1.414   1_565 S
C700   C1062   1.422   .     S
C700   C1087   1.414   .     S
C701   C745    1.412   .     A
C701   C1064   1.422   .     S
C701   C1089   1.414   .     S
C702   C756    1.412   .     A
C703   C767    1.412   .     A
C703   C734    1.423   .     A
C704   C735    1.423   .     A
C704   C731    1.412   .     A
C704   C760    1.414   .     A
C705   C761    1.414   .     A
C705   C739    1.412   .     A
C705   C736    1.423   .     A
C706   C737    1.423   .     A
C706   C740    1.412   .     A
C706   C762    1.414   .     A
C707   C763    1.414   .     A
C707   C741    1.412   .     A
C707   C1070   1.423   .     S
C708   C764    1.414   .     A
C708   C822    1.412   .     A
C709   C711    1.412   .     A
C709   C1081   1.399   .     S
C710   C765    1.414   .     A
C710   C72     1.422   1_565 S
C711   C766    1.414   .     A
C711   C1069   1.423   .     S
C712   C738    1.423   .     A
C712   C768    1.414   .     A
C712   C720    1.412   .     A
C713   C784    1.455   .     S
C713   C812    1.407   .     A
C713   C814    1.407   .     A
C714   C785    1.455   .     S
C714   C813    1.407   .     A
C714   C810    1.407   .     A
C715   C809    1.407   .     A
C715   C816    1.407   .     A
C715   C777    1.455   .     S
C716   C808    1.408   .     A
C716   C779    1.456   .     S
C716   C815    1.413   .     A
C717   C780    1.455   .     S
C717   C818    1.407   .     A
C717   C807    1.407   .     A
C718   C806    1.405   .     A
C718   C817    1.406   .     A
C718   C781    1.454   .     S
C719   C805    1.407   .     A
C719   C782    1.455   .     S
C719   C820    1.407   .     A
C720   C750    1.399   .     A
C721   C804    1.407   .     A
C721   C819    1.407   .     A
C721   C783    1.455   .     S
C722   C823    1.407   .     A
C722   C793    1.455   .     S
C722   C803    1.407   .     A
C723   C802    1.407   .     A
C723   C821    1.407   .     A
C723   C794    1.455   .     S
C724   C786    1.456   .     S
C724   C801    1.413   .     A
C724   C825    1.407   .     A
C725   C799    1.407   .     A
C725   C824    1.407   .     A
C725   C787    1.455   .     S
C726   C827    1.405   .     A
C726   C788    1.454   .     S
C726   C798    1.406   .     A
C727   C797    1.407   .     A
C727   C790    1.455   .     S
C727   C826    1.407   .     A
C728   C829    1.407   .     A
C728   C796    1.407   .     A
C728   C791    1.455   .     S
C729   C792    1.455   .     S
C729   C795    1.407   .     A
C729   C828    1.407   .     A
C730   C732    1.414   .     A
C730   C830    1.423   .     A
C730   C1032   1.422   1_455 S
C731   C747    1.399   .     A
C732   C831    1.423   .     A
C732   C1033   1.422   1_455 S
C733   C832    1.423   .     A
C733   C38     1.423   1_565 S
C733   C70     1.414   1_565 S
C735   C44     1.423   1_565 S
C735   C72     1.414   1_566 S
C736   C71     1.414   1_554 S
C737   C1043   1.423   1_455 S
C737   C738    1.414   1_556 S
C738   C1039   1.423   1_455 S
C738   C737    1.414   1_554 S
C739   C748    1.399   .     A
C740   C749    1.399   .     A
C741   C1082   1.399   .     S
C742   C778    1.399   .     A
C742   C1029   1.399   1_455 S
C742   C771    1.453   .     S
C743   C772    1.453   .     S
C743   C789    1.399   .     A
C743   C1077   1.399   1_455 S
C744   C800    1.399   .     A
C744   C105    1.453   1_565 S
C744   C92     1.399   1_565 S
C745   C1075   1.399   .     S
C746   C770    1.453   .     S
C746   C767    1.399   .     A
C747   C775    1.453   .     S
C747   C158    1.399   1_565 S
C748   C776    1.453   .     S
C749   C773    1.453   .     S
C749   C1041   1.399   1_455 S
C750   C774    1.453   .     S
C750   C1073   1.399   1_455 S
C751   C1089   1.398   .     S
C751   C1162   1.414   .     S
C752   C1087   1.398   .     S
C752   C1163   1.414   .     S
C755   C1032   1.414   1_455 S
C755   C1084   1.398   1_455 S
C757   C1033   1.414   1_455 S
C757   C1083   1.398   1_455 S
C758   C38     1.414   1_565 S
C758   C90     1.398   1_565 S
C759   C39     1.414   1_565 S
C759   C89     1.398   1_565 S
C760   C765    1.398   1_556 S
C761   C764    1.398   1_554 S
C762   C768    1.398   1_556 S
C763   C766    1.398   1_554 S
C764   C761    1.398   1_556 S
C765   C760    1.398   1_554 S
C766   C763    1.398   1_556 S
C768   C762    1.398   1_554 S
C769   O980    1.277   .     S
C770   O977    1.277   .     A
C771   O1263   1.277   1_455 A
C771   O978    1.277   .     S
C772   O932    1.277   .     A
C772   O1311   1.277   1_455 S
C773   O933    1.277   .     A
C773   O937    1.277   .     A
C774   O938    1.277   .     A
C774   O934    1.277   .     A
C775   O271    1.277   1_565 S
C775   O275    1.277   1_565 S
C776   O936    1.277   .     S
C776   O941    1.277   .     S
C777   O970    1.279   .     A
C777   O942    1.279   .     A
C778   C830    1.412   .     A
C779   O971    1.281   .     A
C779   O943    1.278   .     A
C780   O968    1.279   .     A
C780   O944    1.279   .     A
C781   O969    1.279   .     A
C781   O945    1.278   .     A
C782   O946    1.279   .     A
C782   O975    1.279   .     A
C783   O947    1.279   .     A
C783   O976    1.279   .     A
C784   O948    1.279   .     A
C784   O972    1.279   .     A
C785   O974    1.279   .     A
C785   O949    1.279   .     A
C786   O961    1.278   .     A
C786   O950    1.280   .     A
C787   O963    1.279   .     A
C787   O952    1.279   .     A
C788   O959    1.278   .     A
C788   O953    1.279   .     A
C789   C831    1.412   .     A
C790   O960    1.279   .     A
C790   O954    1.279   .     A
C791   O966    1.279   .     A
C791   O955    1.279   .     A
C792   O967    1.279   .     A
C792   O956    1.279   .     A
C793   O957    1.279   .     A
C793   O964    1.279   .     A
C794   O965    1.279   .     A
C794   O958    1.279   .     A
C795   N897    1.437   .     S
C795   C812    1.403   .     A
C796   N908    1.437   .     S
C796   C810    1.403   .     A
C797   C809    1.403   .     A
C797   N919    1.437   .     S
C798   C808    1.404   .     A
C798   N923    1.437   .     S
C799   N924    1.437   .     S
C799   C807    1.403   .     A
C800   C832    1.412   .     A
C801   C806    1.397   .     A
C801   N925    1.436   .     S
C802   C805    1.403   .     A
C802   N926    1.436   .     S
C803   C804    1.403   .     A
C803   N927    1.437   .     S
C804   N928    1.437   .     S
C805   N898    1.437   .     S
C806   N899    1.436   .     S
C807   N900    1.437   .     S
C808   N901    1.437   .     S
C809   N902    1.436   .     S
C810   N903    1.436   .     S
C811   C82     1.399   1_565 S
C812   N904    1.437   .     S
C813   C829    1.403   .     A
C813   N905    1.437   .     S
C814   C828    1.403   .     A
C814   N906    1.437   .     S
C815   N907    1.436   .     S
C815   C827    1.397   .     A
C816   N909    1.437   .     S
C816   C826    1.403   .     A
C817   C825    1.404   .     A
C817   N910    1.436   .     S
C818   N911    1.437   .     S
C818   C824    1.403   .     A
C819   C823    1.403   .     A
C819   N912    1.437   .     S
C820   N913    1.436   .     S
C820   C821    1.403   .     A
C821   N914    1.437   .     S
C823   N915    1.437   .     S
C824   N916    1.437   .     S
C825   N917    1.437   .     S
C826   N918    1.436   .     S
C827   N920    1.436   .     S
C828   N921    1.437   .     S
C829   N922    1.436   .     S
C830   C1083   1.414   1_455 S
C831   C1084   1.414   1_455 S
C832   C89     1.414   1_565 S
H833   N897    1.045   .     S
H834   N924    1.045   .     S
H835   N925    1.044   .     S
H836   N925    1.046   .     S
H837   N926    1.045   .     S
H838   N926    1.045   .     S
H839   N927    1.045   .     S
H840   N927    1.045   .     S
H841   N928    1.045   .     S
H842   N928    1.045   .     S
H843   N898    1.045   .     S
H844   N897    1.045   .     S
H845   N898    1.045   .     S
H846   N899    1.046   .     S
H847   N899    1.046   .     S
H848   N900    1.045   .     S
H849   N900    1.045   .     S
H850   N901    1.045   .     S
H851   N901    1.045   .     S
H852   N902    1.045   .     S
H853   N902    1.045   .     S
H854   N903    1.045   .     S
H855   N908    1.045   .     S
H856   N903    1.045   .     S
H857   N904    1.045   .     S
H858   N904    1.045   .     S
H859   N905    1.045   .     S
H860   N905    1.045   .     S
H861   N906    1.045   .     S
H862   N906    1.045   .     S
H863   N907    1.044   .     S
H864   N907    1.046   .     S
H865   N909    1.045   .     S
H866   N908    1.045   .     S
H867   N909    1.045   .     S
H868   N910    1.045   .     S
H869   N910    1.045   .     S
H870   N911    1.045   .     S
H871   N911    1.045   .     S
H872   N912    1.045   .     S
H873   N912    1.045   .     S
H874   N913    1.045   .     S
H875   N913    1.045   .     S
H876   N914    1.045   .     S
H877   N919    1.045   .     S
H878   N914    1.045   .     S
H879   N915    1.045   .     S
H880   N915    1.045   .     S
H881   N916    1.045   .     S
H882   N916    1.045   .     S
H883   N917    1.045   .     S
H884   N917    1.045   .     S
H885   N918    1.045   .     S
H886   N918    1.045   .     S
H887   N920    1.046   .     S
H888   N919    1.045   .     S
H889   N920    1.046   .     S
H890   N921    1.045   .     S
H891   N921    1.045   .     S
H892   N922    1.045   .     S
H893   N922    1.045   .     S
H894   N923    1.045   .     S
H895   N923    1.045   .     S
H896   N924    1.045   .     S
O929   Zn984   1.946   .     S
O929   Zn992   1.946   .     S
O929   Zn981   1.946   .     S
O930   Zn983   1.945   .     S
O930   C106    1.277   1_565 S
O931   Zn986   1.945   .     S
O931   C1103   1.277   .     A
O932   Zn985   1.945   .     S
O933   Zn995   1.945   .     S
O934   Zn994   1.945   .     S
O935   Zn989   1.945   .     S
O936   Zn981   1.945   .     S
O937   Zn991   1.945   .     S
O938   Zn990   1.945   .     S
O939   Zn993   1.945   .     S
O940   Zn987   1.946   .     S
O940   Zn989   1.946   .     S
O940   Zn993   1.946   .     S
O941   Zn992   1.945   .     S
O942   Zn984   1.936   .     S
O943   Zn983   1.936   .     S
O944   Zn986   1.936   .     S
O945   Zn985   1.936   .     S
O946   Zn988   1.935   .     S
O947   Zn987   1.935   .     S
O948   Zn982   1.935   .     S
O949   Zn996   1.935   .     S
O950   Zn983   1.935   .     S
O951   Zn990   1.946   .     S
O951   Zn982   1.946   .     S
O951   Zn994   1.946   .     S
O951   Zn1318  1.946   1_455 S
O952   Zn984   1.935   .     S
O953   Zn996   1.935   .     S
O954   Zn982   1.935   .     S
O955   Zn987   1.936   .     S
O956   Zn988   1.936   .     S
O957   Zn985   1.936   .     S
O958   Zn986   1.936   .     S
O959   Zn1323  1.936   .     S
O960   Zn990   1.936   .     S
O961   Zn329   1.936   1_565 S
O962   Zn985   1.946   .     S
O962   Zn991   1.946   .     S
O962   Zn995   1.946   .     S
O962   Zn1328  1.946   1_455 S
O963   Zn992   1.936   .     S
O964   Zn995   1.935   .     S
O965   Zn1326  1.935   .     S
O966   Zn989   1.935   .     S
O967   Zn317   1.935   1_565 S
O968   Zn1322  1.935   .     S
O969   Zn991   1.935   .     S
O970   Zn981   1.935   .     S
O971   Zn325   1.935   1_565 S
O972   Zn994   1.936   .     S
O973   C105    1.277   1_565 A
O973   Zn988   1.945   .     S
O974   Zn1327  1.936   .     S
O975   Zn328   1.936   1_565 S
O976   Zn993   1.936   .     S
O977   Zn987   1.945   .     S
O978   Zn982   1.945   .     S
O979   Zn996   1.945   .     S
O979   C1104   1.277   .     S
O980   Zn984   1.945   .     S
Zn983  O276    1.946   1_565 S
Zn986  O1283   1.946   .     S
Zn988  O265    1.946   1_565 S
Zn990  O1300   1.935   1_455 S
Zn991  O1291   1.936   1_455 S
Zn994  O1297   1.935   1_455 S
Zn995  O1306   1.936   1_455 S
Zn996  O1294   1.946   .     S
Br997  C1083   1.936   .     S
Br998  C1093   1.936   .     S
Br999  C1094   1.936   .     S
Br1000 C1095   1.936   .     S
Br1001 C1096   1.936   .     S
Br1002 C1097   1.936   .     S
Br1003 C1098   1.936   .     S
Br1004 C1100   1.936   .     S
Br1005 C1029   1.940   .     S
Br1006 C1077   1.940   .     S
Br1007 C1088   1.940   .     S
Br1008 C1084   1.936   .     S
Br1009 C1099   1.940   .     S
Br1010 C1110   1.940   .     S
Br1011 C1121   1.940   .     S
Br1012 C1132   1.940   .     S
Br1013 C1143   1.940   .     S
Br1014 C1154   1.940   .     S
Br1015 C1030   1.940   .     S
Br1016 C1041   1.940   .     S
Br1017 C1052   1.940   .     S
Br1018 C1063   1.940   .     S
Br1019 C1085   1.936   .     S
Br1020 C1071   1.940   .     S
Br1021 C1072   1.940   .     S
Br1022 C1073   1.940   .     S
Br1023 C1086   1.936   .     S
Br1024 C1087   1.936   .     S
Br1025 C1089   1.936   .     S
Br1026 C1090   1.936   .     S
Br1027 C1091   1.936   .     S
Br1028 C1092   1.936   .     S
C1029  C1032   1.412   .     A
C1029  C742    1.399   1_655 S
C1030  C1042   1.412   .     A
C1030  C416    1.399   1_565 S
C1031  C1143   1.412   .     A
C1031  C402    1.423   1_565 S
C1031  C422    1.414   1_565 S
C1032  C730    1.422   1_655 S
C1032  C755    1.414   1_655 S
C1033  C1077   1.412   .     A
C1033  C732    1.422   1_655 S
C1033  C757    1.414   1_655 S
C1034  C1088   1.412   .     A
C1035  C1099   1.412   .     A
C1035  C1066   1.423   .     A
C1036  C1067   1.423   .     A
C1036  C1063   1.412   .     A
C1036  C1092   1.414   .     A
C1037  C1093   1.414   .     A
C1037  C1071   1.412   .     A
C1037  C1068   1.423   .     A
C1038  C1069   1.423   .     A
C1038  C1072   1.412   .     A
C1038  C1094   1.414   .     A
C1039  C1095   1.414   .     A
C1039  C1073   1.412   .     A
C1039  C738    1.423   1_655 S
C1040  C1096   1.414   .     A
C1040  C1154   1.412   .     A
C1041  C1043   1.412   .     A
C1041  C749    1.399   1_655 S
C1042  C1097   1.414   .     A
C1042  C404    1.422   1_565 S
C1043  C1098   1.414   .     A
C1043  C737    1.423   1_655 S
C1044  C1070   1.423   .     A
C1044  C1100   1.414   .     A
C1044  C1052   1.412   .     A
C1045  C1116   1.455   .     S
C1045  C1144   1.407   .     A
C1045  C1146   1.407   .     A
C1046  C1117   1.455   .     S
C1046  C1145   1.407   .     A
C1046  C1142   1.407   .     A
C1047  C1141   1.407   .     A
C1047  C1148   1.407   .     A
C1047  C1109   1.455   .     S
C1048  C1140   1.408   .     A
C1048  C1111   1.456   .     S
C1048  C1147   1.413   .     A
C1049  C1112   1.455   .     S
C1049  C1150   1.407   .     A
C1049  C1139   1.407   .     A
C1050  C1138   1.405   .     A
C1050  C1149   1.406   .     A
C1050  C1113   1.454   .     S
C1051  C1137   1.407   .     A
C1051  C1114   1.455   .     S
C1051  C1152   1.407   .     A
C1052  C1082   1.399   .     A
C1053  C1136   1.407   .     A
C1053  C1151   1.407   .     A
C1053  C1115   1.455   .     S
C1054  C1155   1.407   .     A
C1054  C1125   1.455   .     S
C1054  C1135   1.407   .     A
C1055  C1134   1.407   .     A
C1055  C1153   1.407   .     A
C1055  C1126   1.455   .     S
C1056  C1118   1.456   .     S
C1056  C1133   1.413   .     A
C1056  C1157   1.407   .     A
C1057  C1131   1.407   .     A
C1057  C1156   1.407   .     A
C1057  C1119   1.455   .     S
C1058  C1159   1.405   .     A
C1058  C1120   1.454   .     S
C1058  C1130   1.406   .     A
C1059  C1129   1.407   .     A
C1059  C1122   1.455   .     S
C1059  C1158   1.407   .     A
C1060  C1161   1.407   .     A
C1060  C1128   1.407   .     A
C1060  C1123   1.455   .     S
C1061  C1124   1.455   .     S
C1061  C1127   1.407   .     A
C1061  C1160   1.407   .     A
C1062  C1064   1.414   .     A
C1062  C1162   1.423   .     A
C1063  C1079   1.399   .     A
C1064  C1163   1.423   .     A
C1065  C1164   1.423   .     A
C1065  C370    1.423   1_565 S
C1065  C402    1.414   1_565 S
C1067  C376    1.423   1_565 S
C1067  C404    1.414   1_566 S
C1068  C403    1.414   1_554 S
C1069  C1070   1.414   1_556 S
C1070  C1069   1.414   1_554 S
C1071  C1080   1.399   .     A
C1072  C1081   1.399   .     A
C1073  C750    1.399   1_655 S
C1074  C1110   1.399   .     A
C1074  C1103   1.453   .     S
C1075  C1104   1.453   .     S
C1075  C1121   1.399   .     A
C1076  C1132   1.399   .     A
C1076  C437    1.453   1_565 S
C1076  C424    1.399   1_565 S
C1077  C743    1.399   1_655 S
C1078  C1102   1.453   .     S
C1078  C1099   1.399   .     A
C1079  C1107   1.453   .     S
C1079  C490    1.399   1_565 S
C1080  C1108   1.453   .     S
C1081  C1105   1.453   .     S
C1082  C1106   1.453   .     S
C1083  C757    1.398   1_655 S
C1083  C830    1.414   1_655 S
C1084  C755    1.398   1_655 S
C1084  C831    1.414   1_655 S
C1090  C370    1.414   1_565 S
C1090  C422    1.398   1_565 S
C1091  C371    1.414   1_565 S
C1091  C421    1.398   1_565 S
C1092  C1097   1.398   1_556 S
C1093  C1096   1.398   1_554 S
C1094  C1100   1.398   1_556 S
C1095  C1098   1.398   1_554 S
C1096  C1093   1.398   1_556 S
C1097  C1092   1.398   1_554 S
C1098  C1095   1.398   1_556 S
C1100  C1094   1.398   1_554 S
C1101  O1312   1.277   .     S
C1102  O1309   1.277   .     A
C1103  O1310   1.277   .     S
C1104  O1264   1.277   .     A
C1105  O1265   1.277   .     A
C1105  O1269   1.277   .     A
C1106  O1270   1.277   .     A
C1106  O1266   1.277   .     A
C1107  O603    1.277   1_565 S
C1107  O607    1.277   1_565 S
C1108  O1268   1.277   .     S
C1108  O1273   1.277   .     S
C1109  O1302   1.279   .     A
C1109  O1274   1.279   .     A
C1110  C1162   1.412   .     A
C1111  O1303   1.281   .     A
C1111  O1275   1.278   .     A
C1112  O1300   1.279   .     A
C1112  O1276   1.279   .     A
C1113  O1301   1.279   .     A
C1113  O1277   1.278   .     A
C1114  O1278   1.279   .     A
C1114  O1307   1.279   .     A
C1115  O1279   1.279   .     A
C1115  O1308   1.279   .     A
C1116  O1280   1.279   .     A
C1116  O1304   1.279   .     A
C1117  O1306   1.279   .     A
C1117  O1281   1.279   .     A
C1118  O1293   1.278   .     A
C1118  O1282   1.280   .     A
C1119  O1295   1.279   .     A
C1119  O1284   1.279   .     A
C1120  O1291   1.278   .     A
C1120  O1285   1.279   .     A
C1121  C1163   1.412   .     A
C1122  O1292   1.279   .     A
C1122  O1286   1.279   .     A
C1123  O1298   1.279   .     A
C1123  O1287   1.279   .     A
C1124  O1299   1.279   .     A
C1124  O1288   1.279   .     A
C1125  O1289   1.279   .     A
C1125  O1296   1.279   .     A
C1126  O1297   1.279   .     A
C1126  O1290   1.279   .     A
C1127  N1229   1.437   .     S
C1127  C1144   1.403   .     A
C1128  N1240   1.437   .     S
C1128  C1142   1.403   .     A
C1129  C1141   1.403   .     A
C1129  N1251   1.437   .     S
C1130  C1140   1.404   .     A
C1130  N1255   1.437   .     S
C1131  N1256   1.437   .     S
C1131  C1139   1.403   .     A
C1132  C1164   1.412   .     A
C1133  C1138   1.397   .     A
C1133  N1257   1.436   .     S
C1134  C1137   1.403   .     A
C1134  N1258   1.436   .     S
C1135  C1136   1.403   .     A
C1135  N1259   1.437   .     S
C1136  N1260   1.437   .     S
C1137  N1230   1.437   .     S
C1138  N1231   1.436   .     S
C1139  N1232   1.437   .     S
C1140  N1233   1.437   .     S
C1141  N1234   1.436   .     S
C1142  N1235   1.436   .     S
C1143  C414    1.399   1_565 S
C1144  N1236   1.437   .     S
C1145  C1161   1.403   .     A
C1145  N1237   1.437   .     S
C1146  C1160   1.403   .     A
C1146  N1238   1.437   .     S
C1147  N1239   1.436   .     S
C1147  C1159   1.397   .     A
C1148  N1241   1.437   .     S
C1148  C1158   1.403   .     A
C1149  C1157   1.404   .     A
C1149  N1242   1.436   .     S
C1150  N1243   1.437   .     S
C1150  C1156   1.403   .     A
C1151  C1155   1.403   .     A
C1151  N1244   1.437   .     S
C1152  N1245   1.436   .     S
C1152  C1153   1.403   .     A
C1153  N1246   1.437   .     S
C1155  N1247   1.437   .     S
C1156  N1248   1.437   .     S
C1157  N1249   1.437   .     S
C1158  N1250   1.436   .     S
C1159  N1252   1.436   .     S
C1160  N1253   1.437   .     S
C1161  N1254   1.436   .     S
C1164  C421    1.414   1_565 S
H1165  N1229   1.045   .     S
H1166  N1256   1.045   .     S
H1167  N1257   1.044   .     S
H1168  N1257   1.046   .     S
H1169  N1258   1.045   .     S
H1170  N1258   1.045   .     S
H1171  N1259   1.045   .     S
H1172  N1259   1.045   .     S
H1173  N1260   1.045   .     S
H1174  N1260   1.045   .     S
H1175  N1230   1.045   .     S
H1176  N1229   1.045   .     S
H1177  N1230   1.045   .     S
H1178  N1231   1.046   .     S
H1179  N1231   1.046   .     S
H1180  N1232   1.045   .     S
H1181  N1232   1.045   .     S
H1182  N1233   1.045   .     S
H1183  N1233   1.045   .     S
H1184  N1234   1.045   .     S
H1185  N1234   1.045   .     S
H1186  N1235   1.045   .     S
H1187  N1240   1.045   .     S
H1188  N1235   1.045   .     S
H1189  N1236   1.045   .     S
H1190  N1236   1.045   .     S
H1191  N1237   1.045   .     S
H1192  N1237   1.045   .     S
H1193  N1238   1.045   .     S
H1194  N1238   1.045   .     S
H1195  N1239   1.044   .     S
H1196  N1239   1.046   .     S
H1197  N1241   1.045   .     S
H1198  N1240   1.045   .     S
H1199  N1241   1.045   .     S
H1200  N1242   1.045   .     S
H1201  N1242   1.045   .     S
H1202  N1243   1.045   .     S
H1203  N1243   1.045   .     S
H1204  N1244   1.045   .     S
H1205  N1244   1.045   .     S
H1206  N1245   1.045   .     S
H1207  N1245   1.045   .     S
H1208  N1246   1.045   .     S
H1209  N1251   1.045   .     S
H1210  N1246   1.045   .     S
H1211  N1247   1.045   .     S
H1212  N1247   1.045   .     S
H1213  N1248   1.045   .     S
H1214  N1248   1.045   .     S
H1215  N1249   1.045   .     S
H1216  N1249   1.045   .     S
H1217  N1250   1.045   .     S
H1218  N1250   1.045   .     S
H1219  N1252   1.046   .     S
H1220  N1251   1.045   .     S
H1221  N1252   1.046   .     S
H1222  N1253   1.045   .     S
H1223  N1253   1.045   .     S
H1224  N1254   1.045   .     S
H1225  N1254   1.045   .     S
H1226  N1255   1.045   .     S
H1227  N1255   1.045   .     S
H1228  N1256   1.045   .     S
O1261  Zn1316  1.946   .     S
O1261  Zn1324  1.946   .     S
O1261  Zn1313  1.946   .     S
O1262  Zn1315  1.945   .     S
O1262  C438    1.277   1_565 S
O1263  Zn1318  1.945   .     S
O1263  C771    1.277   1_655 A
O1264  Zn1317  1.945   .     S
O1265  Zn1327  1.945   .     S
O1266  Zn1326  1.945   .     S
O1267  Zn1321  1.945   .     S
O1268  Zn1313  1.945   .     S
O1269  Zn1323  1.945   .     S
O1270  Zn1322  1.945   .     S
O1271  Zn1325  1.945   .     S
O1272  Zn1319  1.946   .     S
O1272  Zn1321  1.946   .     S
O1272  Zn1325  1.946   .     S
O1273  Zn1324  1.945   .     S
O1274  Zn1316  1.936   .     S
O1275  Zn1315  1.936   .     S
O1276  Zn1318  1.936   .     S
O1277  Zn1317  1.936   .     S
O1278  Zn1320  1.935   .     S
O1279  Zn1319  1.935   .     S
O1280  Zn1314  1.935   .     S
O1281  Zn1328  1.935   .     S
O1282  Zn1315  1.935   .     S
O1283  Zn1322  1.946   .     S
O1283  Zn1314  1.946   .     S
O1283  Zn1326  1.946   .     S
O1284  Zn1316  1.935   .     S
O1285  Zn1328  1.935   .     S
O1286  Zn1314  1.935   .     S
O1287  Zn1319  1.936   .     S
O1288  Zn1320  1.936   .     S
O1289  Zn1317  1.936   .     S
O1290  Zn1318  1.936   .     S
O1291  Zn991   1.936   1_655 S
O1292  Zn1322  1.936   .     S
O1293  Zn661   1.936   1_565 S
O1294  Zn1317  1.946   .     S
O1294  Zn1323  1.946   .     S
O1294  Zn1327  1.946   .     S
O1295  Zn1324  1.936   .     S
O1296  Zn1327  1.935   .     S
O1297  Zn994   1.935   1_655 S
O1298  Zn1321  1.935   .     S
O1299  Zn649   1.935   1_565 S
O1300  Zn990   1.935   1_655 S
O1301  Zn1323  1.935   .     S
O1302  Zn1313  1.935   .     S
O1303  Zn657   1.935   1_565 S
O1304  Zn1326  1.936   .     S
O1305  C437    1.277   1_565 A
O1305  Zn1320  1.945   .     S
O1306  Zn995   1.936   1_655 S
O1307  Zn660   1.936   1_565 S
O1308  Zn1325  1.936   .     S
O1309  Zn1319  1.945   .     S
O1310  Zn1314  1.945   .     S
O1311  Zn1328  1.945   .     S
O1311  C772    1.277   1_655 S
O1312  Zn1316  1.945   .     S
Zn1315 O608    1.946   1_565 S
Zn1318 O951    1.946   1_655 S
Zn1320 O597    1.946   1_565 S
Zn1328 O962    1.946   1_655 S
