data_str_m1_o10_o16_pcu_sym.110
_audit_creation_date              2020-01-03
_audit_creation_method            'Materials Studio'
_symmetry_space_group_name_H-M    'P1'
_symmetry_Int_Tables_number       1
_symmetry_cell_setting            triclinic
loop_
_symmetry_equiv_pos_as_xyz
  x,y,z
_cell_length_a                    32.4987
_cell_length_b                    32.6291
_cell_length_c                    31.0659
_cell_angle_alpha                 96.9608
_cell_angle_beta                  74.9892
_cell_angle_gamma                 98.4512
loop_
_atom_site_label
_atom_site_type_symbol
_atom_site_fract_x
_atom_site_fract_y
_atom_site_fract_z
_atom_site_U_iso_or_equiv
_atom_site_adp_type
_atom_site_occupancy
C1     C     0.05270   0.15956   0.26006   0.00000  Uiso   1.00
C2     C     0.18020   0.16722   0.05725   0.00000  Uiso   1.00
C3     C     0.19694   0.09839   0.06283   0.00000  Uiso   1.00
C4     C     0.28069   0.17378   0.24009   0.00000  Uiso   1.00
C5     C     0.14343   0.19456   0.41946   0.00000  Uiso   1.00
C6     C     0.32653   0.17651   0.23623   0.00000  Uiso   1.00
C7     C     0.00743   0.15706   0.26388   0.00000  Uiso   1.00
C8     C     0.17966   0.32253   0.23833   0.00000  Uiso   1.00
C9     C     0.15015   0.01195   0.26494   0.00000  Uiso   1.00
C10    C     0.15647   0.05597   0.25973   0.00000  Uiso   1.00
C11    C     0.17624   0.27784   0.24039   0.00000  Uiso   1.00
C12    C     0.13844   0.24878   0.48050   0.00000  Uiso   1.00
C13    C     0.18502   0.14791   0.12945   0.00000  Uiso   1.00
C14    C     0.14813   0.18427   0.37101   0.00000  Uiso   1.00
C15    C     0.19127   0.08575   0.02029   0.00000  Uiso   1.00
C16    C     0.19073   0.13882   0.08154   0.00000  Uiso   1.00
C17    C     0.13514   0.23492   0.43738   0.00000  Uiso   1.00
C18    C     0.09543   0.01950   0.32984   0.00000  Uiso   1.00
C19    C     0.06063   0.32755   0.36230   0.00000  Uiso   1.00
C20    C     0.15113   0.22313   0.00610   0.00000  Uiso   1.00
C21    C     0.15895   0.18183   0.48969   0.00000  Uiso   1.00
C22    C     0.15250   0.16683   0.44666   0.00000  Uiso   1.00
C23    C     0.17272   0.15480   0.01454   0.00000  Uiso   1.00
C24    C     0.17808   0.11311   0.49655   0.00000  Uiso   1.00
C25    C     0.16833   0.09834   0.45600   0.00000  Uiso   1.00
C26    C     0.15477   0.12443   0.43197   0.00000  Uiso   1.00
H27    H     0.20426   0.07607   0.08208   0.00000  Uiso   1.00
H28    H     0.14523   0.11046   0.40214   0.00000  Uiso   1.00
H29    H     0.01549   0.19441   0.21075   0.00000  Uiso   1.00
H30    H     0.08076   0.04449   0.31990   0.00000  Uiso   1.00
H31    H     0.12060   0.03355   0.34754   0.00000  Uiso   1.00
H32    H     0.07441   0.30245   0.37305   0.00000  Uiso   1.00
H33    H     0.04686   0.01470   0.39223   0.00000  Uiso   1.00
H34    H     0.03465   0.31343   0.34597   0.00000  Uiso   1.00
H35    H     0.31919   0.13904   0.28965   0.00000  Uiso   1.00
H36    H     0.20741   0.00406   0.21522   0.00000  Uiso   1.00
H37    H     0.17048   0.06612   0.44308   0.00000  Uiso   1.00
H38    H     0.19526   0.05395   0.00677   0.00000  Uiso   1.00
H39    H     0.17534   0.19769   0.07391   0.00000  Uiso   1.00
H40    H     0.12780   0.25651   0.41733   0.00000  Uiso   1.00
H41    H     0.15416   0.23664   0.03867   0.00000  Uiso   1.00
H42    H     0.13251   0.28021   0.49370   0.00000  Uiso   1.00
O43    O     0.16667   0.16667   0.25000   0.00000  Uiso   1.00
O44    O     0.15451   0.12637   0.15459   0.00000  Uiso   1.00
O45    O     0.12940   0.20391   0.34968   0.00000  Uiso   1.00
O46    O     0.20824   0.17759   0.14606   0.00000  Uiso   1.00
O47    O     0.17451   0.15880   0.34968   0.00000  Uiso   1.00
O48    O     0.11250   0.32635   0.29193   0.00000  Uiso   1.00
O49    O     0.17930   0.08019   0.28213   0.00000  Uiso   1.00
O50    O     0.14632   0.26085   0.27014   0.00000  Uiso   1.00
O51    O     0.07412   0.13291   0.23413   0.00000  Uiso   1.00
O52    O     0.26693   0.19272   0.21361   0.00000  Uiso   1.00
O53    O     0.07071   0.18878   0.28213   0.00000  Uiso   1.00
O54    O     0.25491   0.15226   0.27014   0.00000  Uiso   1.00
O55    O     0.13760   0.06944   0.23413   0.00000  Uiso   1.00
O56    O     0.20345   0.25620   0.21361   0.00000  Uiso   1.00
Zn57   Zn    0.19338   0.13994   0.28734   0.00000  Uiso   1.00
Zn58   Zn    0.13379   0.12458   0.21876   0.00000  Uiso   1.00
Zn59   Zn    0.21056   0.19775   0.20657   0.00000  Uiso   1.00
Zn60   Zn    0.12893   0.20439   0.28734   0.00000  Uiso   1.00
C61    C     0.38603   0.15956   0.26006   0.00000  Uiso   1.00
C62    C     0.51353   0.16722   0.05725   0.00000  Uiso   1.00
C63    C     0.53027   0.09839   0.06283   0.00000  Uiso   1.00
C64    C     0.61402   0.17378   0.24009   0.00000  Uiso   1.00
C65    C     0.47677   0.19456   0.41946   0.00000  Uiso   1.00
C66    C     0.65986   0.17651   0.23623   0.00000  Uiso   1.00
C67    C     0.34076   0.15706   0.26388   0.00000  Uiso   1.00
C68    C     0.51299   0.32253   0.23833   0.00000  Uiso   1.00
C69    C     0.48349   0.01195   0.26494   0.00000  Uiso   1.00
C70    C     0.48981   0.05597   0.25973   0.00000  Uiso   1.00
C71    C     0.50958   0.27784   0.24039   0.00000  Uiso   1.00
C72    C     0.47177   0.24878   0.48050   0.00000  Uiso   1.00
C73    C     0.51835   0.14791   0.12945   0.00000  Uiso   1.00
C74    C     0.48146   0.18427   0.37101   0.00000  Uiso   1.00
C75    C     0.52460   0.08575   0.02029   0.00000  Uiso   1.00
C76    C     0.52406   0.13882   0.08154   0.00000  Uiso   1.00
C77    C     0.46848   0.23492   0.43738   0.00000  Uiso   1.00
C78    C     0.42876   0.01950   0.32984   0.00000  Uiso   1.00
C79    C     0.39397   0.32755   0.36230   0.00000  Uiso   1.00
C80    C     0.48446   0.22313   0.00610   0.00000  Uiso   1.00
C81    C     0.49228   0.18183   0.48969   0.00000  Uiso   1.00
C82    C     0.48583   0.16683   0.44666   0.00000  Uiso   1.00
C83    C     0.50605   0.15480   0.01454   0.00000  Uiso   1.00
C84    C     0.51142   0.11311   0.49655   0.00000  Uiso   1.00
C85    C     0.50166   0.09834   0.45600   0.00000  Uiso   1.00
C86    C     0.48811   0.12443   0.43197   0.00000  Uiso   1.00
H87    H     0.53759   0.07607   0.08208   0.00000  Uiso   1.00
H88    H     0.47856   0.11046   0.40214   0.00000  Uiso   1.00
H89    H     0.34883   0.19441   0.21075   0.00000  Uiso   1.00
H90    H     0.41410   0.04449   0.31990   0.00000  Uiso   1.00
H91    H     0.45393   0.03355   0.34754   0.00000  Uiso   1.00
H92    H     0.40774   0.30245   0.37305   0.00000  Uiso   1.00
H93    H     0.38020   0.01470   0.39223   0.00000  Uiso   1.00
H94    H     0.36798   0.31343   0.34597   0.00000  Uiso   1.00
H95    H     0.65252   0.13904   0.28965   0.00000  Uiso   1.00
H96    H     0.54074   0.00406   0.21522   0.00000  Uiso   1.00
H97    H     0.50382   0.06612   0.44308   0.00000  Uiso   1.00
H98    H     0.52860   0.05395   0.00677   0.00000  Uiso   1.00
H99    H     0.50867   0.19769   0.07391   0.00000  Uiso   1.00
H100   H     0.46113   0.25651   0.41733   0.00000  Uiso   1.00
H101   H     0.48749   0.23664   0.03867   0.00000  Uiso   1.00
H102   H     0.46584   0.28021   0.49370   0.00000  Uiso   1.00
O103   O     0.50000   0.16667   0.25000   0.00000  Uiso   1.00
O104   O     0.48784   0.12637   0.15459   0.00000  Uiso   1.00
O105   O     0.46274   0.20391   0.34968   0.00000  Uiso   1.00
O106   O     0.54157   0.17759   0.14606   0.00000  Uiso   1.00
O107   O     0.50785   0.15880   0.34968   0.00000  Uiso   1.00
O108   O     0.44584   0.32635   0.29193   0.00000  Uiso   1.00
O109   O     0.51264   0.08019   0.28213   0.00000  Uiso   1.00
O110   O     0.47965   0.26085   0.27014   0.00000  Uiso   1.00
O111   O     0.40745   0.13291   0.23413   0.00000  Uiso   1.00
O112   O     0.60026   0.19272   0.21361   0.00000  Uiso   1.00
O113   O     0.40405   0.18878   0.28213   0.00000  Uiso   1.00
O114   O     0.58824   0.15226   0.27014   0.00000  Uiso   1.00
O115   O     0.47093   0.06944   0.23413   0.00000  Uiso   1.00
O116   O     0.53678   0.25620   0.21361   0.00000  Uiso   1.00
Zn117  Zn    0.52672   0.13994   0.28734   0.00000  Uiso   1.00
Zn118  Zn    0.46713   0.12458   0.21876   0.00000  Uiso   1.00
Zn119  Zn    0.54389   0.19775   0.20657   0.00000  Uiso   1.00
Zn120  Zn    0.46226   0.20439   0.28734   0.00000  Uiso   1.00
C121   C     0.71937   0.15956   0.26006   0.00000  Uiso   1.00
C122   C     0.84687   0.16722   0.05725   0.00000  Uiso   1.00
C123   C     0.86361   0.09839   0.06283   0.00000  Uiso   1.00
C124   C     0.94735   0.17378   0.24009   0.00000  Uiso   1.00
C125   C     0.81010   0.19456   0.41946   0.00000  Uiso   1.00
C126   C     0.99320   0.17651   0.23623   0.00000  Uiso   1.00
C127   C     0.67410   0.15706   0.26388   0.00000  Uiso   1.00
C128   C     0.84633   0.32253   0.23833   0.00000  Uiso   1.00
C129   C     0.81682   0.01195   0.26494   0.00000  Uiso   1.00
C130   C     0.82314   0.05597   0.25973   0.00000  Uiso   1.00
C131   C     0.84291   0.27784   0.24039   0.00000  Uiso   1.00
C132   C     0.80511   0.24878   0.48050   0.00000  Uiso   1.00
C133   C     0.85168   0.14791   0.12945   0.00000  Uiso   1.00
C134   C     0.81479   0.18427   0.37101   0.00000  Uiso   1.00
C135   C     0.85793   0.08575   0.02029   0.00000  Uiso   1.00
C136   C     0.85739   0.13882   0.08154   0.00000  Uiso   1.00
C137   C     0.80181   0.23492   0.43738   0.00000  Uiso   1.00
C138   C     0.76210   0.01950   0.32984   0.00000  Uiso   1.00
C139   C     0.72730   0.32755   0.36230   0.00000  Uiso   1.00
C140   C     0.81779   0.22313   0.00610   0.00000  Uiso   1.00
C141   C     0.82562   0.18183   0.48969   0.00000  Uiso   1.00
C142   C     0.81916   0.16683   0.44666   0.00000  Uiso   1.00
C143   C     0.83939   0.15480   0.01454   0.00000  Uiso   1.00
C144   C     0.84475   0.11311   0.49655   0.00000  Uiso   1.00
C145   C     0.83499   0.09834   0.45600   0.00000  Uiso   1.00
C146   C     0.82144   0.12443   0.43197   0.00000  Uiso   1.00
H147   H     0.87093   0.07607   0.08208   0.00000  Uiso   1.00
H148   H     0.81190   0.11046   0.40214   0.00000  Uiso   1.00
H149   H     0.68216   0.19441   0.21075   0.00000  Uiso   1.00
H150   H     0.74743   0.04449   0.31990   0.00000  Uiso   1.00
H151   H     0.78727   0.03355   0.34754   0.00000  Uiso   1.00
H152   H     0.74108   0.30245   0.37305   0.00000  Uiso   1.00
H153   H     0.71353   0.01470   0.39223   0.00000  Uiso   1.00
H154   H     0.70131   0.31343   0.34597   0.00000  Uiso   1.00
H155   H     0.98586   0.13904   0.28965   0.00000  Uiso   1.00
H156   H     0.87408   0.00406   0.21522   0.00000  Uiso   1.00
H157   H     0.83715   0.06612   0.44308   0.00000  Uiso   1.00
H158   H     0.86193   0.05395   0.00677   0.00000  Uiso   1.00
H159   H     0.84200   0.19769   0.07391   0.00000  Uiso   1.00
H160   H     0.79446   0.25651   0.41733   0.00000  Uiso   1.00
H161   H     0.82083   0.23664   0.03867   0.00000  Uiso   1.00
H162   H     0.79918   0.28021   0.49370   0.00000  Uiso   1.00
O163   O     0.83333   0.16667   0.25000   0.00000  Uiso   1.00
O164   O     0.82118   0.12637   0.15459   0.00000  Uiso   1.00
O165   O     0.79607   0.20391   0.34968   0.00000  Uiso   1.00
O166   O     0.87491   0.17759   0.14606   0.00000  Uiso   1.00
O167   O     0.84118   0.15880   0.34968   0.00000  Uiso   1.00
O168   O     0.77917   0.32635   0.29193   0.00000  Uiso   1.00
O169   O     0.84597   0.08019   0.28213   0.00000  Uiso   1.00
O170   O     0.81298   0.26085   0.27014   0.00000  Uiso   1.00
O171   O     0.74078   0.13291   0.23413   0.00000  Uiso   1.00
O172   O     0.93360   0.19272   0.21361   0.00000  Uiso   1.00
O173   O     0.73738   0.18878   0.28213   0.00000  Uiso   1.00
O174   O     0.92158   0.15226   0.27014   0.00000  Uiso   1.00
O175   O     0.80426   0.06944   0.23413   0.00000  Uiso   1.00
O176   O     0.87012   0.25620   0.21361   0.00000  Uiso   1.00
Zn177  Zn    0.86005   0.13994   0.28734   0.00000  Uiso   1.00
Zn178  Zn    0.80046   0.12458   0.21876   0.00000  Uiso   1.00
Zn179  Zn    0.87723   0.19775   0.20657   0.00000  Uiso   1.00
Zn180  Zn    0.79560   0.20439   0.28734   0.00000  Uiso   1.00
C181   C     0.05270   0.49290   0.26006   0.00000  Uiso   1.00
C182   C     0.18020   0.50055   0.05725   0.00000  Uiso   1.00
C183   C     0.19694   0.43173   0.06283   0.00000  Uiso   1.00
C184   C     0.28069   0.50711   0.24009   0.00000  Uiso   1.00
C185   C     0.14343   0.52789   0.41946   0.00000  Uiso   1.00
C186   C     0.32653   0.50985   0.23623   0.00000  Uiso   1.00
C187   C     0.00743   0.49039   0.26388   0.00000  Uiso   1.00
C188   C     0.17966   0.65586   0.23833   0.00000  Uiso   1.00
C189   C     0.15015   0.34528   0.26494   0.00000  Uiso   1.00
C190   C     0.15647   0.38930   0.25973   0.00000  Uiso   1.00
C191   C     0.17624   0.61117   0.24039   0.00000  Uiso   1.00
C192   C     0.13844   0.58211   0.48050   0.00000  Uiso   1.00
C193   C     0.18502   0.48124   0.12945   0.00000  Uiso   1.00
C194   C     0.14813   0.51760   0.37101   0.00000  Uiso   1.00
C195   C     0.19127   0.41909   0.02029   0.00000  Uiso   1.00
C196   C     0.19073   0.47215   0.08154   0.00000  Uiso   1.00
C197   C     0.13514   0.56825   0.43738   0.00000  Uiso   1.00
C198   C     0.09543   0.35284   0.32984   0.00000  Uiso   1.00
C199   C     0.06063   0.66089   0.36230   0.00000  Uiso   1.00
C200   C     0.15113   0.55647   0.00610   0.00000  Uiso   1.00
C201   C     0.15895   0.51516   0.48969   0.00000  Uiso   1.00
C202   C     0.15250   0.50017   0.44666   0.00000  Uiso   1.00
C203   C     0.17272   0.48814   0.01454   0.00000  Uiso   1.00
C204   C     0.17808   0.44645   0.49655   0.00000  Uiso   1.00
C205   C     0.16833   0.43167   0.45600   0.00000  Uiso   1.00
C206   C     0.15477   0.45776   0.43197   0.00000  Uiso   1.00
H207   H     0.20426   0.40940   0.08208   0.00000  Uiso   1.00
H208   H     0.14523   0.44380   0.40214   0.00000  Uiso   1.00
H209   H     0.01549   0.52774   0.21075   0.00000  Uiso   1.00
H210   H     0.08076   0.37782   0.31990   0.00000  Uiso   1.00
H211   H     0.12060   0.36689   0.34754   0.00000  Uiso   1.00
H212   H     0.07441   0.63578   0.37305   0.00000  Uiso   1.00
H213   H     0.04686   0.34804   0.39223   0.00000  Uiso   1.00
H214   H     0.03465   0.64676   0.34597   0.00000  Uiso   1.00
H215   H     0.31919   0.47237   0.28965   0.00000  Uiso   1.00
H216   H     0.20741   0.33739   0.21522   0.00000  Uiso   1.00
H217   H     0.17048   0.39945   0.44308   0.00000  Uiso   1.00
H218   H     0.19526   0.38729   0.00677   0.00000  Uiso   1.00
H219   H     0.17534   0.53102   0.07391   0.00000  Uiso   1.00
H220   H     0.12780   0.58984   0.41733   0.00000  Uiso   1.00
H221   H     0.15416   0.56997   0.03867   0.00000  Uiso   1.00
H222   H     0.13251   0.61354   0.49370   0.00000  Uiso   1.00
O223   O     0.16667   0.50000   0.25000   0.00000  Uiso   1.00
O224   O     0.15451   0.45970   0.15459   0.00000  Uiso   1.00
O225   O     0.12940   0.53724   0.34968   0.00000  Uiso   1.00
O226   O     0.20824   0.51092   0.14606   0.00000  Uiso   1.00
O227   O     0.17451   0.49213   0.34968   0.00000  Uiso   1.00
O228   O     0.11250   0.65969   0.29193   0.00000  Uiso   1.00
O229   O     0.17930   0.41352   0.28213   0.00000  Uiso   1.00
O230   O     0.14632   0.59418   0.27014   0.00000  Uiso   1.00
O231   O     0.07412   0.46625   0.23413   0.00000  Uiso   1.00
O232   O     0.26693   0.52605   0.21361   0.00000  Uiso   1.00
O233   O     0.07071   0.52211   0.28213   0.00000  Uiso   1.00
O234   O     0.25491   0.48559   0.27014   0.00000  Uiso   1.00
O235   O     0.13760   0.40277   0.23413   0.00000  Uiso   1.00
O236   O     0.20345   0.58953   0.21361   0.00000  Uiso   1.00
Zn237  Zn    0.19338   0.47327   0.28734   0.00000  Uiso   1.00
Zn238  Zn    0.13379   0.45791   0.21876   0.00000  Uiso   1.00
Zn239  Zn    0.21056   0.53109   0.20657   0.00000  Uiso   1.00
Zn240  Zn    0.12893   0.53773   0.28734   0.00000  Uiso   1.00
C241   C     0.38603   0.49290   0.26006   0.00000  Uiso   1.00
C242   C     0.51353   0.50055   0.05725   0.00000  Uiso   1.00
C243   C     0.53027   0.43173   0.06283   0.00000  Uiso   1.00
C244   C     0.61402   0.50711   0.24009   0.00000  Uiso   1.00
C245   C     0.47677   0.52789   0.41946   0.00000  Uiso   1.00
C246   C     0.65986   0.50985   0.23623   0.00000  Uiso   1.00
C247   C     0.34076   0.49039   0.26388   0.00000  Uiso   1.00
C248   C     0.51299   0.65586   0.23833   0.00000  Uiso   1.00
C249   C     0.48349   0.34528   0.26494   0.00000  Uiso   1.00
C250   C     0.48981   0.38930   0.25973   0.00000  Uiso   1.00
C251   C     0.50958   0.61117   0.24039   0.00000  Uiso   1.00
C252   C     0.47177   0.58211   0.48050   0.00000  Uiso   1.00
C253   C     0.51835   0.48124   0.12945   0.00000  Uiso   1.00
C254   C     0.48146   0.51760   0.37101   0.00000  Uiso   1.00
C255   C     0.52460   0.41909   0.02029   0.00000  Uiso   1.00
C256   C     0.52406   0.47215   0.08154   0.00000  Uiso   1.00
C257   C     0.46848   0.56825   0.43738   0.00000  Uiso   1.00
C258   C     0.42876   0.35284   0.32984   0.00000  Uiso   1.00
C259   C     0.39397   0.66089   0.36230   0.00000  Uiso   1.00
C260   C     0.48446   0.55647   0.00610   0.00000  Uiso   1.00
C261   C     0.49228   0.51516   0.48969   0.00000  Uiso   1.00
C262   C     0.48583   0.50017   0.44666   0.00000  Uiso   1.00
C263   C     0.50605   0.48814   0.01454   0.00000  Uiso   1.00
C264   C     0.51142   0.44645   0.49655   0.00000  Uiso   1.00
C265   C     0.50166   0.43167   0.45600   0.00000  Uiso   1.00
C266   C     0.48811   0.45776   0.43197   0.00000  Uiso   1.00
H267   H     0.53759   0.40940   0.08208   0.00000  Uiso   1.00
H268   H     0.47856   0.44380   0.40214   0.00000  Uiso   1.00
H269   H     0.34883   0.52774   0.21075   0.00000  Uiso   1.00
H270   H     0.41410   0.37782   0.31990   0.00000  Uiso   1.00
H271   H     0.45393   0.36689   0.34754   0.00000  Uiso   1.00
H272   H     0.40774   0.63578   0.37305   0.00000  Uiso   1.00
H273   H     0.38020   0.34804   0.39223   0.00000  Uiso   1.00
H274   H     0.36798   0.64676   0.34597   0.00000  Uiso   1.00
H275   H     0.65252   0.47237   0.28965   0.00000  Uiso   1.00
H276   H     0.54074   0.33739   0.21522   0.00000  Uiso   1.00
H277   H     0.50382   0.39945   0.44308   0.00000  Uiso   1.00
H278   H     0.52860   0.38729   0.00677   0.00000  Uiso   1.00
H279   H     0.50867   0.53102   0.07391   0.00000  Uiso   1.00
H280   H     0.46113   0.58984   0.41733   0.00000  Uiso   1.00
H281   H     0.48749   0.56997   0.03867   0.00000  Uiso   1.00
H282   H     0.46584   0.61354   0.49370   0.00000  Uiso   1.00
O283   O     0.50000   0.50000   0.25000   0.00000  Uiso   1.00
O284   O     0.48784   0.45970   0.15459   0.00000  Uiso   1.00
O285   O     0.46274   0.53724   0.34968   0.00000  Uiso   1.00
O286   O     0.54157   0.51092   0.14606   0.00000  Uiso   1.00
O287   O     0.50785   0.49213   0.34968   0.00000  Uiso   1.00
O288   O     0.44584   0.65969   0.29193   0.00000  Uiso   1.00
O289   O     0.51264   0.41352   0.28213   0.00000  Uiso   1.00
O290   O     0.47965   0.59418   0.27014   0.00000  Uiso   1.00
O291   O     0.40745   0.46625   0.23413   0.00000  Uiso   1.00
O292   O     0.60026   0.52605   0.21361   0.00000  Uiso   1.00
O293   O     0.40405   0.52211   0.28213   0.00000  Uiso   1.00
O294   O     0.58824   0.48559   0.27014   0.00000  Uiso   1.00
O295   O     0.47093   0.40277   0.23413   0.00000  Uiso   1.00
O296   O     0.53678   0.58953   0.21361   0.00000  Uiso   1.00
Zn297  Zn    0.52672   0.47327   0.28734   0.00000  Uiso   1.00
Zn298  Zn    0.46713   0.45791   0.21876   0.00000  Uiso   1.00
Zn299  Zn    0.54389   0.53109   0.20657   0.00000  Uiso   1.00
Zn300  Zn    0.46226   0.53773   0.28734   0.00000  Uiso   1.00
C301   C     0.71937   0.49290   0.26006   0.00000  Uiso   1.00
C302   C     0.84687   0.50055   0.05725   0.00000  Uiso   1.00
C303   C     0.86361   0.43173   0.06283   0.00000  Uiso   1.00
C304   C     0.94735   0.50711   0.24009   0.00000  Uiso   1.00
C305   C     0.81010   0.52789   0.41946   0.00000  Uiso   1.00
C306   C     0.99320   0.50985   0.23623   0.00000  Uiso   1.00
C307   C     0.67410   0.49039   0.26388   0.00000  Uiso   1.00
C308   C     0.84633   0.65586   0.23833   0.00000  Uiso   1.00
C309   C     0.81682   0.34528   0.26494   0.00000  Uiso   1.00
C310   C     0.82314   0.38930   0.25973   0.00000  Uiso   1.00
C311   C     0.84291   0.61117   0.24039   0.00000  Uiso   1.00
C312   C     0.80511   0.58211   0.48050   0.00000  Uiso   1.00
C313   C     0.85168   0.48124   0.12945   0.00000  Uiso   1.00
C314   C     0.81479   0.51760   0.37101   0.00000  Uiso   1.00
C315   C     0.85793   0.41909   0.02029   0.00000  Uiso   1.00
C316   C     0.85739   0.47215   0.08154   0.00000  Uiso   1.00
C317   C     0.80181   0.56825   0.43738   0.00000  Uiso   1.00
C318   C     0.76210   0.35284   0.32984   0.00000  Uiso   1.00
C319   C     0.72730   0.66089   0.36230   0.00000  Uiso   1.00
C320   C     0.81779   0.55647   0.00610   0.00000  Uiso   1.00
C321   C     0.82562   0.51516   0.48969   0.00000  Uiso   1.00
C322   C     0.81916   0.50017   0.44666   0.00000  Uiso   1.00
C323   C     0.83939   0.48814   0.01454   0.00000  Uiso   1.00
C324   C     0.84475   0.44645   0.49655   0.00000  Uiso   1.00
C325   C     0.83499   0.43167   0.45600   0.00000  Uiso   1.00
C326   C     0.82144   0.45776   0.43197   0.00000  Uiso   1.00
H327   H     0.87093   0.40940   0.08208   0.00000  Uiso   1.00
H328   H     0.81190   0.44380   0.40214   0.00000  Uiso   1.00
H329   H     0.68216   0.52774   0.21075   0.00000  Uiso   1.00
H330   H     0.74743   0.37782   0.31990   0.00000  Uiso   1.00
H331   H     0.78727   0.36689   0.34754   0.00000  Uiso   1.00
H332   H     0.74108   0.63578   0.37305   0.00000  Uiso   1.00
H333   H     0.71353   0.34804   0.39223   0.00000  Uiso   1.00
H334   H     0.70131   0.64676   0.34597   0.00000  Uiso   1.00
H335   H     0.98586   0.47237   0.28965   0.00000  Uiso   1.00
H336   H     0.87408   0.33739   0.21522   0.00000  Uiso   1.00
H337   H     0.83715   0.39945   0.44308   0.00000  Uiso   1.00
H338   H     0.86193   0.38729   0.00677   0.00000  Uiso   1.00
H339   H     0.84200   0.53102   0.07391   0.00000  Uiso   1.00
H340   H     0.79446   0.58984   0.41733   0.00000  Uiso   1.00
H341   H     0.82083   0.56997   0.03867   0.00000  Uiso   1.00
H342   H     0.79918   0.61354   0.49370   0.00000  Uiso   1.00
O343   O     0.83333   0.50000   0.25000   0.00000  Uiso   1.00
O344   O     0.82118   0.45970   0.15459   0.00000  Uiso   1.00
O345   O     0.79607   0.53724   0.34968   0.00000  Uiso   1.00
O346   O     0.87491   0.51092   0.14606   0.00000  Uiso   1.00
O347   O     0.84118   0.49213   0.34968   0.00000  Uiso   1.00
O348   O     0.77917   0.65969   0.29193   0.00000  Uiso   1.00
O349   O     0.84597   0.41352   0.28213   0.00000  Uiso   1.00
O350   O     0.81298   0.59418   0.27014   0.00000  Uiso   1.00
O351   O     0.74078   0.46625   0.23413   0.00000  Uiso   1.00
O352   O     0.93360   0.52605   0.21361   0.00000  Uiso   1.00
O353   O     0.73738   0.52211   0.28213   0.00000  Uiso   1.00
O354   O     0.92158   0.48559   0.27014   0.00000  Uiso   1.00
O355   O     0.80426   0.40277   0.23413   0.00000  Uiso   1.00
O356   O     0.87012   0.58953   0.21361   0.00000  Uiso   1.00
Zn357  Zn    0.86005   0.47327   0.28734   0.00000  Uiso   1.00
Zn358  Zn    0.80046   0.45791   0.21876   0.00000  Uiso   1.00
Zn359  Zn    0.87723   0.53109   0.20657   0.00000  Uiso   1.00
Zn360  Zn    0.79560   0.53773   0.28734   0.00000  Uiso   1.00
C361   C     0.05270   0.82623   0.26006   0.00000  Uiso   1.00
C362   C     0.18020   0.83389   0.05725   0.00000  Uiso   1.00
C363   C     0.19694   0.76506   0.06283   0.00000  Uiso   1.00
C364   C     0.28069   0.84045   0.24009   0.00000  Uiso   1.00
C365   C     0.14343   0.86123   0.41946   0.00000  Uiso   1.00
C366   C     0.32653   0.84318   0.23623   0.00000  Uiso   1.00
C367   C     0.00743   0.82372   0.26388   0.00000  Uiso   1.00
C368   C     0.17966   0.98920   0.23833   0.00000  Uiso   1.00
C369   C     0.15015   0.67862   0.26494   0.00000  Uiso   1.00
C370   C     0.15647   0.72263   0.25973   0.00000  Uiso   1.00
C371   C     0.17624   0.94451   0.24039   0.00000  Uiso   1.00
C372   C     0.13844   0.91544   0.48050   0.00000  Uiso   1.00
C373   C     0.18502   0.81457   0.12945   0.00000  Uiso   1.00
C374   C     0.14813   0.85093   0.37101   0.00000  Uiso   1.00
C375   C     0.19127   0.75242   0.02029   0.00000  Uiso   1.00
C376   C     0.19073   0.80548   0.08154   0.00000  Uiso   1.00
C377   C     0.13514   0.90158   0.43738   0.00000  Uiso   1.00
C378   C     0.09543   0.68617   0.32984   0.00000  Uiso   1.00
C379   C     0.06063   0.99422   0.36230   0.00000  Uiso   1.00
C380   C     0.15113   0.88980   0.00610   0.00000  Uiso   1.00
C381   C     0.15895   0.84850   0.48969   0.00000  Uiso   1.00
C382   C     0.15250   0.83350   0.44666   0.00000  Uiso   1.00
C383   C     0.17272   0.82147   0.01454   0.00000  Uiso   1.00
C384   C     0.17808   0.77978   0.49655   0.00000  Uiso   1.00
C385   C     0.16833   0.76501   0.45600   0.00000  Uiso   1.00
C386   C     0.15477   0.79109   0.43197   0.00000  Uiso   1.00
H387   H     0.20426   0.74274   0.08208   0.00000  Uiso   1.00
H388   H     0.14523   0.77713   0.40214   0.00000  Uiso   1.00
H389   H     0.01549   0.86107   0.21075   0.00000  Uiso   1.00
H390   H     0.08076   0.71115   0.31990   0.00000  Uiso   1.00
H391   H     0.12060   0.70022   0.34754   0.00000  Uiso   1.00
H392   H     0.07441   0.96912   0.37305   0.00000  Uiso   1.00
H393   H     0.04686   0.68137   0.39223   0.00000  Uiso   1.00
H394   H     0.03465   0.98009   0.34597   0.00000  Uiso   1.00
H395   H     0.31919   0.80571   0.28965   0.00000  Uiso   1.00
H396   H     0.20741   0.67072   0.21522   0.00000  Uiso   1.00
H397   H     0.17048   0.73278   0.44308   0.00000  Uiso   1.00
H398   H     0.19526   0.72062   0.00677   0.00000  Uiso   1.00
H399   H     0.17534   0.86436   0.07391   0.00000  Uiso   1.00
H400   H     0.12780   0.92317   0.41733   0.00000  Uiso   1.00
H401   H     0.15416   0.90330   0.03867   0.00000  Uiso   1.00
H402   H     0.13251   0.94688   0.49370   0.00000  Uiso   1.00
O403   O     0.16667   0.83333   0.25000   0.00000  Uiso   1.00
O404   O     0.15451   0.79304   0.15459   0.00000  Uiso   1.00
O405   O     0.12940   0.87058   0.34968   0.00000  Uiso   1.00
O406   O     0.20824   0.84425   0.14606   0.00000  Uiso   1.00
O407   O     0.17451   0.82546   0.34968   0.00000  Uiso   1.00
O408   O     0.11250   0.99302   0.29193   0.00000  Uiso   1.00
O409   O     0.17930   0.74686   0.28213   0.00000  Uiso   1.00
O410   O     0.14632   0.92751   0.27014   0.00000  Uiso   1.00
O411   O     0.07412   0.79958   0.23413   0.00000  Uiso   1.00
O412   O     0.26693   0.85939   0.21361   0.00000  Uiso   1.00
O413   O     0.07071   0.85544   0.28213   0.00000  Uiso   1.00
O414   O     0.25491   0.81892   0.27014   0.00000  Uiso   1.00
O415   O     0.13760   0.73610   0.23413   0.00000  Uiso   1.00
O416   O     0.20345   0.92286   0.21361   0.00000  Uiso   1.00
Zn417  Zn    0.19338   0.80661   0.28734   0.00000  Uiso   1.00
Zn418  Zn    0.13379   0.79124   0.21876   0.00000  Uiso   1.00
Zn419  Zn    0.21056   0.86442   0.20657   0.00000  Uiso   1.00
Zn420  Zn    0.12893   0.87106   0.28734   0.00000  Uiso   1.00
C421   C     0.38603   0.82623   0.26006   0.00000  Uiso   1.00
C422   C     0.51353   0.83389   0.05725   0.00000  Uiso   1.00
C423   C     0.53027   0.76506   0.06283   0.00000  Uiso   1.00
C424   C     0.61402   0.84045   0.24009   0.00000  Uiso   1.00
C425   C     0.47677   0.86123   0.41946   0.00000  Uiso   1.00
C426   C     0.65986   0.84318   0.23623   0.00000  Uiso   1.00
C427   C     0.34076   0.82372   0.26388   0.00000  Uiso   1.00
C428   C     0.51299   0.98920   0.23833   0.00000  Uiso   1.00
C429   C     0.48349   0.67862   0.26494   0.00000  Uiso   1.00
C430   C     0.48981   0.72263   0.25973   0.00000  Uiso   1.00
C431   C     0.50958   0.94451   0.24039   0.00000  Uiso   1.00
C432   C     0.47177   0.91544   0.48050   0.00000  Uiso   1.00
C433   C     0.51835   0.81457   0.12945   0.00000  Uiso   1.00
C434   C     0.48146   0.85093   0.37101   0.00000  Uiso   1.00
C435   C     0.52460   0.75242   0.02029   0.00000  Uiso   1.00
C436   C     0.52406   0.80548   0.08154   0.00000  Uiso   1.00
C437   C     0.46848   0.90158   0.43738   0.00000  Uiso   1.00
C438   C     0.42876   0.68617   0.32984   0.00000  Uiso   1.00
C439   C     0.39397   0.99422   0.36230   0.00000  Uiso   1.00
C440   C     0.48446   0.88980   0.00610   0.00000  Uiso   1.00
C441   C     0.49228   0.84850   0.48969   0.00000  Uiso   1.00
C442   C     0.48583   0.83350   0.44666   0.00000  Uiso   1.00
C443   C     0.50605   0.82147   0.01454   0.00000  Uiso   1.00
C444   C     0.51142   0.77978   0.49655   0.00000  Uiso   1.00
C445   C     0.50166   0.76501   0.45600   0.00000  Uiso   1.00
C446   C     0.48811   0.79109   0.43197   0.00000  Uiso   1.00
H447   H     0.53759   0.74274   0.08208   0.00000  Uiso   1.00
H448   H     0.47856   0.77713   0.40214   0.00000  Uiso   1.00
H449   H     0.34883   0.86107   0.21075   0.00000  Uiso   1.00
H450   H     0.41410   0.71115   0.31990   0.00000  Uiso   1.00
H451   H     0.45393   0.70022   0.34754   0.00000  Uiso   1.00
H452   H     0.40774   0.96912   0.37305   0.00000  Uiso   1.00
H453   H     0.38020   0.68137   0.39223   0.00000  Uiso   1.00
H454   H     0.36798   0.98009   0.34597   0.00000  Uiso   1.00
H455   H     0.65252   0.80571   0.28965   0.00000  Uiso   1.00
H456   H     0.54074   0.67072   0.21522   0.00000  Uiso   1.00
H457   H     0.50382   0.73278   0.44308   0.00000  Uiso   1.00
H458   H     0.52860   0.72062   0.00677   0.00000  Uiso   1.00
H459   H     0.50867   0.86436   0.07391   0.00000  Uiso   1.00
H460   H     0.46113   0.92317   0.41733   0.00000  Uiso   1.00
H461   H     0.48749   0.90330   0.03867   0.00000  Uiso   1.00
H462   H     0.46584   0.94688   0.49370   0.00000  Uiso   1.00
O463   O     0.50000   0.83333   0.25000   0.00000  Uiso   1.00
O464   O     0.48784   0.79304   0.15459   0.00000  Uiso   1.00
O465   O     0.46274   0.87058   0.34968   0.00000  Uiso   1.00
O466   O     0.54157   0.84425   0.14606   0.00000  Uiso   1.00
O467   O     0.50785   0.82546   0.34968   0.00000  Uiso   1.00
O468   O     0.44584   0.99302   0.29193   0.00000  Uiso   1.00
O469   O     0.51264   0.74686   0.28213   0.00000  Uiso   1.00
O470   O     0.47965   0.92751   0.27014   0.00000  Uiso   1.00
O471   O     0.40745   0.79958   0.23413   0.00000  Uiso   1.00
O472   O     0.60026   0.85939   0.21361   0.00000  Uiso   1.00
O473   O     0.40405   0.85544   0.28213   0.00000  Uiso   1.00
O474   O     0.58824   0.81892   0.27014   0.00000  Uiso   1.00
O475   O     0.47093   0.73610   0.23413   0.00000  Uiso   1.00
O476   O     0.53678   0.92286   0.21361   0.00000  Uiso   1.00
Zn477  Zn    0.52672   0.80661   0.28734   0.00000  Uiso   1.00
Zn478  Zn    0.46713   0.79124   0.21876   0.00000  Uiso   1.00
Zn479  Zn    0.54389   0.86442   0.20657   0.00000  Uiso   1.00
Zn480  Zn    0.46226   0.87106   0.28734   0.00000  Uiso   1.00
C481   C     0.71937   0.82623   0.26006   0.00000  Uiso   1.00
C482   C     0.84687   0.83389   0.05725   0.00000  Uiso   1.00
C483   C     0.86361   0.76506   0.06283   0.00000  Uiso   1.00
C484   C     0.94735   0.84045   0.24009   0.00000  Uiso   1.00
C485   C     0.81010   0.86123   0.41946   0.00000  Uiso   1.00
C486   C     0.99320   0.84318   0.23623   0.00000  Uiso   1.00
C487   C     0.67410   0.82372   0.26388   0.00000  Uiso   1.00
C488   C     0.84633   0.98920   0.23833   0.00000  Uiso   1.00
C489   C     0.81682   0.67862   0.26494   0.00000  Uiso   1.00
C490   C     0.82314   0.72263   0.25973   0.00000  Uiso   1.00
C491   C     0.84291   0.94451   0.24039   0.00000  Uiso   1.00
C492   C     0.80511   0.91544   0.48050   0.00000  Uiso   1.00
C493   C     0.85168   0.81457   0.12945   0.00000  Uiso   1.00
C494   C     0.81479   0.85093   0.37101   0.00000  Uiso   1.00
C495   C     0.85793   0.75242   0.02029   0.00000  Uiso   1.00
C496   C     0.85739   0.80548   0.08154   0.00000  Uiso   1.00
C497   C     0.80181   0.90158   0.43738   0.00000  Uiso   1.00
C498   C     0.76210   0.68617   0.32984   0.00000  Uiso   1.00
C499   C     0.72730   0.99422   0.36230   0.00000  Uiso   1.00
C500   C     0.81779   0.88980   0.00610   0.00000  Uiso   1.00
C501   C     0.82562   0.84850   0.48969   0.00000  Uiso   1.00
C502   C     0.81916   0.83350   0.44666   0.00000  Uiso   1.00
C503   C     0.83939   0.82147   0.01454   0.00000  Uiso   1.00
C504   C     0.84475   0.77978   0.49655   0.00000  Uiso   1.00
C505   C     0.83499   0.76501   0.45600   0.00000  Uiso   1.00
C506   C     0.82144   0.79109   0.43197   0.00000  Uiso   1.00
H507   H     0.87093   0.74274   0.08208   0.00000  Uiso   1.00
H508   H     0.81190   0.77713   0.40214   0.00000  Uiso   1.00
H509   H     0.68216   0.86107   0.21075   0.00000  Uiso   1.00
H510   H     0.74743   0.71115   0.31990   0.00000  Uiso   1.00
H511   H     0.78727   0.70022   0.34754   0.00000  Uiso   1.00
H512   H     0.74108   0.96912   0.37305   0.00000  Uiso   1.00
H513   H     0.71353   0.68137   0.39223   0.00000  Uiso   1.00
H514   H     0.70131   0.98009   0.34597   0.00000  Uiso   1.00
H515   H     0.98586   0.80571   0.28965   0.00000  Uiso   1.00
H516   H     0.87408   0.67072   0.21522   0.00000  Uiso   1.00
H517   H     0.83715   0.73278   0.44308   0.00000  Uiso   1.00
H518   H     0.86193   0.72062   0.00677   0.00000  Uiso   1.00
H519   H     0.84200   0.86436   0.07391   0.00000  Uiso   1.00
H520   H     0.79446   0.92317   0.41733   0.00000  Uiso   1.00
H521   H     0.82083   0.90330   0.03867   0.00000  Uiso   1.00
H522   H     0.79918   0.94688   0.49370   0.00000  Uiso   1.00
O523   O     0.83333   0.83333   0.25000   0.00000  Uiso   1.00
O524   O     0.82118   0.79304   0.15459   0.00000  Uiso   1.00
O525   O     0.79607   0.87058   0.34968   0.00000  Uiso   1.00
O526   O     0.87491   0.84425   0.14606   0.00000  Uiso   1.00
O527   O     0.84118   0.82546   0.34968   0.00000  Uiso   1.00
O528   O     0.77917   0.99302   0.29193   0.00000  Uiso   1.00
O529   O     0.84597   0.74686   0.28213   0.00000  Uiso   1.00
O530   O     0.81298   0.92751   0.27014   0.00000  Uiso   1.00
O531   O     0.74078   0.79958   0.23413   0.00000  Uiso   1.00
O532   O     0.93360   0.85939   0.21361   0.00000  Uiso   1.00
O533   O     0.73738   0.85544   0.28213   0.00000  Uiso   1.00
O534   O     0.92158   0.81892   0.27014   0.00000  Uiso   1.00
O535   O     0.80426   0.73610   0.23413   0.00000  Uiso   1.00
O536   O     0.87012   0.92286   0.21361   0.00000  Uiso   1.00
Zn537  Zn    0.86005   0.80661   0.28734   0.00000  Uiso   1.00
Zn538  Zn    0.80046   0.79124   0.21876   0.00000  Uiso   1.00
Zn539  Zn    0.87723   0.86442   0.20657   0.00000  Uiso   1.00
Zn540  Zn    0.79560   0.87106   0.28734   0.00000  Uiso   1.00
C541   C     0.05270   0.15956   0.76006   0.00000  Uiso   1.00
C542   C     0.18020   0.16722   0.55725   0.00000  Uiso   1.00
C543   C     0.19694   0.09839   0.56283   0.00000  Uiso   1.00
C544   C     0.28069   0.17378   0.74009   0.00000  Uiso   1.00
C545   C     0.14343   0.19456   0.91946   0.00000  Uiso   1.00
C546   C     0.32653   0.17651   0.73623   0.00000  Uiso   1.00
C547   C     0.00743   0.15706   0.76388   0.00000  Uiso   1.00
C548   C     0.17966   0.32253   0.73833   0.00000  Uiso   1.00
C549   C     0.15015   0.01195   0.76494   0.00000  Uiso   1.00
C550   C     0.15647   0.05597   0.75973   0.00000  Uiso   1.00
C551   C     0.17624   0.27784   0.74039   0.00000  Uiso   1.00
C552   C     0.13844   0.24878   0.98050   0.00000  Uiso   1.00
C553   C     0.18502   0.14791   0.62945   0.00000  Uiso   1.00
C554   C     0.14813   0.18427   0.87101   0.00000  Uiso   1.00
C555   C     0.19127   0.08575   0.52029   0.00000  Uiso   1.00
C556   C     0.19073   0.13882   0.58154   0.00000  Uiso   1.00
C557   C     0.13514   0.23492   0.93738   0.00000  Uiso   1.00
C558   C     0.09543   0.01950   0.82984   0.00000  Uiso   1.00
C559   C     0.06063   0.32755   0.86230   0.00000  Uiso   1.00
C560   C     0.15113   0.22313   0.50610   0.00000  Uiso   1.00
C561   C     0.15895   0.18183   0.98969   0.00000  Uiso   1.00
C562   C     0.15250   0.16683   0.94666   0.00000  Uiso   1.00
C563   C     0.17272   0.15480   0.51454   0.00000  Uiso   1.00
C564   C     0.17808   0.11311   0.99655   0.00000  Uiso   1.00
C565   C     0.16833   0.09834   0.95600   0.00000  Uiso   1.00
C566   C     0.15477   0.12443   0.93197   0.00000  Uiso   1.00
H567   H     0.20426   0.07607   0.58208   0.00000  Uiso   1.00
H568   H     0.14523   0.11046   0.90214   0.00000  Uiso   1.00
H569   H     0.01549   0.19441   0.71075   0.00000  Uiso   1.00
H570   H     0.08076   0.04449   0.81990   0.00000  Uiso   1.00
H571   H     0.12060   0.03355   0.84754   0.00000  Uiso   1.00
H572   H     0.07441   0.30245   0.87305   0.00000  Uiso   1.00
H573   H     0.04686   0.01470   0.89223   0.00000  Uiso   1.00
H574   H     0.03465   0.31343   0.84597   0.00000  Uiso   1.00
H575   H     0.31919   0.13904   0.78965   0.00000  Uiso   1.00
H576   H     0.20741   0.00406   0.71522   0.00000  Uiso   1.00
H577   H     0.17048   0.06612   0.94308   0.00000  Uiso   1.00
H578   H     0.19526   0.05395   0.50677   0.00000  Uiso   1.00
H579   H     0.17534   0.19769   0.57391   0.00000  Uiso   1.00
H580   H     0.12780   0.25651   0.91733   0.00000  Uiso   1.00
H581   H     0.15416   0.23664   0.53867   0.00000  Uiso   1.00
H582   H     0.13251   0.28021   0.99370   0.00000  Uiso   1.00
O583   O     0.16667   0.16667   0.75000   0.00000  Uiso   1.00
O584   O     0.15451   0.12637   0.65459   0.00000  Uiso   1.00
O585   O     0.12940   0.20391   0.84968   0.00000  Uiso   1.00
O586   O     0.20824   0.17759   0.64606   0.00000  Uiso   1.00
O587   O     0.17451   0.15880   0.84968   0.00000  Uiso   1.00
O588   O     0.11250   0.32635   0.79193   0.00000  Uiso   1.00
O589   O     0.17930   0.08019   0.78213   0.00000  Uiso   1.00
O590   O     0.14632   0.26085   0.77014   0.00000  Uiso   1.00
O591   O     0.07412   0.13291   0.73413   0.00000  Uiso   1.00
O592   O     0.26693   0.19272   0.71361   0.00000  Uiso   1.00
O593   O     0.07071   0.18878   0.78213   0.00000  Uiso   1.00
O594   O     0.25491   0.15226   0.77014   0.00000  Uiso   1.00
O595   O     0.13760   0.06944   0.73413   0.00000  Uiso   1.00
O596   O     0.20345   0.25620   0.71361   0.00000  Uiso   1.00
Zn597  Zn    0.19338   0.13994   0.78734   0.00000  Uiso   1.00
Zn598  Zn    0.13379   0.12458   0.71876   0.00000  Uiso   1.00
Zn599  Zn    0.21056   0.19775   0.70657   0.00000  Uiso   1.00
Zn600  Zn    0.12893   0.20439   0.78734   0.00000  Uiso   1.00
C601   C     0.38603   0.15956   0.76006   0.00000  Uiso   1.00
C602   C     0.51353   0.16722   0.55725   0.00000  Uiso   1.00
C603   C     0.53027   0.09839   0.56283   0.00000  Uiso   1.00
C604   C     0.61402   0.17378   0.74009   0.00000  Uiso   1.00
C605   C     0.47677   0.19456   0.91946   0.00000  Uiso   1.00
C606   C     0.65986   0.17651   0.73623   0.00000  Uiso   1.00
C607   C     0.34076   0.15706   0.76388   0.00000  Uiso   1.00
C608   C     0.51299   0.32253   0.73833   0.00000  Uiso   1.00
C609   C     0.48349   0.01195   0.76494   0.00000  Uiso   1.00
C610   C     0.48981   0.05597   0.75973   0.00000  Uiso   1.00
C611   C     0.50958   0.27784   0.74039   0.00000  Uiso   1.00
C612   C     0.47177   0.24878   0.98050   0.00000  Uiso   1.00
C613   C     0.51835   0.14791   0.62945   0.00000  Uiso   1.00
C614   C     0.48146   0.18427   0.87101   0.00000  Uiso   1.00
C615   C     0.52460   0.08575   0.52029   0.00000  Uiso   1.00
C616   C     0.52406   0.13882   0.58154   0.00000  Uiso   1.00
C617   C     0.46848   0.23492   0.93738   0.00000  Uiso   1.00
C618   C     0.42876   0.01950   0.82984   0.00000  Uiso   1.00
C619   C     0.39397   0.32755   0.86230   0.00000  Uiso   1.00
C620   C     0.48446   0.22313   0.50610   0.00000  Uiso   1.00
C621   C     0.49228   0.18183   0.98969   0.00000  Uiso   1.00
C622   C     0.48583   0.16683   0.94666   0.00000  Uiso   1.00
C623   C     0.50605   0.15480   0.51454   0.00000  Uiso   1.00
C624   C     0.51142   0.11311   0.99655   0.00000  Uiso   1.00
C625   C     0.50166   0.09834   0.95600   0.00000  Uiso   1.00
C626   C     0.48811   0.12443   0.93197   0.00000  Uiso   1.00
H627   H     0.53759   0.07607   0.58208   0.00000  Uiso   1.00
H628   H     0.47856   0.11046   0.90214   0.00000  Uiso   1.00
H629   H     0.34883   0.19441   0.71075   0.00000  Uiso   1.00
H630   H     0.41410   0.04449   0.81990   0.00000  Uiso   1.00
H631   H     0.45393   0.03355   0.84754   0.00000  Uiso   1.00
H632   H     0.40774   0.30245   0.87305   0.00000  Uiso   1.00
H633   H     0.38020   0.01470   0.89223   0.00000  Uiso   1.00
H634   H     0.36798   0.31343   0.84597   0.00000  Uiso   1.00
H635   H     0.65252   0.13904   0.78965   0.00000  Uiso   1.00
H636   H     0.54074   0.00406   0.71522   0.00000  Uiso   1.00
H637   H     0.50382   0.06612   0.94308   0.00000  Uiso   1.00
H638   H     0.52860   0.05395   0.50677   0.00000  Uiso   1.00
H639   H     0.50867   0.19769   0.57391   0.00000  Uiso   1.00
H640   H     0.46113   0.25651   0.91733   0.00000  Uiso   1.00
H641   H     0.48749   0.23664   0.53867   0.00000  Uiso   1.00
H642   H     0.46584   0.28021   0.99370   0.00000  Uiso   1.00
O643   O     0.50000   0.16667   0.75000   0.00000  Uiso   1.00
O644   O     0.48784   0.12637   0.65459   0.00000  Uiso   1.00
O645   O     0.46274   0.20391   0.84968   0.00000  Uiso   1.00
O646   O     0.54157   0.17759   0.64606   0.00000  Uiso   1.00
O647   O     0.50785   0.15880   0.84968   0.00000  Uiso   1.00
O648   O     0.44584   0.32635   0.79193   0.00000  Uiso   1.00
O649   O     0.51264   0.08019   0.78213   0.00000  Uiso   1.00
O650   O     0.47965   0.26085   0.77014   0.00000  Uiso   1.00
O651   O     0.40745   0.13291   0.73413   0.00000  Uiso   1.00
O652   O     0.60026   0.19272   0.71361   0.00000  Uiso   1.00
O653   O     0.40405   0.18878   0.78213   0.00000  Uiso   1.00
O654   O     0.58824   0.15226   0.77014   0.00000  Uiso   1.00
O655   O     0.47093   0.06944   0.73413   0.00000  Uiso   1.00
O656   O     0.53678   0.25620   0.71361   0.00000  Uiso   1.00
Zn657  Zn    0.52672   0.13994   0.78734   0.00000  Uiso   1.00
Zn658  Zn    0.46713   0.12458   0.71876   0.00000  Uiso   1.00
Zn659  Zn    0.54389   0.19775   0.70657   0.00000  Uiso   1.00
Zn660  Zn    0.46226   0.20439   0.78734   0.00000  Uiso   1.00
C661   C     0.71937   0.15956   0.76006   0.00000  Uiso   1.00
C662   C     0.84687   0.16722   0.55725   0.00000  Uiso   1.00
C663   C     0.86361   0.09839   0.56283   0.00000  Uiso   1.00
C664   C     0.94735   0.17378   0.74009   0.00000  Uiso   1.00
C665   C     0.81010   0.19456   0.91946   0.00000  Uiso   1.00
C666   C     0.99320   0.17651   0.73623   0.00000  Uiso   1.00
C667   C     0.67410   0.15706   0.76388   0.00000  Uiso   1.00
C668   C     0.84633   0.32253   0.73833   0.00000  Uiso   1.00
C669   C     0.81682   0.01195   0.76494   0.00000  Uiso   1.00
C670   C     0.82314   0.05597   0.75973   0.00000  Uiso   1.00
C671   C     0.84291   0.27784   0.74039   0.00000  Uiso   1.00
C672   C     0.80511   0.24878   0.98050   0.00000  Uiso   1.00
C673   C     0.85168   0.14791   0.62945   0.00000  Uiso   1.00
C674   C     0.81479   0.18427   0.87101   0.00000  Uiso   1.00
C675   C     0.85793   0.08575   0.52029   0.00000  Uiso   1.00
C676   C     0.85739   0.13882   0.58154   0.00000  Uiso   1.00
C677   C     0.80181   0.23492   0.93738   0.00000  Uiso   1.00
C678   C     0.76210   0.01950   0.82984   0.00000  Uiso   1.00
C679   C     0.72730   0.32755   0.86230   0.00000  Uiso   1.00
C680   C     0.81779   0.22313   0.50610   0.00000  Uiso   1.00
C681   C     0.82562   0.18183   0.98969   0.00000  Uiso   1.00
C682   C     0.81916   0.16683   0.94666   0.00000  Uiso   1.00
C683   C     0.83939   0.15480   0.51454   0.00000  Uiso   1.00
C684   C     0.84475   0.11311   0.99655   0.00000  Uiso   1.00
C685   C     0.83499   0.09834   0.95600   0.00000  Uiso   1.00
C686   C     0.82144   0.12443   0.93197   0.00000  Uiso   1.00
H687   H     0.87093   0.07607   0.58208   0.00000  Uiso   1.00
H688   H     0.81190   0.11046   0.90214   0.00000  Uiso   1.00
H689   H     0.68216   0.19441   0.71075   0.00000  Uiso   1.00
H690   H     0.74743   0.04449   0.81990   0.00000  Uiso   1.00
H691   H     0.78727   0.03355   0.84754   0.00000  Uiso   1.00
H692   H     0.74108   0.30245   0.87305   0.00000  Uiso   1.00
H693   H     0.71353   0.01470   0.89223   0.00000  Uiso   1.00
H694   H     0.70131   0.31343   0.84597   0.00000  Uiso   1.00
H695   H     0.98586   0.13904   0.78965   0.00000  Uiso   1.00
H696   H     0.87408   0.00406   0.71522   0.00000  Uiso   1.00
H697   H     0.83715   0.06612   0.94308   0.00000  Uiso   1.00
H698   H     0.86193   0.05395   0.50677   0.00000  Uiso   1.00
H699   H     0.84200   0.19769   0.57391   0.00000  Uiso   1.00
H700   H     0.79446   0.25651   0.91733   0.00000  Uiso   1.00
H701   H     0.82083   0.23664   0.53867   0.00000  Uiso   1.00
H702   H     0.79918   0.28021   0.99370   0.00000  Uiso   1.00
O703   O     0.83333   0.16667   0.75000   0.00000  Uiso   1.00
O704   O     0.82118   0.12637   0.65459   0.00000  Uiso   1.00
O705   O     0.79607   0.20391   0.84968   0.00000  Uiso   1.00
O706   O     0.87491   0.17759   0.64606   0.00000  Uiso   1.00
O707   O     0.84118   0.15880   0.84968   0.00000  Uiso   1.00
O708   O     0.77917   0.32635   0.79193   0.00000  Uiso   1.00
O709   O     0.84597   0.08019   0.78213   0.00000  Uiso   1.00
O710   O     0.81298   0.26085   0.77014   0.00000  Uiso   1.00
O711   O     0.74078   0.13291   0.73413   0.00000  Uiso   1.00
O712   O     0.93360   0.19272   0.71361   0.00000  Uiso   1.00
O713   O     0.73738   0.18878   0.78213   0.00000  Uiso   1.00
O714   O     0.92158   0.15226   0.77014   0.00000  Uiso   1.00
O715   O     0.80426   0.06944   0.73413   0.00000  Uiso   1.00
O716   O     0.87012   0.25620   0.71361   0.00000  Uiso   1.00
Zn717  Zn    0.86005   0.13994   0.78734   0.00000  Uiso   1.00
Zn718  Zn    0.80046   0.12458   0.71876   0.00000  Uiso   1.00
Zn719  Zn    0.87723   0.19775   0.70657   0.00000  Uiso   1.00
Zn720  Zn    0.79560   0.20439   0.78734   0.00000  Uiso   1.00
C721   C     0.05270   0.49290   0.76006   0.00000  Uiso   1.00
C722   C     0.18020   0.50055   0.55725   0.00000  Uiso   1.00
C723   C     0.19694   0.43173   0.56283   0.00000  Uiso   1.00
C724   C     0.28069   0.50711   0.74009   0.00000  Uiso   1.00
C725   C     0.14343   0.52789   0.91946   0.00000  Uiso   1.00
C726   C     0.32653   0.50985   0.73623   0.00000  Uiso   1.00
C727   C     0.00743   0.49039   0.76388   0.00000  Uiso   1.00
C728   C     0.17966   0.65586   0.73833   0.00000  Uiso   1.00
C729   C     0.15015   0.34528   0.76494   0.00000  Uiso   1.00
C730   C     0.15647   0.38930   0.75973   0.00000  Uiso   1.00
C731   C     0.17624   0.61117   0.74039   0.00000  Uiso   1.00
C732   C     0.13844   0.58211   0.98050   0.00000  Uiso   1.00
C733   C     0.18502   0.48124   0.62945   0.00000  Uiso   1.00
C734   C     0.14813   0.51760   0.87101   0.00000  Uiso   1.00
C735   C     0.19127   0.41909   0.52029   0.00000  Uiso   1.00
C736   C     0.19073   0.47215   0.58154   0.00000  Uiso   1.00
C737   C     0.13514   0.56825   0.93738   0.00000  Uiso   1.00
C738   C     0.09543   0.35284   0.82984   0.00000  Uiso   1.00
C739   C     0.06063   0.66089   0.86230   0.00000  Uiso   1.00
C740   C     0.15113   0.55647   0.50610   0.00000  Uiso   1.00
C741   C     0.15895   0.51516   0.98969   0.00000  Uiso   1.00
C742   C     0.15250   0.50017   0.94666   0.00000  Uiso   1.00
C743   C     0.17272   0.48814   0.51454   0.00000  Uiso   1.00
C744   C     0.17808   0.44645   0.99655   0.00000  Uiso   1.00
C745   C     0.16833   0.43167   0.95600   0.00000  Uiso   1.00
C746   C     0.15477   0.45776   0.93197   0.00000  Uiso   1.00
H747   H     0.20426   0.40940   0.58208   0.00000  Uiso   1.00
H748   H     0.14523   0.44380   0.90214   0.00000  Uiso   1.00
H749   H     0.01549   0.52774   0.71075   0.00000  Uiso   1.00
H750   H     0.08076   0.37782   0.81990   0.00000  Uiso   1.00
H751   H     0.12060   0.36689   0.84754   0.00000  Uiso   1.00
H752   H     0.07441   0.63578   0.87305   0.00000  Uiso   1.00
H753   H     0.04686   0.34804   0.89223   0.00000  Uiso   1.00
H754   H     0.03465   0.64676   0.84597   0.00000  Uiso   1.00
H755   H     0.31919   0.47237   0.78965   0.00000  Uiso   1.00
H756   H     0.20741   0.33739   0.71522   0.00000  Uiso   1.00
H757   H     0.17048   0.39945   0.94308   0.00000  Uiso   1.00
H758   H     0.19526   0.38729   0.50677   0.00000  Uiso   1.00
H759   H     0.17534   0.53102   0.57391   0.00000  Uiso   1.00
H760   H     0.12780   0.58984   0.91733   0.00000  Uiso   1.00
H761   H     0.15416   0.56997   0.53867   0.00000  Uiso   1.00
H762   H     0.13251   0.61354   0.99370   0.00000  Uiso   1.00
O763   O     0.16667   0.50000   0.75000   0.00000  Uiso   1.00
O764   O     0.15451   0.45970   0.65459   0.00000  Uiso   1.00
O765   O     0.12940   0.53724   0.84968   0.00000  Uiso   1.00
O766   O     0.20824   0.51092   0.64606   0.00000  Uiso   1.00
O767   O     0.17451   0.49213   0.84968   0.00000  Uiso   1.00
O768   O     0.11250   0.65969   0.79193   0.00000  Uiso   1.00
O769   O     0.17930   0.41352   0.78213   0.00000  Uiso   1.00
O770   O     0.14632   0.59418   0.77014   0.00000  Uiso   1.00
O771   O     0.07412   0.46625   0.73413   0.00000  Uiso   1.00
O772   O     0.26693   0.52605   0.71361   0.00000  Uiso   1.00
O773   O     0.07071   0.52211   0.78213   0.00000  Uiso   1.00
O774   O     0.25491   0.48559   0.77014   0.00000  Uiso   1.00
O775   O     0.13760   0.40277   0.73413   0.00000  Uiso   1.00
O776   O     0.20345   0.58953   0.71361   0.00000  Uiso   1.00
Zn777  Zn    0.19338   0.47327   0.78734   0.00000  Uiso   1.00
Zn778  Zn    0.13379   0.45791   0.71876   0.00000  Uiso   1.00
Zn779  Zn    0.21056   0.53109   0.70657   0.00000  Uiso   1.00
Zn780  Zn    0.12893   0.53773   0.78734   0.00000  Uiso   1.00
C781   C     0.38603   0.49290   0.76006   0.00000  Uiso   1.00
C782   C     0.51353   0.50055   0.55725   0.00000  Uiso   1.00
C783   C     0.53027   0.43173   0.56283   0.00000  Uiso   1.00
C784   C     0.61402   0.50711   0.74009   0.00000  Uiso   1.00
C785   C     0.47677   0.52789   0.91946   0.00000  Uiso   1.00
C786   C     0.65986   0.50985   0.73623   0.00000  Uiso   1.00
C787   C     0.34076   0.49039   0.76388   0.00000  Uiso   1.00
C788   C     0.51299   0.65586   0.73833   0.00000  Uiso   1.00
C789   C     0.48349   0.34528   0.76494   0.00000  Uiso   1.00
C790   C     0.48981   0.38930   0.75973   0.00000  Uiso   1.00
C791   C     0.50958   0.61117   0.74039   0.00000  Uiso   1.00
C792   C     0.47177   0.58211   0.98050   0.00000  Uiso   1.00
C793   C     0.51835   0.48124   0.62945   0.00000  Uiso   1.00
C794   C     0.48146   0.51760   0.87101   0.00000  Uiso   1.00
C795   C     0.52460   0.41909   0.52029   0.00000  Uiso   1.00
C796   C     0.52406   0.47215   0.58154   0.00000  Uiso   1.00
C797   C     0.46848   0.56825   0.93738   0.00000  Uiso   1.00
C798   C     0.42876   0.35284   0.82984   0.00000  Uiso   1.00
C799   C     0.39397   0.66089   0.86230   0.00000  Uiso   1.00
C800   C     0.48446   0.55647   0.50610   0.00000  Uiso   1.00
C801   C     0.49228   0.51516   0.98969   0.00000  Uiso   1.00
C802   C     0.48583   0.50017   0.94666   0.00000  Uiso   1.00
C803   C     0.50605   0.48814   0.51454   0.00000  Uiso   1.00
C804   C     0.51142   0.44645   0.99655   0.00000  Uiso   1.00
C805   C     0.50166   0.43167   0.95600   0.00000  Uiso   1.00
C806   C     0.48811   0.45776   0.93197   0.00000  Uiso   1.00
H807   H     0.53759   0.40940   0.58208   0.00000  Uiso   1.00
H808   H     0.47856   0.44380   0.90214   0.00000  Uiso   1.00
H809   H     0.34883   0.52774   0.71075   0.00000  Uiso   1.00
H810   H     0.41410   0.37782   0.81990   0.00000  Uiso   1.00
H811   H     0.45393   0.36689   0.84754   0.00000  Uiso   1.00
H812   H     0.40774   0.63578   0.87305   0.00000  Uiso   1.00
H813   H     0.38020   0.34804   0.89223   0.00000  Uiso   1.00
H814   H     0.36798   0.64676   0.84597   0.00000  Uiso   1.00
H815   H     0.65252   0.47237   0.78965   0.00000  Uiso   1.00
H816   H     0.54074   0.33739   0.71522   0.00000  Uiso   1.00
H817   H     0.50382   0.39945   0.94308   0.00000  Uiso   1.00
H818   H     0.52860   0.38729   0.50677   0.00000  Uiso   1.00
H819   H     0.50867   0.53102   0.57391   0.00000  Uiso   1.00
H820   H     0.46113   0.58984   0.91733   0.00000  Uiso   1.00
H821   H     0.48749   0.56997   0.53867   0.00000  Uiso   1.00
H822   H     0.46584   0.61354   0.99370   0.00000  Uiso   1.00
O823   O     0.50000   0.50000   0.75000   0.00000  Uiso   1.00
O824   O     0.48784   0.45970   0.65459   0.00000  Uiso   1.00
O825   O     0.46274   0.53724   0.84968   0.00000  Uiso   1.00
O826   O     0.54157   0.51092   0.64606   0.00000  Uiso   1.00
O827   O     0.50785   0.49213   0.84968   0.00000  Uiso   1.00
O828   O     0.44584   0.65969   0.79193   0.00000  Uiso   1.00
O829   O     0.51264   0.41352   0.78213   0.00000  Uiso   1.00
O830   O     0.47965   0.59418   0.77014   0.00000  Uiso   1.00
O831   O     0.40745   0.46625   0.73413   0.00000  Uiso   1.00
O832   O     0.60026   0.52605   0.71361   0.00000  Uiso   1.00
O833   O     0.40405   0.52211   0.78213   0.00000  Uiso   1.00
O834   O     0.58824   0.48559   0.77014   0.00000  Uiso   1.00
O835   O     0.47093   0.40277   0.73413   0.00000  Uiso   1.00
O836   O     0.53678   0.58953   0.71361   0.00000  Uiso   1.00
Zn837  Zn    0.52672   0.47327   0.78734   0.00000  Uiso   1.00
Zn838  Zn    0.46713   0.45791   0.71876   0.00000  Uiso   1.00
Zn839  Zn    0.54389   0.53109   0.70657   0.00000  Uiso   1.00
Zn840  Zn    0.46226   0.53773   0.78734   0.00000  Uiso   1.00
C841   C     0.71937   0.49290   0.76006   0.00000  Uiso   1.00
C842   C     0.84687   0.50055   0.55725   0.00000  Uiso   1.00
C843   C     0.86361   0.43173   0.56283   0.00000  Uiso   1.00
C844   C     0.94735   0.50711   0.74009   0.00000  Uiso   1.00
C845   C     0.81010   0.52789   0.91946   0.00000  Uiso   1.00
C846   C     0.99320   0.50985   0.73623   0.00000  Uiso   1.00
C847   C     0.67410   0.49039   0.76388   0.00000  Uiso   1.00
C848   C     0.84633   0.65586   0.73833   0.00000  Uiso   1.00
C849   C     0.81682   0.34528   0.76494   0.00000  Uiso   1.00
C850   C     0.82314   0.38930   0.75973   0.00000  Uiso   1.00
C851   C     0.84291   0.61117   0.74039   0.00000  Uiso   1.00
C852   C     0.80511   0.58211   0.98050   0.00000  Uiso   1.00
C853   C     0.85168   0.48124   0.62945   0.00000  Uiso   1.00
C854   C     0.81479   0.51760   0.87101   0.00000  Uiso   1.00
C855   C     0.85793   0.41909   0.52029   0.00000  Uiso   1.00
C856   C     0.85739   0.47215   0.58154   0.00000  Uiso   1.00
C857   C     0.80181   0.56825   0.93738   0.00000  Uiso   1.00
C858   C     0.76210   0.35284   0.82984   0.00000  Uiso   1.00
C859   C     0.72730   0.66089   0.86230   0.00000  Uiso   1.00
C860   C     0.81779   0.55647   0.50610   0.00000  Uiso   1.00
C861   C     0.82562   0.51516   0.98969   0.00000  Uiso   1.00
C862   C     0.81916   0.50017   0.94666   0.00000  Uiso   1.00
C863   C     0.83939   0.48814   0.51454   0.00000  Uiso   1.00
C864   C     0.84475   0.44645   0.99655   0.00000  Uiso   1.00
C865   C     0.83499   0.43167   0.95600   0.00000  Uiso   1.00
C866   C     0.82144   0.45776   0.93197   0.00000  Uiso   1.00
H867   H     0.87093   0.40940   0.58208   0.00000  Uiso   1.00
H868   H     0.81190   0.44380   0.90214   0.00000  Uiso   1.00
H869   H     0.68216   0.52774   0.71075   0.00000  Uiso   1.00
H870   H     0.74743   0.37782   0.81990   0.00000  Uiso   1.00
H871   H     0.78727   0.36689   0.84754   0.00000  Uiso   1.00
H872   H     0.74108   0.63578   0.87305   0.00000  Uiso   1.00
H873   H     0.71353   0.34804   0.89223   0.00000  Uiso   1.00
H874   H     0.70131   0.64676   0.84597   0.00000  Uiso   1.00
H875   H     0.98586   0.47237   0.78965   0.00000  Uiso   1.00
H876   H     0.87408   0.33739   0.71522   0.00000  Uiso   1.00
H877   H     0.83715   0.39945   0.94308   0.00000  Uiso   1.00
H878   H     0.86193   0.38729   0.50677   0.00000  Uiso   1.00
H879   H     0.84200   0.53102   0.57391   0.00000  Uiso   1.00
H880   H     0.79446   0.58984   0.91733   0.00000  Uiso   1.00
H881   H     0.82083   0.56997   0.53867   0.00000  Uiso   1.00
H882   H     0.79918   0.61354   0.99370   0.00000  Uiso   1.00
O883   O     0.83333   0.50000   0.75000   0.00000  Uiso   1.00
O884   O     0.82118   0.45970   0.65459   0.00000  Uiso   1.00
O885   O     0.79607   0.53724   0.84968   0.00000  Uiso   1.00
O886   O     0.87491   0.51092   0.64606   0.00000  Uiso   1.00
O887   O     0.84118   0.49213   0.84968   0.00000  Uiso   1.00
O888   O     0.77917   0.65969   0.79193   0.00000  Uiso   1.00
O889   O     0.84597   0.41352   0.78213   0.00000  Uiso   1.00
O890   O     0.81298   0.59418   0.77014   0.00000  Uiso   1.00
O891   O     0.74078   0.46625   0.73413   0.00000  Uiso   1.00
O892   O     0.93360   0.52605   0.71361   0.00000  Uiso   1.00
O893   O     0.73738   0.52211   0.78213   0.00000  Uiso   1.00
O894   O     0.92158   0.48559   0.77014   0.00000  Uiso   1.00
O895   O     0.80426   0.40277   0.73413   0.00000  Uiso   1.00
O896   O     0.87012   0.58953   0.71361   0.00000  Uiso   1.00
Zn897  Zn    0.86005   0.47327   0.78734   0.00000  Uiso   1.00
Zn898  Zn    0.80046   0.45791   0.71876   0.00000  Uiso   1.00
Zn899  Zn    0.87723   0.53109   0.70657   0.00000  Uiso   1.00
Zn900  Zn    0.79560   0.53773   0.78734   0.00000  Uiso   1.00
C901   C     0.05270   0.82623   0.76006   0.00000  Uiso   1.00
C902   C     0.18020   0.83389   0.55725   0.00000  Uiso   1.00
C903   C     0.19694   0.76506   0.56283   0.00000  Uiso   1.00
C904   C     0.28069   0.84045   0.74009   0.00000  Uiso   1.00
C905   C     0.14343   0.86123   0.91946   0.00000  Uiso   1.00
C906   C     0.32653   0.84318   0.73623   0.00000  Uiso   1.00
C907   C     0.00743   0.82372   0.76388   0.00000  Uiso   1.00
C908   C     0.17966   0.98920   0.73833   0.00000  Uiso   1.00
C909   C     0.15015   0.67862   0.76494   0.00000  Uiso   1.00
C910   C     0.15647   0.72263   0.75973   0.00000  Uiso   1.00
C911   C     0.17624   0.94451   0.74039   0.00000  Uiso   1.00
C912   C     0.13844   0.91544   0.98050   0.00000  Uiso   1.00
C913   C     0.18502   0.81457   0.62945   0.00000  Uiso   1.00
C914   C     0.14813   0.85093   0.87101   0.00000  Uiso   1.00
C915   C     0.19127   0.75242   0.52029   0.00000  Uiso   1.00
C916   C     0.19073   0.80548   0.58154   0.00000  Uiso   1.00
C917   C     0.13514   0.90158   0.93738   0.00000  Uiso   1.00
C918   C     0.09543   0.68617   0.82984   0.00000  Uiso   1.00
C919   C     0.06063   0.99422   0.86230   0.00000  Uiso   1.00
C920   C     0.15113   0.88980   0.50610   0.00000  Uiso   1.00
C921   C     0.15895   0.84850   0.98969   0.00000  Uiso   1.00
C922   C     0.15250   0.83350   0.94666   0.00000  Uiso   1.00
C923   C     0.17272   0.82147   0.51454   0.00000  Uiso   1.00
C924   C     0.17808   0.77978   0.99655   0.00000  Uiso   1.00
C925   C     0.16833   0.76501   0.95600   0.00000  Uiso   1.00
C926   C     0.15477   0.79109   0.93197   0.00000  Uiso   1.00
H927   H     0.20426   0.74274   0.58208   0.00000  Uiso   1.00
H928   H     0.14523   0.77713   0.90214   0.00000  Uiso   1.00
H929   H     0.01549   0.86107   0.71075   0.00000  Uiso   1.00
H930   H     0.08076   0.71115   0.81990   0.00000  Uiso   1.00
H931   H     0.12060   0.70022   0.84754   0.00000  Uiso   1.00
H932   H     0.07441   0.96912   0.87305   0.00000  Uiso   1.00
H933   H     0.04686   0.68137   0.89223   0.00000  Uiso   1.00
H934   H     0.03465   0.98009   0.84597   0.00000  Uiso   1.00
H935   H     0.31919   0.80571   0.78965   0.00000  Uiso   1.00
H936   H     0.20741   0.67072   0.71522   0.00000  Uiso   1.00
H937   H     0.17048   0.73278   0.94308   0.00000  Uiso   1.00
H938   H     0.19526   0.72062   0.50677   0.00000  Uiso   1.00
H939   H     0.17534   0.86436   0.57391   0.00000  Uiso   1.00
H940   H     0.12780   0.92317   0.91733   0.00000  Uiso   1.00
H941   H     0.15416   0.90330   0.53867   0.00000  Uiso   1.00
H942   H     0.13251   0.94688   0.99370   0.00000  Uiso   1.00
O943   O     0.16667   0.83333   0.75000   0.00000  Uiso   1.00
O944   O     0.15451   0.79304   0.65459   0.00000  Uiso   1.00
O945   O     0.12940   0.87058   0.84968   0.00000  Uiso   1.00
O946   O     0.20824   0.84425   0.64606   0.00000  Uiso   1.00
O947   O     0.17451   0.82546   0.84968   0.00000  Uiso   1.00
O948   O     0.11250   0.99302   0.79193   0.00000  Uiso   1.00
O949   O     0.17930   0.74686   0.78213   0.00000  Uiso   1.00
O950   O     0.14632   0.92751   0.77014   0.00000  Uiso   1.00
O951   O     0.07412   0.79958   0.73413   0.00000  Uiso   1.00
O952   O     0.26693   0.85939   0.71361   0.00000  Uiso   1.00
O953   O     0.07071   0.85544   0.78213   0.00000  Uiso   1.00
O954   O     0.25491   0.81892   0.77014   0.00000  Uiso   1.00
O955   O     0.13760   0.73610   0.73413   0.00000  Uiso   1.00
O956   O     0.20345   0.92286   0.71361   0.00000  Uiso   1.00
Zn957  Zn    0.19338   0.80661   0.78734   0.00000  Uiso   1.00
Zn958  Zn    0.13379   0.79124   0.71876   0.00000  Uiso   1.00
Zn959  Zn    0.21056   0.86442   0.70657   0.00000  Uiso   1.00
Zn960  Zn    0.12893   0.87106   0.78734   0.00000  Uiso   1.00
C961   C     0.38603   0.82623   0.76006   0.00000  Uiso   1.00
C962   C     0.51353   0.83389   0.55725   0.00000  Uiso   1.00
C963   C     0.53027   0.76506   0.56283   0.00000  Uiso   1.00
C964   C     0.61402   0.84045   0.74009   0.00000  Uiso   1.00
C965   C     0.47677   0.86123   0.91946   0.00000  Uiso   1.00
C966   C     0.65986   0.84318   0.73623   0.00000  Uiso   1.00
C967   C     0.34076   0.82372   0.76388   0.00000  Uiso   1.00
C968   C     0.51299   0.98920   0.73833   0.00000  Uiso   1.00
C969   C     0.48349   0.67862   0.76494   0.00000  Uiso   1.00
C970   C     0.48981   0.72263   0.75973   0.00000  Uiso   1.00
C971   C     0.50958   0.94451   0.74039   0.00000  Uiso   1.00
C972   C     0.47177   0.91544   0.98050   0.00000  Uiso   1.00
C973   C     0.51835   0.81457   0.62945   0.00000  Uiso   1.00
C974   C     0.48146   0.85093   0.87101   0.00000  Uiso   1.00
C975   C     0.52460   0.75242   0.52029   0.00000  Uiso   1.00
C976   C     0.52406   0.80548   0.58154   0.00000  Uiso   1.00
C977   C     0.46848   0.90158   0.93738   0.00000  Uiso   1.00
C978   C     0.42876   0.68617   0.82984   0.00000  Uiso   1.00
C979   C     0.39397   0.99422   0.86230   0.00000  Uiso   1.00
C980   C     0.48446   0.88980   0.50610   0.00000  Uiso   1.00
C981   C     0.49228   0.84850   0.98969   0.00000  Uiso   1.00
C982   C     0.48583   0.83350   0.94666   0.00000  Uiso   1.00
C983   C     0.50605   0.82147   0.51454   0.00000  Uiso   1.00
C984   C     0.51142   0.77978   0.99655   0.00000  Uiso   1.00
C985   C     0.50166   0.76501   0.95600   0.00000  Uiso   1.00
C986   C     0.48811   0.79109   0.93197   0.00000  Uiso   1.00
H987   H     0.53759   0.74274   0.58208   0.00000  Uiso   1.00
H988   H     0.47856   0.77713   0.90214   0.00000  Uiso   1.00
H989   H     0.34883   0.86107   0.71075   0.00000  Uiso   1.00
H990   H     0.41410   0.71115   0.81990   0.00000  Uiso   1.00
H991   H     0.45393   0.70022   0.84754   0.00000  Uiso   1.00
H992   H     0.40774   0.96912   0.87305   0.00000  Uiso   1.00
H993   H     0.38020   0.68137   0.89223   0.00000  Uiso   1.00
H994   H     0.36798   0.98009   0.84597   0.00000  Uiso   1.00
H995   H     0.65252   0.80571   0.78965   0.00000  Uiso   1.00
H996   H     0.54074   0.67072   0.71522   0.00000  Uiso   1.00
H997   H     0.50382   0.73278   0.94308   0.00000  Uiso   1.00
H998   H     0.52860   0.72062   0.50677   0.00000  Uiso   1.00
H999   H     0.50867   0.86436   0.57391   0.00000  Uiso   1.00
H1000  H     0.46113   0.92317   0.91733   0.00000  Uiso   1.00
H1001  H     0.48749   0.90330   0.53867   0.00000  Uiso   1.00
H1002  H     0.46584   0.94688   0.99370   0.00000  Uiso   1.00
O1003  O     0.50000   0.83333   0.75000   0.00000  Uiso   1.00
O1004  O     0.48784   0.79304   0.65459   0.00000  Uiso   1.00
O1005  O     0.46274   0.87058   0.84968   0.00000  Uiso   1.00
O1006  O     0.54157   0.84425   0.64606   0.00000  Uiso   1.00
O1007  O     0.50785   0.82546   0.84968   0.00000  Uiso   1.00
O1008  O     0.44584   0.99302   0.79193   0.00000  Uiso   1.00
O1009  O     0.51264   0.74686   0.78213   0.00000  Uiso   1.00
O1010  O     0.47965   0.92751   0.77014   0.00000  Uiso   1.00
O1011  O     0.40745   0.79958   0.73413   0.00000  Uiso   1.00
O1012  O     0.60026   0.85939   0.71361   0.00000  Uiso   1.00
O1013  O     0.40405   0.85544   0.78213   0.00000  Uiso   1.00
O1014  O     0.58824   0.81892   0.77014   0.00000  Uiso   1.00
O1015  O     0.47093   0.73610   0.73413   0.00000  Uiso   1.00
O1016  O     0.53678   0.92286   0.71361   0.00000  Uiso   1.00
Zn1017 Zn    0.52672   0.80661   0.78734   0.00000  Uiso   1.00
Zn1018 Zn    0.46713   0.79124   0.71876   0.00000  Uiso   1.00
Zn1019 Zn    0.54389   0.86442   0.70657   0.00000  Uiso   1.00
Zn1020 Zn    0.46226   0.87106   0.78734   0.00000  Uiso   1.00
C1021  C     0.71937   0.82623   0.76006   0.00000  Uiso   1.00
C1022  C     0.84687   0.83389   0.55725   0.00000  Uiso   1.00
C1023  C     0.86361   0.76506   0.56283   0.00000  Uiso   1.00
C1024  C     0.94735   0.84045   0.74009   0.00000  Uiso   1.00
C1025  C     0.81010   0.86123   0.91946   0.00000  Uiso   1.00
C1026  C     0.99320   0.84318   0.73623   0.00000  Uiso   1.00
C1027  C     0.67410   0.82372   0.76388   0.00000  Uiso   1.00
C1028  C     0.84633   0.98920   0.73833   0.00000  Uiso   1.00
C1029  C     0.81682   0.67862   0.76494   0.00000  Uiso   1.00
C1030  C     0.82314   0.72263   0.75973   0.00000  Uiso   1.00
C1031  C     0.84291   0.94451   0.74039   0.00000  Uiso   1.00
C1032  C     0.80511   0.91544   0.98050   0.00000  Uiso   1.00
C1033  C     0.85168   0.81457   0.62945   0.00000  Uiso   1.00
C1034  C     0.81479   0.85093   0.87101   0.00000  Uiso   1.00
C1035  C     0.85793   0.75242   0.52029   0.00000  Uiso   1.00
C1036  C     0.85739   0.80548   0.58154   0.00000  Uiso   1.00
C1037  C     0.80181   0.90158   0.93738   0.00000  Uiso   1.00
C1038  C     0.76210   0.68617   0.82984   0.00000  Uiso   1.00
C1039  C     0.72730   0.99422   0.86230   0.00000  Uiso   1.00
C1040  C     0.81779   0.88980   0.50610   0.00000  Uiso   1.00
C1041  C     0.82562   0.84850   0.98969   0.00000  Uiso   1.00
C1042  C     0.81916   0.83350   0.94666   0.00000  Uiso   1.00
C1043  C     0.83939   0.82147   0.51454   0.00000  Uiso   1.00
C1044  C     0.84475   0.77978   0.99655   0.00000  Uiso   1.00
C1045  C     0.83499   0.76501   0.95600   0.00000  Uiso   1.00
C1046  C     0.82144   0.79109   0.93197   0.00000  Uiso   1.00
H1047  H     0.87093   0.74274   0.58208   0.00000  Uiso   1.00
H1048  H     0.81190   0.77713   0.90214   0.00000  Uiso   1.00
H1049  H     0.68216   0.86107   0.71075   0.00000  Uiso   1.00
H1050  H     0.74743   0.71115   0.81990   0.00000  Uiso   1.00
H1051  H     0.78727   0.70022   0.84754   0.00000  Uiso   1.00
H1052  H     0.74108   0.96912   0.87305   0.00000  Uiso   1.00
H1053  H     0.71353   0.68137   0.89223   0.00000  Uiso   1.00
H1054  H     0.70131   0.98009   0.84597   0.00000  Uiso   1.00
H1055  H     0.98586   0.80571   0.78965   0.00000  Uiso   1.00
H1056  H     0.87408   0.67072   0.71522   0.00000  Uiso   1.00
H1057  H     0.83715   0.73278   0.94308   0.00000  Uiso   1.00
H1058  H     0.86193   0.72062   0.50677   0.00000  Uiso   1.00
H1059  H     0.84200   0.86436   0.57391   0.00000  Uiso   1.00
H1060  H     0.79446   0.92317   0.91733   0.00000  Uiso   1.00
H1061  H     0.82083   0.90330   0.53867   0.00000  Uiso   1.00
H1062  H     0.79918   0.94688   0.99370   0.00000  Uiso   1.00
O1063  O     0.83333   0.83333   0.75000   0.00000  Uiso   1.00
O1064  O     0.82118   0.79304   0.65459   0.00000  Uiso   1.00
O1065  O     0.79607   0.87058   0.84968   0.00000  Uiso   1.00
O1066  O     0.87491   0.84425   0.64606   0.00000  Uiso   1.00
O1067  O     0.84118   0.82546   0.84968   0.00000  Uiso   1.00
O1068  O     0.77917   0.99302   0.79193   0.00000  Uiso   1.00
O1069  O     0.84597   0.74686   0.78213   0.00000  Uiso   1.00
O1070  O     0.81298   0.92751   0.77014   0.00000  Uiso   1.00
O1071  O     0.74078   0.79958   0.73413   0.00000  Uiso   1.00
O1072  O     0.93360   0.85939   0.71361   0.00000  Uiso   1.00
O1073  O     0.73738   0.85544   0.78213   0.00000  Uiso   1.00
O1074  O     0.92158   0.81892   0.77014   0.00000  Uiso   1.00
O1075  O     0.80426   0.73610   0.73413   0.00000  Uiso   1.00
O1076  O     0.87012   0.92286   0.71361   0.00000  Uiso   1.00
Zn1077 Zn    0.86005   0.80661   0.78734   0.00000  Uiso   1.00
Zn1078 Zn    0.80046   0.79124   0.71876   0.00000  Uiso   1.00
Zn1079 Zn    0.87723   0.86442   0.70657   0.00000  Uiso   1.00
Zn1080 Zn    0.79560   0.87106   0.78734   0.00000  Uiso   1.00
loop_
_geom_bond_atom_site_label_1
_geom_bond_atom_site_label_2
_geom_bond_distance
_geom_bond_site_symmetry_2
_ccdc_geom_bond_type
C1     O51     1.268   .     A
C1     O53     1.268   .     A
C1     C7      1.436   .     S
C2     C16     1.394   .     A
C2     C23     1.411   .     A
C2     H39     1.077   .     S
C3     H27     1.084   .     S
C3     C15     1.387   .     A
C3     C16     1.396   .     A
C4     O52     1.286   .     A
C4     O54     1.283   .     A
C4     C6      1.454   .     S
C5     C14     1.475   .     S
C5     C17     1.402   .     A
C5     C22     1.418   .     A
C6     C67     1.334   .     S
C6     H89     1.088   .     S
C7     C126    1.334   1_455 S
C7     H155    1.086   1_455 S
C8     C11     1.454   .     S
C8     C189    1.343   .     S
C8     H216    1.088   .     S
C9     C10     1.444   .     S
C9     C368    1.343   1_545 S
C9     O408    1.398   1_545 S
C10    O55     1.272   .     A
C10    O49     1.273   .     A
C11    O56     1.278   .     A
C11    O50     1.268   .     A
C12    C17     1.387   .     A
C12    H42     1.083   .     S
C12    C560    1.391   .     S
C13    O46     1.280   .     A
C13    C16     1.450   .     S
C13    O44     1.270   .     A
C14    O47     1.283   .     A
C14    O45     1.283   .     A
C15    H38     1.084   .     S
C15    C564    1.400   1_554 S
C17    H40     1.083   .     S
C18    H30     1.113   .     S
C18    H31     1.115   .     S
C18    C379    1.521   1_545 S
C18    O408    1.413   1_545 S
C19    H32     1.111   .     S
C19    H34     1.111   .     S
C19    C198    1.521   .     S
C19    H213    1.111   .     S
C20    H41     1.076   .     S
C20    C552    1.391   1_554 S
C20    C561    1.417   1_554 S
C21    C22     1.424   .     A
C21    C560    1.417   .     S
C21    C563    1.426   .     S
C22    C26     1.410   .     A
C23    C561    1.426   1_554 S
C23    C564    1.424   1_554 S
C24    C25     1.391   .     A
C24    C563    1.424   .     S
C24    C555    1.400   .     S
C25    H37     1.084   .     S
C25    C26     1.382   .     A
C26    H28     1.080   .     S
H29    C126    1.088   1_455 S
H33    C379    1.111   1_545 S
H35    C67     1.086   .     S
H36    C368    1.088   1_545 S
O43    Zn59    1.948   .     S
O43    Zn60    1.930   .     S
O43    Zn57    1.962   .     S
O43    Zn58    1.937   .     S
O44    Zn58    1.937   .     S
O45    Zn60    1.943   .     S
O46    Zn59    1.932   .     S
O47    Zn57    1.927   .     S
O48    C198    1.413   .     S
O48    C189    1.398   .     S
O49    Zn57    1.933   .     S
O50    Zn60    1.943   .     S
O51    Zn58    1.925   .     S
O52    Zn59    1.933   .     S
O53    Zn60    1.929   .     S
O54    Zn57    1.926   .     S
O55    Zn58    1.945   .     S
O56    Zn59    1.934   .     S
C61    O111    1.268   .     A
C61    O113    1.268   .     A
C61    C67     1.436   .     S
C62    C76     1.394   .     A
C62    C83     1.411   .     A
C62    H99     1.077   .     S
C63    H87     1.084   .     S
C63    C75     1.387   .     A
C63    C76     1.396   .     A
C64    O112    1.286   .     A
C64    O114    1.283   .     A
C64    C66     1.454   .     S
C65    C74     1.475   .     S
C65    C77     1.402   .     A
C65    C82     1.418   .     A
C66    C127    1.334   .     S
C66    H149    1.088   .     S
C68    C71     1.454   .     S
C68    C249    1.343   .     S
C68    H276    1.088   .     S
C69    C70     1.444   .     S
C69    C428    1.343   1_545 S
C69    O468    1.398   1_545 S
C70    O115    1.272   .     A
C70    O109    1.273   .     A
C71    O116    1.278   .     A
C71    O110    1.268   .     A
C72    C77     1.387   .     A
C72    H102    1.083   .     S
C72    C620    1.391   .     S
C73    O106    1.280   .     A
C73    C76     1.450   .     S
C73    O104    1.270   .     A
C74    O107    1.283   .     A
C74    O105    1.283   .     A
C75    H98     1.084   .     S
C75    C624    1.400   1_554 S
C77    H100    1.083   .     S
C78    H90     1.113   .     S
C78    H91     1.115   .     S
C78    C439    1.521   1_545 S
C78    O468    1.413   1_545 S
C79    H92     1.111   .     S
C79    H94     1.111   .     S
C79    C258    1.521   .     S
C79    H273    1.111   .     S
C80    H101    1.076   .     S
C80    C612    1.391   1_554 S
C80    C621    1.417   1_554 S
C81    C82     1.424   .     A
C81    C620    1.417   .     S
C81    C623    1.426   .     S
C82    C86     1.410   .     A
C83    C621    1.426   1_554 S
C83    C624    1.424   1_554 S
C84    C85     1.391   .     A
C84    C623    1.424   .     S
C84    C615    1.400   .     S
C85    H97     1.084   .     S
C85    C86     1.382   .     A
C86    H88     1.080   .     S
H93    C439    1.111   1_545 S
H95    C127    1.086   .     S
H96    C428    1.088   1_545 S
O103   Zn119   1.948   .     S
O103   Zn120   1.930   .     S
O103   Zn117   1.962   .     S
O103   Zn118   1.937   .     S
O104   Zn118   1.937   .     S
O105   Zn120   1.943   .     S
O106   Zn119   1.932   .     S
O107   Zn117   1.927   .     S
O108   C258    1.413   .     S
O108   C249    1.398   .     S
O109   Zn117   1.933   .     S
O110   Zn120   1.943   .     S
O111   Zn118   1.925   .     S
O112   Zn119   1.933   .     S
O113   Zn120   1.929   .     S
O114   Zn117   1.926   .     S
O115   Zn118   1.945   .     S
O116   Zn119   1.934   .     S
C121   O171    1.268   .     A
C121   O173    1.268   .     A
C121   C127    1.436   .     S
C122   C136    1.394   .     A
C122   C143    1.411   .     A
C122   H159    1.077   .     S
C123   H147    1.084   .     S
C123   C135    1.387   .     A
C123   C136    1.396   .     A
C124   O172    1.286   .     A
C124   O174    1.283   .     A
C124   C126    1.454   .     S
C125   C134    1.475   .     S
C125   C137    1.402   .     A
C125   C142    1.418   .     A
C126   C7      1.334   1_655 S
C126   H29     1.088   1_655 S
C128   C131    1.454   .     S
C128   C309    1.343   .     S
C128   H336    1.088   .     S
C129   C130    1.444   .     S
C129   C488    1.343   1_545 S
C129   O528    1.398   1_545 S
C130   O175    1.272   .     A
C130   O169    1.273   .     A
C131   O176    1.278   .     A
C131   O170    1.268   .     A
C132   C137    1.387   .     A
C132   H162    1.083   .     S
C132   C680    1.391   .     S
C133   O166    1.280   .     A
C133   C136    1.450   .     S
C133   O164    1.270   .     A
C134   O167    1.283   .     A
C134   O165    1.283   .     A
C135   H158    1.084   .     S
C135   C684    1.400   1_554 S
C137   H160    1.083   .     S
C138   H150    1.113   .     S
C138   H151    1.115   .     S
C138   C499    1.521   1_545 S
C138   O528    1.413   1_545 S
C139   H152    1.111   .     S
C139   H154    1.111   .     S
C139   C318    1.521   .     S
C139   H333    1.111   .     S
C140   H161    1.076   .     S
C140   C672    1.391   1_554 S
C140   C681    1.417   1_554 S
C141   C142    1.424   .     A
C141   C680    1.417   .     S
C141   C683    1.426   .     S
C142   C146    1.410   .     A
C143   C681    1.426   1_554 S
C143   C684    1.424   1_554 S
C144   C145    1.391   .     A
C144   C683    1.424   .     S
C144   C675    1.400   .     S
C145   H157    1.084   .     S
C145   C146    1.382   .     A
C146   H148    1.080   .     S
H153   C499    1.111   1_545 S
H155   C7      1.086   1_655 S
H156   C488    1.088   1_545 S
O163   Zn179   1.948   .     S
O163   Zn180   1.930   .     S
O163   Zn177   1.962   .     S
O163   Zn178   1.937   .     S
O164   Zn178   1.937   .     S
O165   Zn180   1.943   .     S
O166   Zn179   1.932   .     S
O167   Zn177   1.927   .     S
O168   C318    1.413   .     S
O168   C309    1.398   .     S
O169   Zn177   1.933   .     S
O170   Zn180   1.943   .     S
O171   Zn178   1.925   .     S
O172   Zn179   1.933   .     S
O173   Zn180   1.929   .     S
O174   Zn177   1.926   .     S
O175   Zn178   1.945   .     S
O176   Zn179   1.934   .     S
C181   O231    1.268   .     A
C181   O233    1.268   .     A
C181   C187    1.436   .     S
C182   C196    1.394   .     A
C182   C203    1.411   .     A
C182   H219    1.077   .     S
C183   H207    1.084   .     S
C183   C195    1.387   .     A
C183   C196    1.396   .     A
C184   O232    1.286   .     A
C184   O234    1.283   .     A
C184   C186    1.454   .     S
C185   C194    1.475   .     S
C185   C197    1.402   .     A
C185   C202    1.418   .     A
C186   C247    1.334   .     S
C186   H269    1.088   .     S
C187   C306    1.334   1_455 S
C187   H335    1.086   1_455 S
C188   C191    1.454   .     S
C188   C369    1.343   .     S
C188   H396    1.088   .     S
C189   C190    1.444   .     S
C190   O235    1.272   .     A
C190   O229    1.273   .     A
C191   O236    1.278   .     A
C191   O230    1.268   .     A
C192   C197    1.387   .     A
C192   H222    1.083   .     S
C192   C740    1.391   .     S
C193   O226    1.280   .     A
C193   C196    1.450   .     S
C193   O224    1.270   .     A
C194   O227    1.283   .     A
C194   O225    1.283   .     A
C195   H218    1.084   .     S
C195   C744    1.400   1_554 S
C197   H220    1.083   .     S
C198   H210    1.113   .     S
C198   H211    1.115   .     S
C199   H212    1.111   .     S
C199   H214    1.111   .     S
C199   C378    1.521   .     S
C199   H393    1.111   .     S
C200   H221    1.076   .     S
C200   C732    1.391   1_554 S
C200   C741    1.417   1_554 S
C201   C202    1.424   .     A
C201   C740    1.417   .     S
C201   C743    1.426   .     S
C202   C206    1.410   .     A
C203   C741    1.426   1_554 S
C203   C744    1.424   1_554 S
C204   C205    1.391   .     A
C204   C743    1.424   .     S
C204   C735    1.400   .     S
C205   H217    1.084   .     S
C205   C206    1.382   .     A
C206   H208    1.080   .     S
H209   C306    1.088   1_455 S
H215   C247    1.086   .     S
O223   Zn239   1.948   .     S
O223   Zn240   1.930   .     S
O223   Zn237   1.962   .     S
O223   Zn238   1.937   .     S
O224   Zn238   1.937   .     S
O225   Zn240   1.943   .     S
O226   Zn239   1.932   .     S
O227   Zn237   1.927   .     S
O228   C378    1.413   .     S
O228   C369    1.398   .     S
O229   Zn237   1.933   .     S
O230   Zn240   1.943   .     S
O231   Zn238   1.925   .     S
O232   Zn239   1.933   .     S
O233   Zn240   1.929   .     S
O234   Zn237   1.926   .     S
O235   Zn238   1.945   .     S
O236   Zn239   1.934   .     S
C241   O291    1.268   .     A
C241   O293    1.268   .     A
C241   C247    1.436   .     S
C242   C256    1.394   .     A
C242   C263    1.411   .     A
C242   H279    1.077   .     S
C243   H267    1.084   .     S
C243   C255    1.387   .     A
C243   C256    1.396   .     A
C244   O292    1.286   .     A
C244   O294    1.283   .     A
C244   C246    1.454   .     S
C245   C254    1.475   .     S
C245   C257    1.402   .     A
C245   C262    1.418   .     A
C246   C307    1.334   .     S
C246   H329    1.088   .     S
C248   C251    1.454   .     S
C248   C429    1.343   .     S
C248   H456    1.088   .     S
C249   C250    1.444   .     S
C250   O295    1.272   .     A
C250   O289    1.273   .     A
C251   O296    1.278   .     A
C251   O290    1.268   .     A
C252   C257    1.387   .     A
C252   H282    1.083   .     S
C252   C800    1.391   .     S
C253   O286    1.280   .     A
C253   C256    1.450   .     S
C253   O284    1.270   .     A
C254   O287    1.283   .     A
C254   O285    1.283   .     A
C255   H278    1.084   .     S
C255   C804    1.400   1_554 S
C257   H280    1.083   .     S
C258   H270    1.113   .     S
C258   H271    1.115   .     S
C259   H272    1.111   .     S
C259   H274    1.111   .     S
C259   C438    1.521   .     S
C259   H453    1.111   .     S
C260   H281    1.076   .     S
C260   C792    1.391   1_554 S
C260   C801    1.417   1_554 S
C261   C262    1.424   .     A
C261   C800    1.417   .     S
C261   C803    1.426   .     S
C262   C266    1.410   .     A
C263   C801    1.426   1_554 S
C263   C804    1.424   1_554 S
C264   C265    1.391   .     A
C264   C803    1.424   .     S
C264   C795    1.400   .     S
C265   H277    1.084   .     S
C265   C266    1.382   .     A
C266   H268    1.080   .     S
H275   C307    1.086   .     S
O283   Zn299   1.948   .     S
O283   Zn300   1.930   .     S
O283   Zn297   1.962   .     S
O283   Zn298   1.937   .     S
O284   Zn298   1.937   .     S
O285   Zn300   1.943   .     S
O286   Zn299   1.932   .     S
O287   Zn297   1.927   .     S
O288   C438    1.413   .     S
O288   C429    1.398   .     S
O289   Zn297   1.933   .     S
O290   Zn300   1.943   .     S
O291   Zn298   1.925   .     S
O292   Zn299   1.933   .     S
O293   Zn300   1.929   .     S
O294   Zn297   1.926   .     S
O295   Zn298   1.945   .     S
O296   Zn299   1.934   .     S
C301   O351    1.268   .     A
C301   O353    1.268   .     A
C301   C307    1.436   .     S
C302   C316    1.394   .     A
C302   C323    1.411   .     A
C302   H339    1.077   .     S
C303   H327    1.084   .     S
C303   C315    1.387   .     A
C303   C316    1.396   .     A
C304   O352    1.286   .     A
C304   O354    1.283   .     A
C304   C306    1.454   .     S
C305   C314    1.475   .     S
C305   C317    1.402   .     A
C305   C322    1.418   .     A
C306   C187    1.334   1_655 S
C306   H209    1.088   1_655 S
C308   C311    1.454   .     S
C308   C489    1.343   .     S
C308   H516    1.088   .     S
C309   C310    1.444   .     S
C310   O355    1.272   .     A
C310   O349    1.273   .     A
C311   O356    1.278   .     A
C311   O350    1.268   .     A
C312   C317    1.387   .     A
C312   H342    1.083   .     S
C312   C860    1.391   .     S
C313   O346    1.280   .     A
C313   C316    1.450   .     S
C313   O344    1.270   .     A
C314   O347    1.283   .     A
C314   O345    1.283   .     A
C315   H338    1.084   .     S
C315   C864    1.400   1_554 S
C317   H340    1.083   .     S
C318   H330    1.113   .     S
C318   H331    1.115   .     S
C319   H332    1.111   .     S
C319   H334    1.111   .     S
C319   C498    1.521   .     S
C319   H513    1.111   .     S
C320   H341    1.076   .     S
C320   C852    1.391   1_554 S
C320   C861    1.417   1_554 S
C321   C322    1.424   .     A
C321   C860    1.417   .     S
C321   C863    1.426   .     S
C322   C326    1.410   .     A
C323   C861    1.426   1_554 S
C323   C864    1.424   1_554 S
C324   C325    1.391   .     A
C324   C863    1.424   .     S
C324   C855    1.400   .     S
C325   H337    1.084   .     S
C325   C326    1.382   .     A
C326   H328    1.080   .     S
H335   C187    1.086   1_655 S
O343   Zn359   1.948   .     S
O343   Zn360   1.930   .     S
O343   Zn357   1.962   .     S
O343   Zn358   1.937   .     S
O344   Zn358   1.937   .     S
O345   Zn360   1.943   .     S
O346   Zn359   1.932   .     S
O347   Zn357   1.927   .     S
O348   C498    1.413   .     S
O348   C489    1.398   .     S
O349   Zn357   1.933   .     S
O350   Zn360   1.943   .     S
O351   Zn358   1.925   .     S
O352   Zn359   1.933   .     S
O353   Zn360   1.929   .     S
O354   Zn357   1.926   .     S
O355   Zn358   1.945   .     S
O356   Zn359   1.934   .     S
C361   O411    1.268   .     A
C361   O413    1.268   .     A
C361   C367    1.436   .     S
C362   C376    1.394   .     A
C362   C383    1.411   .     A
C362   H399    1.077   .     S
C363   H387    1.084   .     S
C363   C375    1.387   .     A
C363   C376    1.396   .     A
C364   O412    1.286   .     A
C364   O414    1.283   .     A
C364   C366    1.454   .     S
C365   C374    1.475   .     S
C365   C377    1.402   .     A
C365   C382    1.418   .     A
C366   C427    1.334   .     S
C366   H449    1.088   .     S
C367   C486    1.334   1_455 S
C367   H515    1.086   1_455 S
C368   C371    1.454   .     S
C368   C9      1.343   1_565 S
C368   H36     1.088   1_565 S
C369   C370    1.444   .     S
C370   O415    1.272   .     A
C370   O409    1.273   .     A
C371   O416    1.278   .     A
C371   O410    1.268   .     A
C372   C377    1.387   .     A
C372   H402    1.083   .     S
C372   C920    1.391   .     S
C373   O406    1.280   .     A
C373   C376    1.450   .     S
C373   O404    1.270   .     A
C374   O407    1.283   .     A
C374   O405    1.283   .     A
C375   H398    1.084   .     S
C375   C924    1.400   1_554 S
C377   H400    1.083   .     S
C378   H390    1.113   .     S
C378   H391    1.115   .     S
C379   H392    1.111   .     S
C379   H394    1.111   .     S
C379   C18     1.521   1_565 S
C379   H33     1.111   1_565 S
C380   H401    1.076   .     S
C380   C912    1.391   1_554 S
C380   C921    1.417   1_554 S
C381   C382    1.424   .     A
C381   C920    1.417   .     S
C381   C923    1.426   .     S
C382   C386    1.410   .     A
C383   C921    1.426   1_554 S
C383   C924    1.424   1_554 S
C384   C385    1.391   .     A
C384   C923    1.424   .     S
C384   C915    1.400   .     S
C385   H397    1.084   .     S
C385   C386    1.382   .     A
C386   H388    1.080   .     S
H389   C486    1.088   1_455 S
H395   C427    1.086   .     S
O403   Zn419   1.948   .     S
O403   Zn420   1.930   .     S
O403   Zn417   1.962   .     S
O403   Zn418   1.937   .     S
O404   Zn418   1.937   .     S
O405   Zn420   1.943   .     S
O406   Zn419   1.932   .     S
O407   Zn417   1.927   .     S
O408   C18     1.413   1_565 S
O408   C9      1.398   1_565 S
O409   Zn417   1.933   .     S
O410   Zn420   1.943   .     S
O411   Zn418   1.925   .     S
O412   Zn419   1.933   .     S
O413   Zn420   1.929   .     S
O414   Zn417   1.926   .     S
O415   Zn418   1.945   .     S
O416   Zn419   1.934   .     S
C421   O471    1.268   .     A
C421   O473    1.268   .     A
C421   C427    1.436   .     S
C422   C436    1.394   .     A
C422   C443    1.411   .     A
C422   H459    1.077   .     S
C423   H447    1.084   .     S
C423   C435    1.387   .     A
C423   C436    1.396   .     A
C424   O472    1.286   .     A
C424   O474    1.283   .     A
C424   C426    1.454   .     S
C425   C434    1.475   .     S
C425   C437    1.402   .     A
C425   C442    1.418   .     A
C426   C487    1.334   .     S
C426   H509    1.088   .     S
C428   C431    1.454   .     S
C428   C69     1.343   1_565 S
C428   H96     1.088   1_565 S
C429   C430    1.444   .     S
C430   O475    1.272   .     A
C430   O469    1.273   .     A
C431   O476    1.278   .     A
C431   O470    1.268   .     A
C432   C437    1.387   .     A
C432   H462    1.083   .     S
C432   C980    1.391   .     S
C433   O466    1.280   .     A
C433   C436    1.450   .     S
C433   O464    1.270   .     A
C434   O467    1.283   .     A
C434   O465    1.283   .     A
C435   H458    1.084   .     S
C435   C984    1.400   1_554 S
C437   H460    1.083   .     S
C438   H450    1.113   .     S
C438   H451    1.115   .     S
C439   H452    1.111   .     S
C439   H454    1.111   .     S
C439   C78     1.521   1_565 S
C439   H93     1.111   1_565 S
C440   H461    1.076   .     S
C440   C972    1.391   1_554 S
C440   C981    1.417   1_554 S
C441   C442    1.424   .     A
C441   C980    1.417   .     S
C441   C983    1.426   .     S
C442   C446    1.410   .     A
C443   C981    1.426   1_554 S
C443   C984    1.424   1_554 S
C444   C445    1.391   .     A
C444   C983    1.424   .     S
C444   C975    1.400   .     S
C445   H457    1.084   .     S
C445   C446    1.382   .     A
C446   H448    1.080   .     S
H455   C487    1.086   .     S
O463   Zn479   1.948   .     S
O463   Zn480   1.930   .     S
O463   Zn477   1.962   .     S
O463   Zn478   1.937   .     S
O464   Zn478   1.937   .     S
O465   Zn480   1.943   .     S
O466   Zn479   1.932   .     S
O467   Zn477   1.927   .     S
O468   C78     1.413   1_565 S
O468   C69     1.398   1_565 S
O469   Zn477   1.933   .     S
O470   Zn480   1.943   .     S
O471   Zn478   1.925   .     S
O472   Zn479   1.933   .     S
O473   Zn480   1.929   .     S
O474   Zn477   1.926   .     S
O475   Zn478   1.945   .     S
O476   Zn479   1.934   .     S
C481   O531    1.268   .     A
C481   O533    1.268   .     A
C481   C487    1.436   .     S
C482   C496    1.394   .     A
C482   C503    1.411   .     A
C482   H519    1.077   .     S
C483   H507    1.084   .     S
C483   C495    1.387   .     A
C483   C496    1.396   .     A
C484   O532    1.286   .     A
C484   O534    1.283   .     A
C484   C486    1.454   .     S
C485   C494    1.475   .     S
C485   C497    1.402   .     A
C485   C502    1.418   .     A
C486   C367    1.334   1_655 S
C486   H389    1.088   1_655 S
C488   C491    1.454   .     S
C488   C129    1.343   1_565 S
C488   H156    1.088   1_565 S
C489   C490    1.444   .     S
C490   O535    1.272   .     A
C490   O529    1.273   .     A
C491   O536    1.278   .     A
C491   O530    1.268   .     A
C492   C497    1.387   .     A
C492   H522    1.083   .     S
C492   C1040   1.391   .     S
C493   O526    1.280   .     A
C493   C496    1.450   .     S
C493   O524    1.270   .     A
C494   O527    1.283   .     A
C494   O525    1.283   .     A
C495   H518    1.084   .     S
C495   C1044   1.400   1_554 S
C497   H520    1.083   .     S
C498   H510    1.113   .     S
C498   H511    1.115   .     S
C499   H512    1.111   .     S
C499   H514    1.111   .     S
C499   C138    1.521   1_565 S
C499   H153    1.111   1_565 S
C500   H521    1.076   .     S
C500   C1032   1.391   1_554 S
C500   C1041   1.417   1_554 S
C501   C502    1.424   .     A
C501   C1040   1.417   .     S
C501   C1043   1.426   .     S
C502   C506    1.410   .     A
C503   C1041   1.426   1_554 S
C503   C1044   1.424   1_554 S
C504   C505    1.391   .     A
C504   C1043   1.424   .     S
C504   C1035   1.400   .     S
C505   H517    1.084   .     S
C505   C506    1.382   .     A
C506   H508    1.080   .     S
H515   C367    1.086   1_655 S
O523   Zn539   1.948   .     S
O523   Zn540   1.930   .     S
O523   Zn537   1.962   .     S
O523   Zn538   1.937   .     S
O524   Zn538   1.937   .     S
O525   Zn540   1.943   .     S
O526   Zn539   1.932   .     S
O527   Zn537   1.927   .     S
O528   C138    1.413   1_565 S
O528   C129    1.398   1_565 S
O529   Zn537   1.933   .     S
O530   Zn540   1.943   .     S
O531   Zn538   1.925   .     S
O532   Zn539   1.933   .     S
O533   Zn540   1.929   .     S
O534   Zn537   1.926   .     S
O535   Zn538   1.945   .     S
O536   Zn539   1.934   .     S
C541   O591    1.268   .     A
C541   O593    1.268   .     A
C541   C547    1.436   .     S
C542   C556    1.394   .     A
C542   C563    1.411   .     A
C542   H579    1.077   .     S
C543   H567    1.084   .     S
C543   C555    1.387   .     A
C543   C556    1.396   .     A
C544   O592    1.286   .     A
C544   O594    1.283   .     A
C544   C546    1.454   .     S
C545   C554    1.475   .     S
C545   C557    1.402   .     A
C545   C562    1.418   .     A
C546   C607    1.334   .     S
C546   H629    1.088   .     S
C547   C666    1.334   1_455 S
C547   H695    1.086   1_455 S
C548   C551    1.454   .     S
C548   C729    1.343   .     S
C548   H756    1.088   .     S
C549   C550    1.444   .     S
C549   C908    1.343   1_545 S
C549   O948    1.398   1_545 S
C550   O595    1.272   .     A
C550   O589    1.273   .     A
C551   O596    1.278   .     A
C551   O590    1.268   .     A
C552   C557    1.387   .     A
C552   H582    1.083   .     S
C552   C20     1.391   1_556 S
C553   O586    1.280   .     A
C553   C556    1.450   .     S
C553   O584    1.270   .     A
C554   O587    1.283   .     A
C554   O585    1.283   .     A
C555   H578    1.084   .     S
C557   H580    1.083   .     S
C558   H570    1.113   .     S
C558   H571    1.115   .     S
C558   C919    1.521   1_545 S
C558   O948    1.413   1_545 S
C559   H572    1.111   .     S
C559   H574    1.111   .     S
C559   C738    1.521   .     S
C559   H753    1.111   .     S
C560   H581    1.076   .     S
C561   C562    1.424   .     A
C561   C20     1.417   1_556 S
C561   C23     1.426   1_556 S
C562   C566    1.410   .     A
C564   C565    1.391   .     A
C564   C23     1.424   1_556 S
C564   C15     1.400   1_556 S
C565   H577    1.084   .     S
C565   C566    1.382   .     A
C566   H568    1.080   .     S
H569   C666    1.088   1_455 S
H573   C919    1.111   1_545 S
H575   C607    1.086   .     S
H576   C908    1.088   1_545 S
O583   Zn599   1.948   .     S
O583   Zn600   1.930   .     S
O583   Zn597   1.962   .     S
O583   Zn598   1.937   .     S
O584   Zn598   1.937   .     S
O585   Zn600   1.943   .     S
O586   Zn599   1.932   .     S
O587   Zn597   1.927   .     S
O588   C738    1.413   .     S
O588   C729    1.398   .     S
O589   Zn597   1.933   .     S
O590   Zn600   1.943   .     S
O591   Zn598   1.925   .     S
O592   Zn599   1.933   .     S
O593   Zn600   1.929   .     S
O594   Zn597   1.926   .     S
O595   Zn598   1.945   .     S
O596   Zn599   1.934   .     S
C601   O651    1.268   .     A
C601   O653    1.268   .     A
C601   C607    1.436   .     S
C602   C616    1.394   .     A
C602   C623    1.411   .     A
C602   H639    1.077   .     S
C603   H627    1.084   .     S
C603   C615    1.387   .     A
C603   C616    1.396   .     A
C604   O652    1.286   .     A
C604   O654    1.283   .     A
C604   C606    1.454   .     S
C605   C614    1.475   .     S
C605   C617    1.402   .     A
C605   C622    1.418   .     A
C606   C667    1.334   .     S
C606   H689    1.088   .     S
C608   C611    1.454   .     S
C608   C789    1.343   .     S
C608   H816    1.088   .     S
C609   C610    1.444   .     S
C609   C968    1.343   1_545 S
C609   O1008   1.398   1_545 S
C610   O655    1.272   .     A
C610   O649    1.273   .     A
C611   O656    1.278   .     A
C611   O650    1.268   .     A
C612   C617    1.387   .     A
C612   H642    1.083   .     S
C612   C80     1.391   1_556 S
C613   O646    1.280   .     A
C613   C616    1.450   .     S
C613   O644    1.270   .     A
C614   O647    1.283   .     A
C614   O645    1.283   .     A
C615   H638    1.084   .     S
C617   H640    1.083   .     S
C618   H630    1.113   .     S
C618   H631    1.115   .     S
C618   C979    1.521   1_545 S
C618   O1008   1.413   1_545 S
C619   H632    1.111   .     S
C619   H634    1.111   .     S
C619   C798    1.521   .     S
C619   H813    1.111   .     S
C620   H641    1.076   .     S
C621   C622    1.424   .     A
C621   C80     1.417   1_556 S
C621   C83     1.426   1_556 S
C622   C626    1.410   .     A
C624   C625    1.391   .     A
C624   C83     1.424   1_556 S
C624   C75     1.400   1_556 S
C625   H637    1.084   .     S
C625   C626    1.382   .     A
C626   H628    1.080   .     S
H633   C979    1.111   1_545 S
H635   C667    1.086   .     S
H636   C968    1.088   1_545 S
O643   Zn659   1.948   .     S
O643   Zn660   1.930   .     S
O643   Zn657   1.962   .     S
O643   Zn658   1.937   .     S
O644   Zn658   1.937   .     S
O645   Zn660   1.943   .     S
O646   Zn659   1.932   .     S
O647   Zn657   1.927   .     S
O648   C798    1.413   .     S
O648   C789    1.398   .     S
O649   Zn657   1.933   .     S
O650   Zn660   1.943   .     S
O651   Zn658   1.925   .     S
O652   Zn659   1.933   .     S
O653   Zn660   1.929   .     S
O654   Zn657   1.926   .     S
O655   Zn658   1.945   .     S
O656   Zn659   1.934   .     S
C661   O711    1.268   .     A
C661   O713    1.268   .     A
C661   C667    1.436   .     S
C662   C676    1.394   .     A
C662   C683    1.411   .     A
C662   H699    1.077   .     S
C663   H687    1.084   .     S
C663   C675    1.387   .     A
C663   C676    1.396   .     A
C664   O712    1.286   .     A
C664   O714    1.283   .     A
C664   C666    1.454   .     S
C665   C674    1.475   .     S
C665   C677    1.402   .     A
C665   C682    1.418   .     A
C666   C547    1.334   1_655 S
C666   H569    1.088   1_655 S
C668   C671    1.454   .     S
C668   C849    1.343   .     S
C668   H876    1.088   .     S
C669   C670    1.444   .     S
C669   C1028   1.343   1_545 S
C669   O1068   1.398   1_545 S
C670   O715    1.272   .     A
C670   O709    1.273   .     A
C671   O716    1.278   .     A
C671   O710    1.268   .     A
C672   C677    1.387   .     A
C672   H702    1.083   .     S
C672   C140    1.391   1_556 S
C673   O706    1.280   .     A
C673   C676    1.450   .     S
C673   O704    1.270   .     A
C674   O707    1.283   .     A
C674   O705    1.283   .     A
C675   H698    1.084   .     S
C677   H700    1.083   .     S
C678   H690    1.113   .     S
C678   H691    1.115   .     S
C678   C1039   1.521   1_545 S
C678   O1068   1.413   1_545 S
C679   H692    1.111   .     S
C679   H694    1.111   .     S
C679   C858    1.521   .     S
C679   H873    1.111   .     S
C680   H701    1.076   .     S
C681   C682    1.424   .     A
C681   C140    1.417   1_556 S
C681   C143    1.426   1_556 S
C682   C686    1.410   .     A
C684   C685    1.391   .     A
C684   C143    1.424   1_556 S
C684   C135    1.400   1_556 S
C685   H697    1.084   .     S
C685   C686    1.382   .     A
C686   H688    1.080   .     S
H693   C1039   1.111   1_545 S
H695   C547    1.086   1_655 S
H696   C1028   1.088   1_545 S
O703   Zn719   1.948   .     S
O703   Zn720   1.930   .     S
O703   Zn717   1.962   .     S
O703   Zn718   1.937   .     S
O704   Zn718   1.937   .     S
O705   Zn720   1.943   .     S
O706   Zn719   1.932   .     S
O707   Zn717   1.927   .     S
O708   C858    1.413   .     S
O708   C849    1.398   .     S
O709   Zn717   1.933   .     S
O710   Zn720   1.943   .     S
O711   Zn718   1.925   .     S
O712   Zn719   1.933   .     S
O713   Zn720   1.929   .     S
O714   Zn717   1.926   .     S
O715   Zn718   1.945   .     S
O716   Zn719   1.934   .     S
C721   O771    1.268   .     A
C721   O773    1.268   .     A
C721   C727    1.436   .     S
C722   C736    1.394   .     A
C722   C743    1.411   .     A
C722   H759    1.077   .     S
C723   H747    1.084   .     S
C723   C735    1.387   .     A
C723   C736    1.396   .     A
C724   O772    1.286   .     A
C724   O774    1.283   .     A
C724   C726    1.454   .     S
C725   C734    1.475   .     S
C725   C737    1.402   .     A
C725   C742    1.418   .     A
C726   C787    1.334   .     S
C726   H809    1.088   .     S
C727   C846    1.334   1_455 S
C727   H875    1.086   1_455 S
C728   C731    1.454   .     S
C728   C909    1.343   .     S
C728   H936    1.088   .     S
C729   C730    1.444   .     S
C730   O775    1.272   .     A
C730   O769    1.273   .     A
C731   O776    1.278   .     A
C731   O770    1.268   .     A
C732   C737    1.387   .     A
C732   H762    1.083   .     S
C732   C200    1.391   1_556 S
C733   O766    1.280   .     A
C733   C736    1.450   .     S
C733   O764    1.270   .     A
C734   O767    1.283   .     A
C734   O765    1.283   .     A
C735   H758    1.084   .     S
C737   H760    1.083   .     S
C738   H750    1.113   .     S
C738   H751    1.115   .     S
C739   H752    1.111   .     S
C739   H754    1.111   .     S
C739   C918    1.521   .     S
C739   H933    1.111   .     S
C740   H761    1.076   .     S
C741   C742    1.424   .     A
C741   C200    1.417   1_556 S
C741   C203    1.426   1_556 S
C742   C746    1.410   .     A
C744   C745    1.391   .     A
C744   C203    1.424   1_556 S
C744   C195    1.400   1_556 S
C745   H757    1.084   .     S
C745   C746    1.382   .     A
C746   H748    1.080   .     S
H749   C846    1.088   1_455 S
H755   C787    1.086   .     S
O763   Zn779   1.948   .     S
O763   Zn780   1.930   .     S
O763   Zn777   1.962   .     S
O763   Zn778   1.937   .     S
O764   Zn778   1.937   .     S
O765   Zn780   1.943   .     S
O766   Zn779   1.932   .     S
O767   Zn777   1.927   .     S
O768   C918    1.413   .     S
O768   C909    1.398   .     S
O769   Zn777   1.933   .     S
O770   Zn780   1.943   .     S
O771   Zn778   1.925   .     S
O772   Zn779   1.933   .     S
O773   Zn780   1.929   .     S
O774   Zn777   1.926   .     S
O775   Zn778   1.945   .     S
O776   Zn779   1.934   .     S
C781   O831    1.268   .     A
C781   O833    1.268   .     A
C781   C787    1.436   .     S
C782   C796    1.394   .     A
C782   C803    1.411   .     A
C782   H819    1.077   .     S
C783   H807    1.084   .     S
C783   C795    1.387   .     A
C783   C796    1.396   .     A
C784   O832    1.286   .     A
C784   O834    1.283   .     A
C784   C786    1.454   .     S
C785   C794    1.475   .     S
C785   C797    1.402   .     A
C785   C802    1.418   .     A
C786   C847    1.334   .     S
C786   H869    1.088   .     S
C788   C791    1.454   .     S
C788   C969    1.343   .     S
C788   H996    1.088   .     S
C789   C790    1.444   .     S
C790   O835    1.272   .     A
C790   O829    1.273   .     A
C791   O836    1.278   .     A
C791   O830    1.268   .     A
C792   C797    1.387   .     A
C792   H822    1.083   .     S
C792   C260    1.391   1_556 S
C793   O826    1.280   .     A
C793   C796    1.450   .     S
C793   O824    1.270   .     A
C794   O827    1.283   .     A
C794   O825    1.283   .     A
C795   H818    1.084   .     S
C797   H820    1.083   .     S
C798   H810    1.113   .     S
C798   H811    1.115   .     S
C799   H812    1.111   .     S
C799   H814    1.111   .     S
C799   C978    1.521   .     S
C799   H993    1.111   .     S
C800   H821    1.076   .     S
C801   C802    1.424   .     A
C801   C260    1.417   1_556 S
C801   C263    1.426   1_556 S
C802   C806    1.410   .     A
C804   C805    1.391   .     A
C804   C263    1.424   1_556 S
C804   C255    1.400   1_556 S
C805   H817    1.084   .     S
C805   C806    1.382   .     A
C806   H808    1.080   .     S
H815   C847    1.086   .     S
O823   Zn839   1.948   .     S
O823   Zn840   1.930   .     S
O823   Zn837   1.962   .     S
O823   Zn838   1.937   .     S
O824   Zn838   1.937   .     S
O825   Zn840   1.943   .     S
O826   Zn839   1.932   .     S
O827   Zn837   1.927   .     S
O828   C978    1.413   .     S
O828   C969    1.398   .     S
O829   Zn837   1.933   .     S
O830   Zn840   1.943   .     S
O831   Zn838   1.925   .     S
O832   Zn839   1.933   .     S
O833   Zn840   1.929   .     S
O834   Zn837   1.926   .     S
O835   Zn838   1.945   .     S
O836   Zn839   1.934   .     S
C841   O891    1.268   .     A
C841   O893    1.268   .     A
C841   C847    1.436   .     S
C842   C856    1.394   .     A
C842   C863    1.411   .     A
C842   H879    1.077   .     S
C843   H867    1.084   .     S
C843   C855    1.387   .     A
C843   C856    1.396   .     A
C844   O892    1.286   .     A
C844   O894    1.283   .     A
C844   C846    1.454   .     S
C845   C854    1.475   .     S
C845   C857    1.402   .     A
C845   C862    1.418   .     A
C846   C727    1.334   1_655 S
C846   H749    1.088   1_655 S
C848   C851    1.454   .     S
C848   C1029   1.343   .     S
C848   H1056   1.088   .     S
C849   C850    1.444   .     S
C850   O895    1.272   .     A
C850   O889    1.273   .     A
C851   O896    1.278   .     A
C851   O890    1.268   .     A
C852   C857    1.387   .     A
C852   H882    1.083   .     S
C852   C320    1.391   1_556 S
C853   O886    1.280   .     A
C853   C856    1.450   .     S
C853   O884    1.270   .     A
C854   O887    1.283   .     A
C854   O885    1.283   .     A
C855   H878    1.084   .     S
C857   H880    1.083   .     S
C858   H870    1.113   .     S
C858   H871    1.115   .     S
C859   H872    1.111   .     S
C859   H874    1.111   .     S
C859   C1038   1.521   .     S
C859   H1053   1.111   .     S
C860   H881    1.076   .     S
C861   C862    1.424   .     A
C861   C320    1.417   1_556 S
C861   C323    1.426   1_556 S
C862   C866    1.410   .     A
C864   C865    1.391   .     A
C864   C323    1.424   1_556 S
C864   C315    1.400   1_556 S
C865   H877    1.084   .     S
C865   C866    1.382   .     A
C866   H868    1.080   .     S
H875   C727    1.086   1_655 S
O883   Zn899   1.948   .     S
O883   Zn900   1.930   .     S
O883   Zn897   1.962   .     S
O883   Zn898   1.937   .     S
O884   Zn898   1.937   .     S
O885   Zn900   1.943   .     S
O886   Zn899   1.932   .     S
O887   Zn897   1.927   .     S
O888   C1038   1.413   .     S
O888   C1029   1.398   .     S
O889   Zn897   1.933   .     S
O890   Zn900   1.943   .     S
O891   Zn898   1.925   .     S
O892   Zn899   1.933   .     S
O893   Zn900   1.929   .     S
O894   Zn897   1.926   .     S
O895   Zn898   1.945   .     S
O896   Zn899   1.934   .     S
C901   O951    1.268   .     A
C901   O953    1.268   .     A
C901   C907    1.436   .     S
C902   C916    1.394   .     A
C902   C923    1.411   .     A
C902   H939    1.077   .     S
C903   H927    1.084   .     S
C903   C915    1.387   .     A
C903   C916    1.396   .     A
C904   O952    1.286   .     A
C904   O954    1.283   .     A
C904   C906    1.454   .     S
C905   C914    1.475   .     S
C905   C917    1.402   .     A
C905   C922    1.418   .     A
C906   C967    1.334   .     S
C906   H989    1.088   .     S
C907   C1026   1.334   1_455 S
C907   H1055   1.086   1_455 S
C908   C911    1.454   .     S
C908   C549    1.343   1_565 S
C908   H576    1.088   1_565 S
C909   C910    1.444   .     S
C910   O955    1.272   .     A
C910   O949    1.273   .     A
C911   O956    1.278   .     A
C911   O950    1.268   .     A
C912   C917    1.387   .     A
C912   H942    1.083   .     S
C912   C380    1.391   1_556 S
C913   O946    1.280   .     A
C913   C916    1.450   .     S
C913   O944    1.270   .     A
C914   O947    1.283   .     A
C914   O945    1.283   .     A
C915   H938    1.084   .     S
C917   H940    1.083   .     S
C918   H930    1.113   .     S
C918   H931    1.115   .     S
C919   H932    1.111   .     S
C919   H934    1.111   .     S
C919   C558    1.521   1_565 S
C919   H573    1.111   1_565 S
C920   H941    1.076   .     S
C921   C922    1.424   .     A
C921   C380    1.417   1_556 S
C921   C383    1.426   1_556 S
C922   C926    1.410   .     A
C924   C925    1.391   .     A
C924   C383    1.424   1_556 S
C924   C375    1.400   1_556 S
C925   H937    1.084   .     S
C925   C926    1.382   .     A
C926   H928    1.080   .     S
H929   C1026   1.088   1_455 S
H935   C967    1.086   .     S
O943   Zn959   1.948   .     S
O943   Zn960   1.930   .     S
O943   Zn957   1.962   .     S
O943   Zn958   1.937   .     S
O944   Zn958   1.937   .     S
O945   Zn960   1.943   .     S
O946   Zn959   1.932   .     S
O947   Zn957   1.927   .     S
O948   C558    1.413   1_565 S
O948   C549    1.398   1_565 S
O949   Zn957   1.933   .     S
O950   Zn960   1.943   .     S
O951   Zn958   1.925   .     S
O952   Zn959   1.933   .     S
O953   Zn960   1.929   .     S
O954   Zn957   1.926   .     S
O955   Zn958   1.945   .     S
O956   Zn959   1.934   .     S
C961   O1011   1.268   .     A
C961   O1013   1.268   .     A
C961   C967    1.436   .     S
C962   C976    1.394   .     A
C962   C983    1.411   .     A
C962   H999    1.077   .     S
C963   H987    1.084   .     S
C963   C975    1.387   .     A
C963   C976    1.396   .     A
C964   O1012   1.286   .     A
C964   O1014   1.283   .     A
C964   C966    1.454   .     S
C965   C974    1.475   .     S
C965   C977    1.402   .     A
C965   C982    1.418   .     A
C966   C1027   1.334   .     S
C966   H1049   1.088   .     S
C968   C971    1.454   .     S
C968   C609    1.343   1_565 S
C968   H636    1.088   1_565 S
C969   C970    1.444   .     S
C970   O1015   1.272   .     A
C970   O1009   1.273   .     A
C971   O1016   1.278   .     A
C971   O1010   1.268   .     A
C972   C977    1.387   .     A
C972   H1002   1.083   .     S
C972   C440    1.391   1_556 S
C973   O1006   1.280   .     A
C973   C976    1.450   .     S
C973   O1004   1.270   .     A
C974   O1007   1.283   .     A
C974   O1005   1.283   .     A
C975   H998    1.084   .     S
C977   H1000   1.083   .     S
C978   H990    1.113   .     S
C978   H991    1.115   .     S
C979   H992    1.111   .     S
C979   H994    1.111   .     S
C979   C618    1.521   1_565 S
C979   H633    1.111   1_565 S
C980   H1001   1.076   .     S
C981   C982    1.424   .     A
C981   C440    1.417   1_556 S
C981   C443    1.426   1_556 S
C982   C986    1.410   .     A
C984   C985    1.391   .     A
C984   C443    1.424   1_556 S
C984   C435    1.400   1_556 S
C985   H997    1.084   .     S
C985   C986    1.382   .     A
C986   H988    1.080   .     S
H995   C1027   1.086   .     S
O1003  Zn1019  1.948   .     S
O1003  Zn1020  1.930   .     S
O1003  Zn1017  1.962   .     S
O1003  Zn1018  1.937   .     S
O1004  Zn1018  1.937   .     S
O1005  Zn1020  1.943   .     S
O1006  Zn1019  1.932   .     S
O1007  Zn1017  1.927   .     S
O1008  C618    1.413   1_565 S
O1008  C609    1.398   1_565 S
O1009  Zn1017  1.933   .     S
O1010  Zn1020  1.943   .     S
O1011  Zn1018  1.925   .     S
O1012  Zn1019  1.933   .     S
O1013  Zn1020  1.929   .     S
O1014  Zn1017  1.926   .     S
O1015  Zn1018  1.945   .     S
O1016  Zn1019  1.934   .     S
C1021  O1071   1.268   .     A
C1021  O1073   1.268   .     A
C1021  C1027   1.436   .     S
C1022  C1036   1.394   .     A
C1022  C1043   1.411   .     A
C1022  H1059   1.077   .     S
C1023  H1047   1.084   .     S
C1023  C1035   1.387   .     A
C1023  C1036   1.396   .     A
C1024  O1072   1.286   .     A
C1024  O1074   1.283   .     A
C1024  C1026   1.454   .     S
C1025  C1034   1.475   .     S
C1025  C1037   1.402   .     A
C1025  C1042   1.418   .     A
C1026  C907    1.334   1_655 S
C1026  H929    1.088   1_655 S
C1028  C1031   1.454   .     S
C1028  C669    1.343   1_565 S
C1028  H696    1.088   1_565 S
C1029  C1030   1.444   .     S
C1030  O1075   1.272   .     A
C1030  O1069   1.273   .     A
C1031  O1076   1.278   .     A
C1031  O1070   1.268   .     A
C1032  C1037   1.387   .     A
C1032  H1062   1.083   .     S
C1032  C500    1.391   1_556 S
C1033  O1066   1.280   .     A
C1033  C1036   1.450   .     S
C1033  O1064   1.270   .     A
C1034  O1067   1.283   .     A
C1034  O1065   1.283   .     A
C1035  H1058   1.084   .     S
C1037  H1060   1.083   .     S
C1038  H1050   1.113   .     S
C1038  H1051   1.115   .     S
C1039  H1052   1.111   .     S
C1039  H1054   1.111   .     S
C1039  C678    1.521   1_565 S
C1039  H693    1.111   1_565 S
C1040  H1061   1.076   .     S
C1041  C1042   1.424   .     A
C1041  C500    1.417   1_556 S
C1041  C503    1.426   1_556 S
C1042  C1046   1.410   .     A
C1044  C1045   1.391   .     A
C1044  C503    1.424   1_556 S
C1044  C495    1.400   1_556 S
C1045  H1057   1.084   .     S
C1045  C1046   1.382   .     A
C1046  H1048   1.080   .     S
H1055  C907    1.086   1_655 S
O1063  Zn1079  1.948   .     S
O1063  Zn1080  1.930   .     S
O1063  Zn1077  1.962   .     S
O1063  Zn1078  1.937   .     S
O1064  Zn1078  1.937   .     S
O1065  Zn1080  1.943   .     S
O1066  Zn1079  1.932   .     S
O1067  Zn1077  1.927   .     S
O1068  C678    1.413   1_565 S
O1068  C669    1.398   1_565 S
O1069  Zn1077  1.933   .     S
O1070  Zn1080  1.943   .     S
O1071  Zn1078  1.925   .     S
O1072  Zn1079  1.933   .     S
O1073  Zn1080  1.929   .     S
O1074  Zn1077  1.926   .     S
O1075  Zn1078  1.945   .     S
O1076  Zn1079  1.934   .     S
