data_str_m1_o10_o18_pcu_sym.159
_audit_creation_date              2020-01-03
_audit_creation_method            'Materials Studio'
_symmetry_space_group_name_H-M    'P1'
_symmetry_Int_Tables_number       1
_symmetry_cell_setting            triclinic
loop_
_symmetry_equiv_pos_as_xyz
  x,y,z
_cell_length_a                    32.6655
_cell_length_b                    32.5062
_cell_length_c                    35.8225
_cell_angle_alpha                 98.2112
_cell_angle_beta                  73.2223
_cell_angle_gamma                 98.4654
loop_
_atom_site_label
_atom_site_type_symbol
_atom_site_fract_x
_atom_site_fract_y
_atom_site_fract_z
_atom_site_U_iso_or_equiv
_atom_site_adp_type
_atom_site_occupancy
C1     C     0.05283   0.16030   0.25828   0.00000  Uiso   1.00
C2     C     0.19089   0.12466   0.46177   0.00000  Uiso   1.00
C3     C     0.20675   0.10140   0.48294   0.00000  Uiso   1.00
C4     C     0.28091   0.17342   0.24140   0.00000  Uiso   1.00
C5     C     0.20270   0.11305   0.02263   0.00000  Uiso   1.00
C6     C     0.18344   0.14967   0.04156   0.00000  Uiso   1.00
C7     C     0.21675   0.08770   0.04388   0.00000  Uiso   1.00
C8     C     0.21132   0.09800   0.08386   0.00000  Uiso   1.00
C9     C     0.18557   0.16344   0.08054   0.00000  Uiso   1.00
C10    C     0.32660   0.17543   0.23839   0.00000  Uiso   1.00
C11    C     0.00721   0.15700   0.26304   0.00000  Uiso   1.00
C12    C     0.10697   0.22395   0.42033   0.00000  Uiso   1.00
C13    C     0.18078   0.32213   0.23825   0.00000  Uiso   1.00
C14    C     0.15155   0.01210   0.26211   0.00000  Uiso   1.00
C15    C     0.15591   0.05614   0.25891   0.00000  Uiso   1.00
C16    C     0.17681   0.27762   0.24140   0.00000  Uiso   1.00
C17    C     0.18814   0.14511   0.14420   0.00000  Uiso   1.00
C18    C     0.14566   0.18790   0.35606   0.00000  Uiso   1.00
C19    C     0.13661   0.19634   0.39891   0.00000  Uiso   1.00
C20    C     0.19611   0.13586   0.10201   0.00000  Uiso   1.00
C21    C     0.09864   0.23108   0.46096   0.00000  Uiso   1.00
C22    C     0.15774   0.17600   0.41853   0.00000  Uiso   1.00
C23    C     0.14863   0.18138   0.45964   0.00000  Uiso   1.00
C24    C     0.11926   0.21015   0.48074   0.00000  Uiso   1.00
C25    C     0.16787   0.15903   0.48029   0.00000  Uiso   1.00
C26    C     0.16166   0.16979   0.02131   0.00000  Uiso   1.00
C27    C     0.13071   0.19720   0.04142   0.00000  Uiso   1.00
C28    C     0.11007   0.21712   0.02143   0.00000  Uiso   1.00
H29    H     0.08659   0.23797   0.03799   0.00000  Uiso   1.00
H30    H     0.18196   0.15677   0.40095   0.00000  Uiso   1.00
H31    H     0.12027   0.20208   0.07302   0.00000  Uiso   1.00
H32    H     0.19461   0.11294   0.43144   0.00000  Uiso   1.00
H33    H     0.32960   0.12481   0.30734   0.00000  Uiso   1.00
H34    H     0.19032   0.22269   0.07690   0.00000  Uiso   1.00
H35    H     0.23027   0.05902   0.02991   0.00000  Uiso   1.00
H36    H     0.01617   0.19227   0.21553   0.00000  Uiso   1.00
H37    H     0.20776   0.00273   0.21632   0.00000  Uiso   1.00
H38    H     0.12417   0.33228   0.28410   0.00000  Uiso   1.00
H39    H     0.21986   0.07692   0.10054   0.00000  Uiso   1.00
H40    H     0.22207   0.07387   0.46814   0.00000  Uiso   1.00
H41    H     0.07581   0.25278   0.47697   0.00000  Uiso   1.00
H42    H     0.09033   0.24012   0.40572   0.00000  Uiso   1.00
O43    O     0.16667   0.16667   0.25000   0.00000  Uiso   1.00
O44    O     0.15693   0.12393   0.16625   0.00000  Uiso   1.00
O45    O     0.12687   0.20646   0.33749   0.00000  Uiso   1.00
O46    O     0.21088   0.17493   0.15877   0.00000  Uiso   1.00
O47    O     0.17198   0.16135   0.33749   0.00000  Uiso   1.00
O48    O     0.31252   0.13571   0.29284   0.00000  Uiso   1.00
O49    O     0.17979   0.20369   0.09784   0.00000  Uiso   1.00
O50    O     0.17849   0.08101   0.27821   0.00000  Uiso   1.00
O51    O     0.14581   0.26136   0.26767   0.00000  Uiso   1.00
O52    O     0.07452   0.13251   0.23607   0.00000  Uiso   1.00
O53    O     0.26785   0.19179   0.21806   0.00000  Uiso   1.00
O54    O     0.06990   0.18960   0.27820   0.00000  Uiso   1.00
O55    O     0.25440   0.15277   0.26768   0.00000  Uiso   1.00
O56    O     0.13800   0.06903   0.23607   0.00000  Uiso   1.00
O57    O     0.20437   0.25527   0.21806   0.00000  Uiso   1.00
Zn58   Zn    0.19244   0.14090   0.28278   0.00000  Uiso   1.00
Zn59   Zn    0.13459   0.12378   0.22258   0.00000  Uiso   1.00
Zn60   Zn    0.21166   0.19664   0.21188   0.00000  Uiso   1.00
Zn61   Zn    0.12798   0.20535   0.28277   0.00000  Uiso   1.00
C62    C     0.38616   0.16030   0.25828   0.00000  Uiso   1.00
C63    C     0.52423   0.12466   0.46177   0.00000  Uiso   1.00
C64    C     0.54008   0.10140   0.48294   0.00000  Uiso   1.00
C65    C     0.61424   0.17342   0.24140   0.00000  Uiso   1.00
C66    C     0.53604   0.11305   0.02263   0.00000  Uiso   1.00
C67    C     0.51677   0.14967   0.04156   0.00000  Uiso   1.00
C68    C     0.55008   0.08770   0.04388   0.00000  Uiso   1.00
C69    C     0.54466   0.09800   0.08386   0.00000  Uiso   1.00
C70    C     0.51890   0.16344   0.08054   0.00000  Uiso   1.00
C71    C     0.65994   0.17543   0.23839   0.00000  Uiso   1.00
C72    C     0.34054   0.15700   0.26304   0.00000  Uiso   1.00
C73    C     0.44030   0.22395   0.42033   0.00000  Uiso   1.00
C74    C     0.51411   0.32213   0.23825   0.00000  Uiso   1.00
C75    C     0.48489   0.01210   0.26211   0.00000  Uiso   1.00
C76    C     0.48924   0.05614   0.25891   0.00000  Uiso   1.00
C77    C     0.51014   0.27762   0.24140   0.00000  Uiso   1.00
C78    C     0.52147   0.14511   0.14420   0.00000  Uiso   1.00
C79    C     0.47900   0.18790   0.35606   0.00000  Uiso   1.00
C80    C     0.46995   0.19634   0.39891   0.00000  Uiso   1.00
C81    C     0.52945   0.13586   0.10201   0.00000  Uiso   1.00
C82    C     0.43197   0.23108   0.46096   0.00000  Uiso   1.00
C83    C     0.49108   0.17600   0.41853   0.00000  Uiso   1.00
C84    C     0.48196   0.18138   0.45964   0.00000  Uiso   1.00
C85    C     0.45259   0.21015   0.48074   0.00000  Uiso   1.00
C86    C     0.50120   0.15903   0.48029   0.00000  Uiso   1.00
C87    C     0.49500   0.16979   0.02131   0.00000  Uiso   1.00
C88    C     0.46405   0.19720   0.04142   0.00000  Uiso   1.00
C89    C     0.44341   0.21712   0.02143   0.00000  Uiso   1.00
H90    H     0.41992   0.23797   0.03799   0.00000  Uiso   1.00
H91    H     0.51529   0.15677   0.40095   0.00000  Uiso   1.00
H92    H     0.45360   0.20208   0.07302   0.00000  Uiso   1.00
H93    H     0.52794   0.11294   0.43144   0.00000  Uiso   1.00
H94    H     0.66293   0.12481   0.30734   0.00000  Uiso   1.00
H95    H     0.52365   0.22269   0.07690   0.00000  Uiso   1.00
H96    H     0.56360   0.05902   0.02991   0.00000  Uiso   1.00
H97    H     0.34951   0.19227   0.21553   0.00000  Uiso   1.00
H98    H     0.54109   0.00273   0.21632   0.00000  Uiso   1.00
H99    H     0.45750   0.33228   0.28410   0.00000  Uiso   1.00
H100   H     0.55320   0.07692   0.10054   0.00000  Uiso   1.00
H101   H     0.55540   0.07387   0.46814   0.00000  Uiso   1.00
H102   H     0.40914   0.25278   0.47697   0.00000  Uiso   1.00
H103   H     0.42366   0.24012   0.40572   0.00000  Uiso   1.00
O104   O     0.50000   0.16667   0.25000   0.00000  Uiso   1.00
O105   O     0.49027   0.12393   0.16625   0.00000  Uiso   1.00
O106   O     0.46020   0.20646   0.33749   0.00000  Uiso   1.00
O107   O     0.54421   0.17493   0.15877   0.00000  Uiso   1.00
O108   O     0.50532   0.16135   0.33749   0.00000  Uiso   1.00
O109   O     0.64585   0.13571   0.29284   0.00000  Uiso   1.00
O110   O     0.51312   0.20369   0.09784   0.00000  Uiso   1.00
O111   O     0.51182   0.08101   0.27821   0.00000  Uiso   1.00
O112   O     0.47914   0.26136   0.26767   0.00000  Uiso   1.00
O113   O     0.40785   0.13251   0.23607   0.00000  Uiso   1.00
O114   O     0.60119   0.19179   0.21806   0.00000  Uiso   1.00
O115   O     0.40323   0.18960   0.27820   0.00000  Uiso   1.00
O116   O     0.58773   0.15277   0.26768   0.00000  Uiso   1.00
O117   O     0.47133   0.06903   0.23607   0.00000  Uiso   1.00
O118   O     0.53771   0.25527   0.21806   0.00000  Uiso   1.00
Zn119  Zn    0.52577   0.14090   0.28278   0.00000  Uiso   1.00
Zn120  Zn    0.46792   0.12378   0.22258   0.00000  Uiso   1.00
Zn121  Zn    0.54500   0.19664   0.21188   0.00000  Uiso   1.00
Zn122  Zn    0.46131   0.20535   0.28277   0.00000  Uiso   1.00
C123   C     0.71949   0.16030   0.25828   0.00000  Uiso   1.00
C124   C     0.85756   0.12466   0.46177   0.00000  Uiso   1.00
C125   C     0.87342   0.10140   0.48294   0.00000  Uiso   1.00
C126   C     0.94758   0.17342   0.24140   0.00000  Uiso   1.00
C127   C     0.86937   0.11305   0.02263   0.00000  Uiso   1.00
C128   C     0.85011   0.14967   0.04156   0.00000  Uiso   1.00
C129   C     0.88342   0.08770   0.04388   0.00000  Uiso   1.00
C130   C     0.87799   0.09800   0.08386   0.00000  Uiso   1.00
C131   C     0.85223   0.16344   0.08054   0.00000  Uiso   1.00
C132   C     0.99327   0.17543   0.23839   0.00000  Uiso   1.00
C133   C     0.67387   0.15700   0.26304   0.00000  Uiso   1.00
C134   C     0.77363   0.22395   0.42033   0.00000  Uiso   1.00
C135   C     0.84744   0.32213   0.23825   0.00000  Uiso   1.00
C136   C     0.81822   0.01210   0.26211   0.00000  Uiso   1.00
C137   C     0.82257   0.05614   0.25891   0.00000  Uiso   1.00
C138   C     0.84347   0.27762   0.24140   0.00000  Uiso   1.00
C139   C     0.85480   0.14511   0.14420   0.00000  Uiso   1.00
C140   C     0.81233   0.18790   0.35606   0.00000  Uiso   1.00
C141   C     0.80328   0.19634   0.39891   0.00000  Uiso   1.00
C142   C     0.86278   0.13586   0.10201   0.00000  Uiso   1.00
C143   C     0.76530   0.23108   0.46096   0.00000  Uiso   1.00
C144   C     0.82441   0.17600   0.41853   0.00000  Uiso   1.00
C145   C     0.81530   0.18138   0.45964   0.00000  Uiso   1.00
C146   C     0.78593   0.21015   0.48074   0.00000  Uiso   1.00
C147   C     0.83453   0.15903   0.48029   0.00000  Uiso   1.00
C148   C     0.82833   0.16979   0.02131   0.00000  Uiso   1.00
C149   C     0.79738   0.19720   0.04142   0.00000  Uiso   1.00
C150   C     0.77674   0.21712   0.02143   0.00000  Uiso   1.00
H151   H     0.75326   0.23797   0.03799   0.00000  Uiso   1.00
H152   H     0.84862   0.15677   0.40095   0.00000  Uiso   1.00
H153   H     0.78693   0.20208   0.07302   0.00000  Uiso   1.00
H154   H     0.86127   0.11294   0.43144   0.00000  Uiso   1.00
H155   H     0.99627   0.12481   0.30734   0.00000  Uiso   1.00
H156   H     0.85699   0.22269   0.07690   0.00000  Uiso   1.00
H157   H     0.89694   0.05902   0.02991   0.00000  Uiso   1.00
H158   H     0.68284   0.19227   0.21553   0.00000  Uiso   1.00
H159   H     0.87442   0.00273   0.21632   0.00000  Uiso   1.00
H160   H     0.79084   0.33228   0.28410   0.00000  Uiso   1.00
H161   H     0.88653   0.07692   0.10054   0.00000  Uiso   1.00
H162   H     0.88873   0.07387   0.46814   0.00000  Uiso   1.00
H163   H     0.74248   0.25278   0.47697   0.00000  Uiso   1.00
H164   H     0.75699   0.24012   0.40572   0.00000  Uiso   1.00
O165   O     0.83333   0.16667   0.25000   0.00000  Uiso   1.00
O166   O     0.82360   0.12393   0.16625   0.00000  Uiso   1.00
O167   O     0.79354   0.20646   0.33749   0.00000  Uiso   1.00
O168   O     0.87755   0.17493   0.15877   0.00000  Uiso   1.00
O169   O     0.83865   0.16135   0.33749   0.00000  Uiso   1.00
O170   O     0.97918   0.13571   0.29284   0.00000  Uiso   1.00
O171   O     0.84645   0.20369   0.09784   0.00000  Uiso   1.00
O172   O     0.84515   0.08101   0.27821   0.00000  Uiso   1.00
O173   O     0.81247   0.26136   0.26767   0.00000  Uiso   1.00
O174   O     0.74119   0.13251   0.23607   0.00000  Uiso   1.00
O175   O     0.93452   0.19179   0.21806   0.00000  Uiso   1.00
O176   O     0.73656   0.18960   0.27820   0.00000  Uiso   1.00
O177   O     0.92106   0.15277   0.26768   0.00000  Uiso   1.00
O178   O     0.80467   0.06903   0.23607   0.00000  Uiso   1.00
O179   O     0.87104   0.25527   0.21806   0.00000  Uiso   1.00
Zn180  Zn    0.85910   0.14090   0.28278   0.00000  Uiso   1.00
Zn181  Zn    0.80125   0.12378   0.22258   0.00000  Uiso   1.00
Zn182  Zn    0.87833   0.19664   0.21188   0.00000  Uiso   1.00
Zn183  Zn    0.79465   0.20535   0.28277   0.00000  Uiso   1.00
C184   C     0.05283   0.49363   0.25828   0.00000  Uiso   1.00
C185   C     0.19089   0.45799   0.46177   0.00000  Uiso   1.00
C186   C     0.20675   0.43474   0.48294   0.00000  Uiso   1.00
C187   C     0.28091   0.50675   0.24140   0.00000  Uiso   1.00
C188   C     0.20270   0.44638   0.02263   0.00000  Uiso   1.00
C189   C     0.18344   0.48301   0.04156   0.00000  Uiso   1.00
C190   C     0.21675   0.42103   0.04388   0.00000  Uiso   1.00
C191   C     0.21132   0.43134   0.08386   0.00000  Uiso   1.00
C192   C     0.18557   0.49677   0.08054   0.00000  Uiso   1.00
C193   C     0.32660   0.50876   0.23839   0.00000  Uiso   1.00
C194   C     0.00721   0.49033   0.26304   0.00000  Uiso   1.00
C195   C     0.10697   0.55728   0.42033   0.00000  Uiso   1.00
C196   C     0.18078   0.65546   0.23825   0.00000  Uiso   1.00
C197   C     0.15155   0.34543   0.26211   0.00000  Uiso   1.00
C198   C     0.15591   0.38947   0.25891   0.00000  Uiso   1.00
C199   C     0.17681   0.61095   0.24140   0.00000  Uiso   1.00
C200   C     0.18814   0.47845   0.14420   0.00000  Uiso   1.00
C201   C     0.14566   0.52123   0.35606   0.00000  Uiso   1.00
C202   C     0.13661   0.52967   0.39891   0.00000  Uiso   1.00
C203   C     0.19611   0.46919   0.10201   0.00000  Uiso   1.00
C204   C     0.09864   0.56442   0.46096   0.00000  Uiso   1.00
C205   C     0.15774   0.50933   0.41853   0.00000  Uiso   1.00
C206   C     0.14863   0.51471   0.45964   0.00000  Uiso   1.00
C207   C     0.11926   0.54349   0.48074   0.00000  Uiso   1.00
C208   C     0.16787   0.49236   0.48029   0.00000  Uiso   1.00
C209   C     0.16166   0.50313   0.02131   0.00000  Uiso   1.00
C210   C     0.13071   0.53054   0.04142   0.00000  Uiso   1.00
C211   C     0.11007   0.55045   0.02143   0.00000  Uiso   1.00
H212   H     0.08659   0.57130   0.03799   0.00000  Uiso   1.00
H213   H     0.18196   0.49010   0.40095   0.00000  Uiso   1.00
H214   H     0.12027   0.53541   0.07302   0.00000  Uiso   1.00
H215   H     0.19461   0.44627   0.43144   0.00000  Uiso   1.00
H216   H     0.32960   0.45814   0.30734   0.00000  Uiso   1.00
H217   H     0.19032   0.55602   0.07690   0.00000  Uiso   1.00
H218   H     0.23027   0.39236   0.02991   0.00000  Uiso   1.00
H219   H     0.01617   0.52560   0.21553   0.00000  Uiso   1.00
H220   H     0.20776   0.33606   0.21632   0.00000  Uiso   1.00
H221   H     0.12417   0.66561   0.28410   0.00000  Uiso   1.00
H222   H     0.21986   0.41025   0.10054   0.00000  Uiso   1.00
H223   H     0.22207   0.40720   0.46814   0.00000  Uiso   1.00
H224   H     0.07581   0.58612   0.47697   0.00000  Uiso   1.00
H225   H     0.09033   0.57346   0.40572   0.00000  Uiso   1.00
O226   O     0.16667   0.50000   0.25000   0.00000  Uiso   1.00
O227   O     0.15693   0.45726   0.16625   0.00000  Uiso   1.00
O228   O     0.12687   0.53979   0.33749   0.00000  Uiso   1.00
O229   O     0.21088   0.50826   0.15877   0.00000  Uiso   1.00
O230   O     0.17198   0.49468   0.33749   0.00000  Uiso   1.00
O231   O     0.31252   0.46904   0.29284   0.00000  Uiso   1.00
O232   O     0.17979   0.53702   0.09784   0.00000  Uiso   1.00
O233   O     0.17849   0.41434   0.27821   0.00000  Uiso   1.00
O234   O     0.14581   0.59469   0.26767   0.00000  Uiso   1.00
O235   O     0.07452   0.46584   0.23607   0.00000  Uiso   1.00
O236   O     0.26785   0.52512   0.21806   0.00000  Uiso   1.00
O237   O     0.06990   0.52293   0.27820   0.00000  Uiso   1.00
O238   O     0.25440   0.48610   0.26768   0.00000  Uiso   1.00
O239   O     0.13800   0.40236   0.23607   0.00000  Uiso   1.00
O240   O     0.20437   0.58860   0.21806   0.00000  Uiso   1.00
Zn241  Zn    0.19244   0.47423   0.28278   0.00000  Uiso   1.00
Zn242  Zn    0.13459   0.45711   0.22258   0.00000  Uiso   1.00
Zn243  Zn    0.21166   0.52997   0.21188   0.00000  Uiso   1.00
Zn244  Zn    0.12798   0.53868   0.28277   0.00000  Uiso   1.00
C245   C     0.38616   0.49363   0.25828   0.00000  Uiso   1.00
C246   C     0.52423   0.45799   0.46177   0.00000  Uiso   1.00
C247   C     0.54008   0.43474   0.48294   0.00000  Uiso   1.00
C248   C     0.61424   0.50675   0.24140   0.00000  Uiso   1.00
C249   C     0.53604   0.44638   0.02263   0.00000  Uiso   1.00
C250   C     0.51677   0.48301   0.04156   0.00000  Uiso   1.00
C251   C     0.55008   0.42103   0.04388   0.00000  Uiso   1.00
C252   C     0.54466   0.43134   0.08386   0.00000  Uiso   1.00
C253   C     0.51890   0.49677   0.08054   0.00000  Uiso   1.00
C254   C     0.65994   0.50876   0.23839   0.00000  Uiso   1.00
C255   C     0.34054   0.49033   0.26304   0.00000  Uiso   1.00
C256   C     0.44030   0.55728   0.42033   0.00000  Uiso   1.00
C257   C     0.51411   0.65546   0.23825   0.00000  Uiso   1.00
C258   C     0.48489   0.34543   0.26211   0.00000  Uiso   1.00
C259   C     0.48924   0.38947   0.25891   0.00000  Uiso   1.00
C260   C     0.51014   0.61095   0.24140   0.00000  Uiso   1.00
C261   C     0.52147   0.47845   0.14420   0.00000  Uiso   1.00
C262   C     0.47900   0.52123   0.35606   0.00000  Uiso   1.00
C263   C     0.46995   0.52967   0.39891   0.00000  Uiso   1.00
C264   C     0.52945   0.46919   0.10201   0.00000  Uiso   1.00
C265   C     0.43197   0.56442   0.46096   0.00000  Uiso   1.00
C266   C     0.49108   0.50933   0.41853   0.00000  Uiso   1.00
C267   C     0.48196   0.51471   0.45964   0.00000  Uiso   1.00
C268   C     0.45259   0.54349   0.48074   0.00000  Uiso   1.00
C269   C     0.50120   0.49236   0.48029   0.00000  Uiso   1.00
C270   C     0.49500   0.50313   0.02131   0.00000  Uiso   1.00
C271   C     0.46405   0.53054   0.04142   0.00000  Uiso   1.00
C272   C     0.44341   0.55045   0.02143   0.00000  Uiso   1.00
H273   H     0.41992   0.57130   0.03799   0.00000  Uiso   1.00
H274   H     0.51529   0.49010   0.40095   0.00000  Uiso   1.00
H275   H     0.45360   0.53541   0.07302   0.00000  Uiso   1.00
H276   H     0.52794   0.44627   0.43144   0.00000  Uiso   1.00
H277   H     0.66293   0.45814   0.30734   0.00000  Uiso   1.00
H278   H     0.52365   0.55602   0.07690   0.00000  Uiso   1.00
H279   H     0.56360   0.39236   0.02991   0.00000  Uiso   1.00
H280   H     0.34951   0.52560   0.21553   0.00000  Uiso   1.00
H281   H     0.54109   0.33606   0.21632   0.00000  Uiso   1.00
H282   H     0.45750   0.66561   0.28410   0.00000  Uiso   1.00
H283   H     0.55320   0.41025   0.10054   0.00000  Uiso   1.00
H284   H     0.55540   0.40720   0.46814   0.00000  Uiso   1.00
H285   H     0.40914   0.58612   0.47697   0.00000  Uiso   1.00
H286   H     0.42366   0.57346   0.40572   0.00000  Uiso   1.00
O287   O     0.50000   0.50000   0.25000   0.00000  Uiso   1.00
O288   O     0.49027   0.45726   0.16625   0.00000  Uiso   1.00
O289   O     0.46020   0.53979   0.33749   0.00000  Uiso   1.00
O290   O     0.54421   0.50826   0.15877   0.00000  Uiso   1.00
O291   O     0.50532   0.49468   0.33749   0.00000  Uiso   1.00
O292   O     0.64585   0.46904   0.29284   0.00000  Uiso   1.00
O293   O     0.51312   0.53702   0.09784   0.00000  Uiso   1.00
O294   O     0.51182   0.41434   0.27821   0.00000  Uiso   1.00
O295   O     0.47914   0.59469   0.26767   0.00000  Uiso   1.00
O296   O     0.40785   0.46584   0.23607   0.00000  Uiso   1.00
O297   O     0.60119   0.52512   0.21806   0.00000  Uiso   1.00
O298   O     0.40323   0.52293   0.27820   0.00000  Uiso   1.00
O299   O     0.58773   0.48610   0.26768   0.00000  Uiso   1.00
O300   O     0.47133   0.40236   0.23607   0.00000  Uiso   1.00
O301   O     0.53771   0.58860   0.21806   0.00000  Uiso   1.00
Zn302  Zn    0.52577   0.47423   0.28278   0.00000  Uiso   1.00
Zn303  Zn    0.46792   0.45711   0.22258   0.00000  Uiso   1.00
Zn304  Zn    0.54500   0.52997   0.21188   0.00000  Uiso   1.00
Zn305  Zn    0.46131   0.53868   0.28277   0.00000  Uiso   1.00
C306   C     0.71949   0.49363   0.25828   0.00000  Uiso   1.00
C307   C     0.85756   0.45799   0.46177   0.00000  Uiso   1.00
C308   C     0.87342   0.43474   0.48294   0.00000  Uiso   1.00
C309   C     0.94758   0.50675   0.24140   0.00000  Uiso   1.00
C310   C     0.86937   0.44638   0.02263   0.00000  Uiso   1.00
C311   C     0.85011   0.48301   0.04156   0.00000  Uiso   1.00
C312   C     0.88342   0.42103   0.04388   0.00000  Uiso   1.00
C313   C     0.87799   0.43134   0.08386   0.00000  Uiso   1.00
C314   C     0.85223   0.49677   0.08054   0.00000  Uiso   1.00
C315   C     0.99327   0.50876   0.23839   0.00000  Uiso   1.00
C316   C     0.67387   0.49033   0.26304   0.00000  Uiso   1.00
C317   C     0.77363   0.55728   0.42033   0.00000  Uiso   1.00
C318   C     0.84744   0.65546   0.23825   0.00000  Uiso   1.00
C319   C     0.81822   0.34543   0.26211   0.00000  Uiso   1.00
C320   C     0.82257   0.38947   0.25891   0.00000  Uiso   1.00
C321   C     0.84347   0.61095   0.24140   0.00000  Uiso   1.00
C322   C     0.85480   0.47845   0.14420   0.00000  Uiso   1.00
C323   C     0.81233   0.52123   0.35606   0.00000  Uiso   1.00
C324   C     0.80328   0.52967   0.39891   0.00000  Uiso   1.00
C325   C     0.86278   0.46919   0.10201   0.00000  Uiso   1.00
C326   C     0.76530   0.56442   0.46096   0.00000  Uiso   1.00
C327   C     0.82441   0.50933   0.41853   0.00000  Uiso   1.00
C328   C     0.81530   0.51471   0.45964   0.00000  Uiso   1.00
C329   C     0.78593   0.54349   0.48074   0.00000  Uiso   1.00
C330   C     0.83453   0.49236   0.48029   0.00000  Uiso   1.00
C331   C     0.82833   0.50313   0.02131   0.00000  Uiso   1.00
C332   C     0.79738   0.53054   0.04142   0.00000  Uiso   1.00
C333   C     0.77674   0.55045   0.02143   0.00000  Uiso   1.00
H334   H     0.75326   0.57130   0.03799   0.00000  Uiso   1.00
H335   H     0.84862   0.49010   0.40095   0.00000  Uiso   1.00
H336   H     0.78693   0.53541   0.07302   0.00000  Uiso   1.00
H337   H     0.86127   0.44627   0.43144   0.00000  Uiso   1.00
H338   H     0.99627   0.45814   0.30734   0.00000  Uiso   1.00
H339   H     0.85699   0.55602   0.07690   0.00000  Uiso   1.00
H340   H     0.89694   0.39236   0.02991   0.00000  Uiso   1.00
H341   H     0.68284   0.52560   0.21553   0.00000  Uiso   1.00
H342   H     0.87442   0.33606   0.21632   0.00000  Uiso   1.00
H343   H     0.79084   0.66561   0.28410   0.00000  Uiso   1.00
H344   H     0.88653   0.41025   0.10054   0.00000  Uiso   1.00
H345   H     0.88873   0.40720   0.46814   0.00000  Uiso   1.00
H346   H     0.74248   0.58612   0.47697   0.00000  Uiso   1.00
H347   H     0.75699   0.57346   0.40572   0.00000  Uiso   1.00
O348   O     0.83333   0.50000   0.25000   0.00000  Uiso   1.00
O349   O     0.82360   0.45726   0.16625   0.00000  Uiso   1.00
O350   O     0.79354   0.53979   0.33749   0.00000  Uiso   1.00
O351   O     0.87755   0.50826   0.15877   0.00000  Uiso   1.00
O352   O     0.83865   0.49468   0.33749   0.00000  Uiso   1.00
O353   O     0.97918   0.46904   0.29284   0.00000  Uiso   1.00
O354   O     0.84645   0.53702   0.09784   0.00000  Uiso   1.00
O355   O     0.84515   0.41434   0.27821   0.00000  Uiso   1.00
O356   O     0.81247   0.59469   0.26767   0.00000  Uiso   1.00
O357   O     0.74119   0.46584   0.23607   0.00000  Uiso   1.00
O358   O     0.93452   0.52512   0.21806   0.00000  Uiso   1.00
O359   O     0.73656   0.52293   0.27820   0.00000  Uiso   1.00
O360   O     0.92106   0.48610   0.26768   0.00000  Uiso   1.00
O361   O     0.80467   0.40236   0.23607   0.00000  Uiso   1.00
O362   O     0.87104   0.58860   0.21806   0.00000  Uiso   1.00
Zn363  Zn    0.85910   0.47423   0.28278   0.00000  Uiso   1.00
Zn364  Zn    0.80125   0.45711   0.22258   0.00000  Uiso   1.00
Zn365  Zn    0.87833   0.52997   0.21188   0.00000  Uiso   1.00
Zn366  Zn    0.79465   0.53868   0.28277   0.00000  Uiso   1.00
C367   C     0.05283   0.82697   0.25828   0.00000  Uiso   1.00
C368   C     0.19089   0.79133   0.46177   0.00000  Uiso   1.00
C369   C     0.20675   0.76807   0.48294   0.00000  Uiso   1.00
C370   C     0.28091   0.84009   0.24140   0.00000  Uiso   1.00
C371   C     0.20270   0.77972   0.02263   0.00000  Uiso   1.00
C372   C     0.18344   0.81634   0.04156   0.00000  Uiso   1.00
C373   C     0.21675   0.75437   0.04388   0.00000  Uiso   1.00
C374   C     0.21132   0.76467   0.08386   0.00000  Uiso   1.00
C375   C     0.18557   0.83010   0.08054   0.00000  Uiso   1.00
C376   C     0.32660   0.84210   0.23839   0.00000  Uiso   1.00
C377   C     0.00721   0.82367   0.26304   0.00000  Uiso   1.00
C378   C     0.10697   0.89062   0.42033   0.00000  Uiso   1.00
C379   C     0.18078   0.98880   0.23825   0.00000  Uiso   1.00
C380   C     0.15155   0.67876   0.26211   0.00000  Uiso   1.00
C381   C     0.15591   0.72281   0.25891   0.00000  Uiso   1.00
C382   C     0.17681   0.94429   0.24140   0.00000  Uiso   1.00
C383   C     0.18814   0.81178   0.14420   0.00000  Uiso   1.00
C384   C     0.14566   0.85456   0.35606   0.00000  Uiso   1.00
C385   C     0.13661   0.86300   0.39891   0.00000  Uiso   1.00
C386   C     0.19611   0.80252   0.10201   0.00000  Uiso   1.00
C387   C     0.09864   0.89775   0.46096   0.00000  Uiso   1.00
C388   C     0.15774   0.84267   0.41853   0.00000  Uiso   1.00
C389   C     0.14863   0.84804   0.45964   0.00000  Uiso   1.00
C390   C     0.11926   0.87682   0.48074   0.00000  Uiso   1.00
C391   C     0.16787   0.82569   0.48029   0.00000  Uiso   1.00
C392   C     0.16166   0.83646   0.02131   0.00000  Uiso   1.00
C393   C     0.13071   0.86387   0.04142   0.00000  Uiso   1.00
C394   C     0.11007   0.88378   0.02143   0.00000  Uiso   1.00
H395   H     0.08659   0.90464   0.03799   0.00000  Uiso   1.00
H396   H     0.18196   0.82344   0.40095   0.00000  Uiso   1.00
H397   H     0.12027   0.86874   0.07302   0.00000  Uiso   1.00
H398   H     0.19461   0.77960   0.43144   0.00000  Uiso   1.00
H399   H     0.32960   0.79148   0.30734   0.00000  Uiso   1.00
H400   H     0.19032   0.88936   0.07690   0.00000  Uiso   1.00
H401   H     0.23027   0.72569   0.02991   0.00000  Uiso   1.00
H402   H     0.01617   0.85894   0.21553   0.00000  Uiso   1.00
H403   H     0.20776   0.66940   0.21632   0.00000  Uiso   1.00
H404   H     0.12417   0.99895   0.28410   0.00000  Uiso   1.00
H405   H     0.21986   0.74358   0.10054   0.00000  Uiso   1.00
H406   H     0.22207   0.74053   0.46814   0.00000  Uiso   1.00
H407   H     0.07581   0.91945   0.47697   0.00000  Uiso   1.00
H408   H     0.09033   0.90679   0.40572   0.00000  Uiso   1.00
O409   O     0.16667   0.83333   0.25000   0.00000  Uiso   1.00
O410   O     0.15693   0.79060   0.16625   0.00000  Uiso   1.00
O411   O     0.12687   0.87313   0.33749   0.00000  Uiso   1.00
O412   O     0.21088   0.84159   0.15877   0.00000  Uiso   1.00
O413   O     0.17198   0.82802   0.33749   0.00000  Uiso   1.00
O414   O     0.31252   0.80237   0.29284   0.00000  Uiso   1.00
O415   O     0.17979   0.87035   0.09784   0.00000  Uiso   1.00
O416   O     0.17849   0.74768   0.27821   0.00000  Uiso   1.00
O417   O     0.14581   0.92803   0.26767   0.00000  Uiso   1.00
O418   O     0.07452   0.79917   0.23607   0.00000  Uiso   1.00
O419   O     0.26785   0.85845   0.21806   0.00000  Uiso   1.00
O420   O     0.06990   0.85627   0.27820   0.00000  Uiso   1.00
O421   O     0.25440   0.81944   0.26768   0.00000  Uiso   1.00
O422   O     0.13800   0.73570   0.23607   0.00000  Uiso   1.00
O423   O     0.20437   0.92193   0.21806   0.00000  Uiso   1.00
Zn424  Zn    0.19244   0.80756   0.28278   0.00000  Uiso   1.00
Zn425  Zn    0.13459   0.79044   0.22258   0.00000  Uiso   1.00
Zn426  Zn    0.21166   0.86331   0.21188   0.00000  Uiso   1.00
Zn427  Zn    0.12798   0.87202   0.28277   0.00000  Uiso   1.00
C428   C     0.38616   0.82697   0.25828   0.00000  Uiso   1.00
C429   C     0.52423   0.79133   0.46177   0.00000  Uiso   1.00
C430   C     0.54008   0.76807   0.48294   0.00000  Uiso   1.00
C431   C     0.61424   0.84009   0.24140   0.00000  Uiso   1.00
C432   C     0.53604   0.77972   0.02263   0.00000  Uiso   1.00
C433   C     0.51677   0.81634   0.04156   0.00000  Uiso   1.00
C434   C     0.55008   0.75437   0.04388   0.00000  Uiso   1.00
C435   C     0.54466   0.76467   0.08386   0.00000  Uiso   1.00
C436   C     0.51890   0.83010   0.08054   0.00000  Uiso   1.00
C437   C     0.65994   0.84210   0.23839   0.00000  Uiso   1.00
C438   C     0.34054   0.82367   0.26304   0.00000  Uiso   1.00
C439   C     0.44030   0.89062   0.42033   0.00000  Uiso   1.00
C440   C     0.51411   0.98880   0.23825   0.00000  Uiso   1.00
C441   C     0.48489   0.67876   0.26211   0.00000  Uiso   1.00
C442   C     0.48924   0.72281   0.25891   0.00000  Uiso   1.00
C443   C     0.51014   0.94429   0.24140   0.00000  Uiso   1.00
C444   C     0.52147   0.81178   0.14420   0.00000  Uiso   1.00
C445   C     0.47900   0.85456   0.35606   0.00000  Uiso   1.00
C446   C     0.46995   0.86300   0.39891   0.00000  Uiso   1.00
C447   C     0.52945   0.80252   0.10201   0.00000  Uiso   1.00
C448   C     0.43197   0.89775   0.46096   0.00000  Uiso   1.00
C449   C     0.49108   0.84267   0.41853   0.00000  Uiso   1.00
C450   C     0.48196   0.84804   0.45964   0.00000  Uiso   1.00
C451   C     0.45259   0.87682   0.48074   0.00000  Uiso   1.00
C452   C     0.50120   0.82569   0.48029   0.00000  Uiso   1.00
C453   C     0.49500   0.83646   0.02131   0.00000  Uiso   1.00
C454   C     0.46405   0.86387   0.04142   0.00000  Uiso   1.00
C455   C     0.44341   0.88378   0.02143   0.00000  Uiso   1.00
H456   H     0.41992   0.90464   0.03799   0.00000  Uiso   1.00
H457   H     0.51529   0.82344   0.40095   0.00000  Uiso   1.00
H458   H     0.45360   0.86874   0.07302   0.00000  Uiso   1.00
H459   H     0.52794   0.77960   0.43144   0.00000  Uiso   1.00
H460   H     0.66293   0.79148   0.30734   0.00000  Uiso   1.00
H461   H     0.52365   0.88936   0.07690   0.00000  Uiso   1.00
H462   H     0.56360   0.72569   0.02991   0.00000  Uiso   1.00
H463   H     0.34951   0.85894   0.21553   0.00000  Uiso   1.00
H464   H     0.54109   0.66940   0.21632   0.00000  Uiso   1.00
H465   H     0.45750   0.99895   0.28410   0.00000  Uiso   1.00
H466   H     0.55320   0.74358   0.10054   0.00000  Uiso   1.00
H467   H     0.55540   0.74053   0.46814   0.00000  Uiso   1.00
H468   H     0.40914   0.91945   0.47697   0.00000  Uiso   1.00
H469   H     0.42366   0.90679   0.40572   0.00000  Uiso   1.00
O470   O     0.50000   0.83333   0.25000   0.00000  Uiso   1.00
O471   O     0.49027   0.79060   0.16625   0.00000  Uiso   1.00
O472   O     0.46020   0.87313   0.33749   0.00000  Uiso   1.00
O473   O     0.54421   0.84159   0.15877   0.00000  Uiso   1.00
O474   O     0.50532   0.82802   0.33749   0.00000  Uiso   1.00
O475   O     0.64585   0.80237   0.29284   0.00000  Uiso   1.00
O476   O     0.51312   0.87035   0.09784   0.00000  Uiso   1.00
O477   O     0.51182   0.74768   0.27821   0.00000  Uiso   1.00
O478   O     0.47914   0.92803   0.26767   0.00000  Uiso   1.00
O479   O     0.40785   0.79917   0.23607   0.00000  Uiso   1.00
O480   O     0.60119   0.85845   0.21806   0.00000  Uiso   1.00
O481   O     0.40323   0.85627   0.27820   0.00000  Uiso   1.00
O482   O     0.58773   0.81944   0.26768   0.00000  Uiso   1.00
O483   O     0.47133   0.73570   0.23607   0.00000  Uiso   1.00
O484   O     0.53771   0.92193   0.21806   0.00000  Uiso   1.00
Zn485  Zn    0.52577   0.80756   0.28278   0.00000  Uiso   1.00
Zn486  Zn    0.46792   0.79044   0.22258   0.00000  Uiso   1.00
Zn487  Zn    0.54500   0.86331   0.21188   0.00000  Uiso   1.00
Zn488  Zn    0.46131   0.87202   0.28277   0.00000  Uiso   1.00
C489   C     0.71949   0.82697   0.25828   0.00000  Uiso   1.00
C490   C     0.85756   0.79133   0.46177   0.00000  Uiso   1.00
C491   C     0.87342   0.76807   0.48294   0.00000  Uiso   1.00
C492   C     0.94758   0.84009   0.24140   0.00000  Uiso   1.00
C493   C     0.86937   0.77972   0.02263   0.00000  Uiso   1.00
C494   C     0.85011   0.81634   0.04156   0.00000  Uiso   1.00
C495   C     0.88342   0.75437   0.04388   0.00000  Uiso   1.00
C496   C     0.87799   0.76467   0.08386   0.00000  Uiso   1.00
C497   C     0.85223   0.83010   0.08054   0.00000  Uiso   1.00
C498   C     0.99327   0.84210   0.23839   0.00000  Uiso   1.00
C499   C     0.67387   0.82367   0.26304   0.00000  Uiso   1.00
C500   C     0.77363   0.89062   0.42033   0.00000  Uiso   1.00
C501   C     0.84744   0.98880   0.23825   0.00000  Uiso   1.00
C502   C     0.81822   0.67876   0.26211   0.00000  Uiso   1.00
C503   C     0.82257   0.72281   0.25891   0.00000  Uiso   1.00
C504   C     0.84347   0.94429   0.24140   0.00000  Uiso   1.00
C505   C     0.85480   0.81178   0.14420   0.00000  Uiso   1.00
C506   C     0.81233   0.85456   0.35606   0.00000  Uiso   1.00
C507   C     0.80328   0.86300   0.39891   0.00000  Uiso   1.00
C508   C     0.86278   0.80252   0.10201   0.00000  Uiso   1.00
C509   C     0.76530   0.89775   0.46096   0.00000  Uiso   1.00
C510   C     0.82441   0.84267   0.41853   0.00000  Uiso   1.00
C511   C     0.81530   0.84804   0.45964   0.00000  Uiso   1.00
C512   C     0.78593   0.87682   0.48074   0.00000  Uiso   1.00
C513   C     0.83453   0.82569   0.48029   0.00000  Uiso   1.00
C514   C     0.82833   0.83646   0.02131   0.00000  Uiso   1.00
C515   C     0.79738   0.86387   0.04142   0.00000  Uiso   1.00
C516   C     0.77674   0.88378   0.02143   0.00000  Uiso   1.00
H517   H     0.75326   0.90464   0.03799   0.00000  Uiso   1.00
H518   H     0.84862   0.82344   0.40095   0.00000  Uiso   1.00
H519   H     0.78693   0.86874   0.07302   0.00000  Uiso   1.00
H520   H     0.86127   0.77960   0.43144   0.00000  Uiso   1.00
H521   H     0.99627   0.79148   0.30734   0.00000  Uiso   1.00
H522   H     0.85699   0.88936   0.07690   0.00000  Uiso   1.00
H523   H     0.89694   0.72569   0.02991   0.00000  Uiso   1.00
H524   H     0.68284   0.85894   0.21553   0.00000  Uiso   1.00
H525   H     0.87442   0.66940   0.21632   0.00000  Uiso   1.00
H526   H     0.79084   0.99895   0.28410   0.00000  Uiso   1.00
H527   H     0.88653   0.74358   0.10054   0.00000  Uiso   1.00
H528   H     0.88873   0.74053   0.46814   0.00000  Uiso   1.00
H529   H     0.74248   0.91945   0.47697   0.00000  Uiso   1.00
H530   H     0.75699   0.90679   0.40572   0.00000  Uiso   1.00
O531   O     0.83333   0.83333   0.25000   0.00000  Uiso   1.00
O532   O     0.82360   0.79060   0.16625   0.00000  Uiso   1.00
O533   O     0.79354   0.87313   0.33749   0.00000  Uiso   1.00
O534   O     0.87755   0.84159   0.15877   0.00000  Uiso   1.00
O535   O     0.83865   0.82802   0.33749   0.00000  Uiso   1.00
O536   O     0.97918   0.80237   0.29284   0.00000  Uiso   1.00
O537   O     0.84645   0.87035   0.09784   0.00000  Uiso   1.00
O538   O     0.84515   0.74768   0.27821   0.00000  Uiso   1.00
O539   O     0.81247   0.92803   0.26767   0.00000  Uiso   1.00
O540   O     0.74119   0.79917   0.23607   0.00000  Uiso   1.00
O541   O     0.93452   0.85845   0.21806   0.00000  Uiso   1.00
O542   O     0.73656   0.85627   0.27820   0.00000  Uiso   1.00
O543   O     0.92106   0.81944   0.26768   0.00000  Uiso   1.00
O544   O     0.80467   0.73570   0.23607   0.00000  Uiso   1.00
O545   O     0.87104   0.92193   0.21806   0.00000  Uiso   1.00
Zn546  Zn    0.85910   0.80756   0.28278   0.00000  Uiso   1.00
Zn547  Zn    0.80125   0.79044   0.22258   0.00000  Uiso   1.00
Zn548  Zn    0.87833   0.86331   0.21188   0.00000  Uiso   1.00
Zn549  Zn    0.79465   0.87202   0.28277   0.00000  Uiso   1.00
C550   C     0.05283   0.16030   0.75828   0.00000  Uiso   1.00
C551   C     0.19089   0.12466   0.96177   0.00000  Uiso   1.00
C552   C     0.20675   0.10140   0.98294   0.00000  Uiso   1.00
C553   C     0.28091   0.17342   0.74140   0.00000  Uiso   1.00
C554   C     0.20270   0.11305   0.52263   0.00000  Uiso   1.00
C555   C     0.18344   0.14967   0.54156   0.00000  Uiso   1.00
C556   C     0.21675   0.08770   0.54388   0.00000  Uiso   1.00
C557   C     0.21132   0.09800   0.58386   0.00000  Uiso   1.00
C558   C     0.18557   0.16344   0.58054   0.00000  Uiso   1.00
C559   C     0.32660   0.17543   0.73839   0.00000  Uiso   1.00
C560   C     0.00721   0.15700   0.76304   0.00000  Uiso   1.00
C561   C     0.10697   0.22395   0.92033   0.00000  Uiso   1.00
C562   C     0.18078   0.32213   0.73825   0.00000  Uiso   1.00
C563   C     0.15155   0.01210   0.76211   0.00000  Uiso   1.00
C564   C     0.15591   0.05614   0.75891   0.00000  Uiso   1.00
C565   C     0.17681   0.27762   0.74140   0.00000  Uiso   1.00
C566   C     0.18814   0.14511   0.64420   0.00000  Uiso   1.00
C567   C     0.14566   0.18790   0.85606   0.00000  Uiso   1.00
C568   C     0.13661   0.19634   0.89891   0.00000  Uiso   1.00
C569   C     0.19611   0.13586   0.60201   0.00000  Uiso   1.00
C570   C     0.09864   0.23108   0.96096   0.00000  Uiso   1.00
C571   C     0.15774   0.17600   0.91853   0.00000  Uiso   1.00
C572   C     0.14863   0.18138   0.95964   0.00000  Uiso   1.00
C573   C     0.11926   0.21015   0.98074   0.00000  Uiso   1.00
C574   C     0.16787   0.15903   0.98029   0.00000  Uiso   1.00
C575   C     0.16166   0.16979   0.52131   0.00000  Uiso   1.00
C576   C     0.13071   0.19720   0.54142   0.00000  Uiso   1.00
C577   C     0.11007   0.21712   0.52143   0.00000  Uiso   1.00
H578   H     0.08659   0.23797   0.53799   0.00000  Uiso   1.00
H579   H     0.18196   0.15677   0.90095   0.00000  Uiso   1.00
H580   H     0.12027   0.20208   0.57302   0.00000  Uiso   1.00
H581   H     0.19461   0.11294   0.93144   0.00000  Uiso   1.00
H582   H     0.32960   0.12481   0.80734   0.00000  Uiso   1.00
H583   H     0.19032   0.22269   0.57690   0.00000  Uiso   1.00
H584   H     0.23027   0.05902   0.52991   0.00000  Uiso   1.00
H585   H     0.01617   0.19227   0.71553   0.00000  Uiso   1.00
H586   H     0.20776   0.00273   0.71632   0.00000  Uiso   1.00
H587   H     0.12417   0.33228   0.78410   0.00000  Uiso   1.00
H588   H     0.21986   0.07692   0.60054   0.00000  Uiso   1.00
H589   H     0.22207   0.07387   0.96814   0.00000  Uiso   1.00
H590   H     0.07581   0.25278   0.97697   0.00000  Uiso   1.00
H591   H     0.09033   0.24012   0.90572   0.00000  Uiso   1.00
O592   O     0.16667   0.16667   0.75000   0.00000  Uiso   1.00
O593   O     0.15693   0.12393   0.66625   0.00000  Uiso   1.00
O594   O     0.12687   0.20646   0.83749   0.00000  Uiso   1.00
O595   O     0.21088   0.17493   0.65877   0.00000  Uiso   1.00
O596   O     0.17198   0.16135   0.83749   0.00000  Uiso   1.00
O597   O     0.31252   0.13571   0.79284   0.00000  Uiso   1.00
O598   O     0.17979   0.20369   0.59784   0.00000  Uiso   1.00
O599   O     0.17849   0.08101   0.77821   0.00000  Uiso   1.00
O600   O     0.14581   0.26136   0.76767   0.00000  Uiso   1.00
O601   O     0.07452   0.13251   0.73607   0.00000  Uiso   1.00
O602   O     0.26785   0.19179   0.71806   0.00000  Uiso   1.00
O603   O     0.06990   0.18960   0.77820   0.00000  Uiso   1.00
O604   O     0.25440   0.15277   0.76768   0.00000  Uiso   1.00
O605   O     0.13800   0.06903   0.73607   0.00000  Uiso   1.00
O606   O     0.20437   0.25527   0.71806   0.00000  Uiso   1.00
Zn607  Zn    0.19244   0.14090   0.78278   0.00000  Uiso   1.00
Zn608  Zn    0.13459   0.12378   0.72258   0.00000  Uiso   1.00
Zn609  Zn    0.21166   0.19664   0.71188   0.00000  Uiso   1.00
Zn610  Zn    0.12798   0.20535   0.78277   0.00000  Uiso   1.00
C611   C     0.38616   0.16030   0.75828   0.00000  Uiso   1.00
C612   C     0.52423   0.12466   0.96177   0.00000  Uiso   1.00
C613   C     0.54008   0.10140   0.98294   0.00000  Uiso   1.00
C614   C     0.61424   0.17342   0.74140   0.00000  Uiso   1.00
C615   C     0.53604   0.11305   0.52263   0.00000  Uiso   1.00
C616   C     0.51677   0.14967   0.54156   0.00000  Uiso   1.00
C617   C     0.55008   0.08770   0.54388   0.00000  Uiso   1.00
C618   C     0.54466   0.09800   0.58386   0.00000  Uiso   1.00
C619   C     0.51890   0.16344   0.58054   0.00000  Uiso   1.00
C620   C     0.65994   0.17543   0.73839   0.00000  Uiso   1.00
C621   C     0.34054   0.15700   0.76304   0.00000  Uiso   1.00
C622   C     0.44030   0.22395   0.92033   0.00000  Uiso   1.00
C623   C     0.51411   0.32213   0.73825   0.00000  Uiso   1.00
C624   C     0.48489   0.01210   0.76211   0.00000  Uiso   1.00
C625   C     0.48924   0.05614   0.75891   0.00000  Uiso   1.00
C626   C     0.51014   0.27762   0.74140   0.00000  Uiso   1.00
C627   C     0.52147   0.14511   0.64420   0.00000  Uiso   1.00
C628   C     0.47900   0.18790   0.85606   0.00000  Uiso   1.00
C629   C     0.46995   0.19634   0.89891   0.00000  Uiso   1.00
C630   C     0.52945   0.13586   0.60201   0.00000  Uiso   1.00
C631   C     0.43197   0.23108   0.96096   0.00000  Uiso   1.00
C632   C     0.49108   0.17600   0.91853   0.00000  Uiso   1.00
C633   C     0.48196   0.18138   0.95964   0.00000  Uiso   1.00
C634   C     0.45259   0.21015   0.98074   0.00000  Uiso   1.00
C635   C     0.50120   0.15903   0.98029   0.00000  Uiso   1.00
C636   C     0.49500   0.16979   0.52131   0.00000  Uiso   1.00
C637   C     0.46405   0.19720   0.54142   0.00000  Uiso   1.00
C638   C     0.44341   0.21712   0.52143   0.00000  Uiso   1.00
H639   H     0.41992   0.23797   0.53799   0.00000  Uiso   1.00
H640   H     0.51529   0.15677   0.90095   0.00000  Uiso   1.00
H641   H     0.45360   0.20208   0.57302   0.00000  Uiso   1.00
H642   H     0.52794   0.11294   0.93144   0.00000  Uiso   1.00
H643   H     0.66293   0.12481   0.80734   0.00000  Uiso   1.00
H644   H     0.52365   0.22269   0.57690   0.00000  Uiso   1.00
H645   H     0.56360   0.05902   0.52991   0.00000  Uiso   1.00
H646   H     0.34951   0.19227   0.71553   0.00000  Uiso   1.00
H647   H     0.54109   0.00273   0.71632   0.00000  Uiso   1.00
H648   H     0.45750   0.33228   0.78410   0.00000  Uiso   1.00
H649   H     0.55320   0.07692   0.60054   0.00000  Uiso   1.00
H650   H     0.55540   0.07387   0.96814   0.00000  Uiso   1.00
H651   H     0.40914   0.25278   0.97697   0.00000  Uiso   1.00
H652   H     0.42366   0.24012   0.90572   0.00000  Uiso   1.00
O653   O     0.50000   0.16667   0.75000   0.00000  Uiso   1.00
O654   O     0.49027   0.12393   0.66625   0.00000  Uiso   1.00
O655   O     0.46020   0.20646   0.83749   0.00000  Uiso   1.00
O656   O     0.54421   0.17493   0.65877   0.00000  Uiso   1.00
O657   O     0.50532   0.16135   0.83749   0.00000  Uiso   1.00
O658   O     0.64585   0.13571   0.79284   0.00000  Uiso   1.00
O659   O     0.51312   0.20369   0.59784   0.00000  Uiso   1.00
O660   O     0.51182   0.08101   0.77821   0.00000  Uiso   1.00
O661   O     0.47914   0.26136   0.76767   0.00000  Uiso   1.00
O662   O     0.40785   0.13251   0.73607   0.00000  Uiso   1.00
O663   O     0.60119   0.19179   0.71806   0.00000  Uiso   1.00
O664   O     0.40323   0.18960   0.77820   0.00000  Uiso   1.00
O665   O     0.58773   0.15277   0.76768   0.00000  Uiso   1.00
O666   O     0.47133   0.06903   0.73607   0.00000  Uiso   1.00
O667   O     0.53771   0.25527   0.71806   0.00000  Uiso   1.00
Zn668  Zn    0.52577   0.14090   0.78278   0.00000  Uiso   1.00
Zn669  Zn    0.46792   0.12378   0.72258   0.00000  Uiso   1.00
Zn670  Zn    0.54500   0.19664   0.71188   0.00000  Uiso   1.00
Zn671  Zn    0.46131   0.20535   0.78277   0.00000  Uiso   1.00
C672   C     0.71949   0.16030   0.75828   0.00000  Uiso   1.00
C673   C     0.85756   0.12466   0.96177   0.00000  Uiso   1.00
C674   C     0.87342   0.10140   0.98294   0.00000  Uiso   1.00
C675   C     0.94758   0.17342   0.74140   0.00000  Uiso   1.00
C676   C     0.86937   0.11305   0.52263   0.00000  Uiso   1.00
C677   C     0.85011   0.14967   0.54156   0.00000  Uiso   1.00
C678   C     0.88342   0.08770   0.54388   0.00000  Uiso   1.00
C679   C     0.87799   0.09800   0.58386   0.00000  Uiso   1.00
C680   C     0.85223   0.16344   0.58054   0.00000  Uiso   1.00
C681   C     0.99327   0.17543   0.73839   0.00000  Uiso   1.00
C682   C     0.67387   0.15700   0.76304   0.00000  Uiso   1.00
C683   C     0.77363   0.22395   0.92033   0.00000  Uiso   1.00
C684   C     0.84744   0.32213   0.73825   0.00000  Uiso   1.00
C685   C     0.81822   0.01210   0.76211   0.00000  Uiso   1.00
C686   C     0.82257   0.05614   0.75891   0.00000  Uiso   1.00
C687   C     0.84347   0.27762   0.74140   0.00000  Uiso   1.00
C688   C     0.85480   0.14511   0.64420   0.00000  Uiso   1.00
C689   C     0.81233   0.18790   0.85606   0.00000  Uiso   1.00
C690   C     0.80328   0.19634   0.89891   0.00000  Uiso   1.00
C691   C     0.86278   0.13586   0.60201   0.00000  Uiso   1.00
C692   C     0.76530   0.23108   0.96096   0.00000  Uiso   1.00
C693   C     0.82441   0.17600   0.91853   0.00000  Uiso   1.00
C694   C     0.81530   0.18138   0.95964   0.00000  Uiso   1.00
C695   C     0.78593   0.21015   0.98074   0.00000  Uiso   1.00
C696   C     0.83453   0.15903   0.98029   0.00000  Uiso   1.00
C697   C     0.82833   0.16979   0.52131   0.00000  Uiso   1.00
C698   C     0.79738   0.19720   0.54142   0.00000  Uiso   1.00
C699   C     0.77674   0.21712   0.52143   0.00000  Uiso   1.00
H700   H     0.75326   0.23797   0.53799   0.00000  Uiso   1.00
H701   H     0.84862   0.15677   0.90095   0.00000  Uiso   1.00
H702   H     0.78693   0.20208   0.57302   0.00000  Uiso   1.00
H703   H     0.86127   0.11294   0.93144   0.00000  Uiso   1.00
H704   H     0.99627   0.12481   0.80734   0.00000  Uiso   1.00
H705   H     0.85699   0.22269   0.57690   0.00000  Uiso   1.00
H706   H     0.89694   0.05902   0.52991   0.00000  Uiso   1.00
H707   H     0.68284   0.19227   0.71553   0.00000  Uiso   1.00
H708   H     0.87442   0.00273   0.71632   0.00000  Uiso   1.00
H709   H     0.79084   0.33228   0.78410   0.00000  Uiso   1.00
H710   H     0.88653   0.07692   0.60054   0.00000  Uiso   1.00
H711   H     0.88873   0.07387   0.96814   0.00000  Uiso   1.00
H712   H     0.74248   0.25278   0.97697   0.00000  Uiso   1.00
H713   H     0.75699   0.24012   0.90572   0.00000  Uiso   1.00
O714   O     0.83333   0.16667   0.75000   0.00000  Uiso   1.00
O715   O     0.82360   0.12393   0.66625   0.00000  Uiso   1.00
O716   O     0.79354   0.20646   0.83749   0.00000  Uiso   1.00
O717   O     0.87755   0.17493   0.65877   0.00000  Uiso   1.00
O718   O     0.83865   0.16135   0.83749   0.00000  Uiso   1.00
O719   O     0.97918   0.13571   0.79284   0.00000  Uiso   1.00
O720   O     0.84645   0.20369   0.59784   0.00000  Uiso   1.00
O721   O     0.84515   0.08101   0.77821   0.00000  Uiso   1.00
O722   O     0.81247   0.26136   0.76767   0.00000  Uiso   1.00
O723   O     0.74119   0.13251   0.73607   0.00000  Uiso   1.00
O724   O     0.93452   0.19179   0.71806   0.00000  Uiso   1.00
O725   O     0.73656   0.18960   0.77820   0.00000  Uiso   1.00
O726   O     0.92106   0.15277   0.76768   0.00000  Uiso   1.00
O727   O     0.80467   0.06903   0.73607   0.00000  Uiso   1.00
O728   O     0.87104   0.25527   0.71806   0.00000  Uiso   1.00
Zn729  Zn    0.85910   0.14090   0.78278   0.00000  Uiso   1.00
Zn730  Zn    0.80125   0.12378   0.72258   0.00000  Uiso   1.00
Zn731  Zn    0.87833   0.19664   0.71188   0.00000  Uiso   1.00
Zn732  Zn    0.79465   0.20535   0.78277   0.00000  Uiso   1.00
C733   C     0.05283   0.49363   0.75828   0.00000  Uiso   1.00
C734   C     0.19089   0.45799   0.96177   0.00000  Uiso   1.00
C735   C     0.20675   0.43474   0.98294   0.00000  Uiso   1.00
C736   C     0.28091   0.50675   0.74140   0.00000  Uiso   1.00
C737   C     0.20270   0.44638   0.52263   0.00000  Uiso   1.00
C738   C     0.18344   0.48301   0.54156   0.00000  Uiso   1.00
C739   C     0.21675   0.42103   0.54388   0.00000  Uiso   1.00
C740   C     0.21132   0.43134   0.58386   0.00000  Uiso   1.00
C741   C     0.18557   0.49677   0.58054   0.00000  Uiso   1.00
C742   C     0.32660   0.50876   0.73839   0.00000  Uiso   1.00
C743   C     0.00721   0.49033   0.76304   0.00000  Uiso   1.00
C744   C     0.10697   0.55728   0.92033   0.00000  Uiso   1.00
C745   C     0.18078   0.65546   0.73825   0.00000  Uiso   1.00
C746   C     0.15155   0.34543   0.76211   0.00000  Uiso   1.00
C747   C     0.15591   0.38947   0.75891   0.00000  Uiso   1.00
C748   C     0.17681   0.61095   0.74140   0.00000  Uiso   1.00
C749   C     0.18814   0.47845   0.64420   0.00000  Uiso   1.00
C750   C     0.14566   0.52123   0.85606   0.00000  Uiso   1.00
C751   C     0.13661   0.52967   0.89891   0.00000  Uiso   1.00
C752   C     0.19611   0.46919   0.60201   0.00000  Uiso   1.00
C753   C     0.09864   0.56442   0.96096   0.00000  Uiso   1.00
C754   C     0.15774   0.50933   0.91853   0.00000  Uiso   1.00
C755   C     0.14863   0.51471   0.95964   0.00000  Uiso   1.00
C756   C     0.11926   0.54349   0.98074   0.00000  Uiso   1.00
C757   C     0.16787   0.49236   0.98029   0.00000  Uiso   1.00
C758   C     0.16166   0.50313   0.52131   0.00000  Uiso   1.00
C759   C     0.13071   0.53054   0.54142   0.00000  Uiso   1.00
C760   C     0.11007   0.55045   0.52143   0.00000  Uiso   1.00
H761   H     0.08659   0.57130   0.53799   0.00000  Uiso   1.00
H762   H     0.18196   0.49010   0.90095   0.00000  Uiso   1.00
H763   H     0.12027   0.53541   0.57302   0.00000  Uiso   1.00
H764   H     0.19461   0.44627   0.93144   0.00000  Uiso   1.00
H765   H     0.32960   0.45814   0.80734   0.00000  Uiso   1.00
H766   H     0.19032   0.55602   0.57690   0.00000  Uiso   1.00
H767   H     0.23027   0.39236   0.52991   0.00000  Uiso   1.00
H768   H     0.01617   0.52560   0.71553   0.00000  Uiso   1.00
H769   H     0.20776   0.33606   0.71632   0.00000  Uiso   1.00
H770   H     0.12417   0.66561   0.78410   0.00000  Uiso   1.00
H771   H     0.21986   0.41025   0.60054   0.00000  Uiso   1.00
H772   H     0.22207   0.40720   0.96814   0.00000  Uiso   1.00
H773   H     0.07581   0.58612   0.97697   0.00000  Uiso   1.00
H774   H     0.09033   0.57346   0.90572   0.00000  Uiso   1.00
O775   O     0.16667   0.50000   0.75000   0.00000  Uiso   1.00
O776   O     0.15693   0.45726   0.66625   0.00000  Uiso   1.00
O777   O     0.12687   0.53979   0.83749   0.00000  Uiso   1.00
O778   O     0.21088   0.50826   0.65877   0.00000  Uiso   1.00
O779   O     0.17198   0.49468   0.83749   0.00000  Uiso   1.00
O780   O     0.31252   0.46904   0.79284   0.00000  Uiso   1.00
O781   O     0.17979   0.53702   0.59784   0.00000  Uiso   1.00
O782   O     0.17849   0.41434   0.77821   0.00000  Uiso   1.00
O783   O     0.14581   0.59469   0.76767   0.00000  Uiso   1.00
O784   O     0.07452   0.46584   0.73607   0.00000  Uiso   1.00
O785   O     0.26785   0.52512   0.71806   0.00000  Uiso   1.00
O786   O     0.06990   0.52293   0.77820   0.00000  Uiso   1.00
O787   O     0.25440   0.48610   0.76768   0.00000  Uiso   1.00
O788   O     0.13800   0.40236   0.73607   0.00000  Uiso   1.00
O789   O     0.20437   0.58860   0.71806   0.00000  Uiso   1.00
Zn790  Zn    0.19244   0.47423   0.78278   0.00000  Uiso   1.00
Zn791  Zn    0.13459   0.45711   0.72258   0.00000  Uiso   1.00
Zn792  Zn    0.21166   0.52997   0.71188   0.00000  Uiso   1.00
Zn793  Zn    0.12798   0.53868   0.78277   0.00000  Uiso   1.00
C794   C     0.38616   0.49363   0.75828   0.00000  Uiso   1.00
C795   C     0.52423   0.45799   0.96177   0.00000  Uiso   1.00
C796   C     0.54008   0.43474   0.98294   0.00000  Uiso   1.00
C797   C     0.61424   0.50675   0.74140   0.00000  Uiso   1.00
C798   C     0.53604   0.44638   0.52263   0.00000  Uiso   1.00
C799   C     0.51677   0.48301   0.54156   0.00000  Uiso   1.00
C800   C     0.55008   0.42103   0.54388   0.00000  Uiso   1.00
C801   C     0.54466   0.43134   0.58386   0.00000  Uiso   1.00
C802   C     0.51890   0.49677   0.58054   0.00000  Uiso   1.00
C803   C     0.65994   0.50876   0.73839   0.00000  Uiso   1.00
C804   C     0.34054   0.49033   0.76304   0.00000  Uiso   1.00
C805   C     0.44030   0.55728   0.92033   0.00000  Uiso   1.00
C806   C     0.51411   0.65546   0.73825   0.00000  Uiso   1.00
C807   C     0.48489   0.34543   0.76211   0.00000  Uiso   1.00
C808   C     0.48924   0.38947   0.75891   0.00000  Uiso   1.00
C809   C     0.51014   0.61095   0.74140   0.00000  Uiso   1.00
C810   C     0.52147   0.47845   0.64420   0.00000  Uiso   1.00
C811   C     0.47900   0.52123   0.85606   0.00000  Uiso   1.00
C812   C     0.46995   0.52967   0.89891   0.00000  Uiso   1.00
C813   C     0.52945   0.46919   0.60201   0.00000  Uiso   1.00
C814   C     0.43197   0.56442   0.96096   0.00000  Uiso   1.00
C815   C     0.49108   0.50933   0.91853   0.00000  Uiso   1.00
C816   C     0.48196   0.51471   0.95964   0.00000  Uiso   1.00
C817   C     0.45259   0.54349   0.98074   0.00000  Uiso   1.00
C818   C     0.50120   0.49236   0.98029   0.00000  Uiso   1.00
C819   C     0.49500   0.50313   0.52131   0.00000  Uiso   1.00
C820   C     0.46405   0.53054   0.54142   0.00000  Uiso   1.00
C821   C     0.44341   0.55045   0.52143   0.00000  Uiso   1.00
H822   H     0.41992   0.57130   0.53799   0.00000  Uiso   1.00
H823   H     0.51529   0.49010   0.90095   0.00000  Uiso   1.00
H824   H     0.45360   0.53541   0.57302   0.00000  Uiso   1.00
H825   H     0.52794   0.44627   0.93144   0.00000  Uiso   1.00
H826   H     0.66293   0.45814   0.80734   0.00000  Uiso   1.00
H827   H     0.52365   0.55602   0.57690   0.00000  Uiso   1.00
H828   H     0.56360   0.39236   0.52991   0.00000  Uiso   1.00
H829   H     0.34951   0.52560   0.71553   0.00000  Uiso   1.00
H830   H     0.54109   0.33606   0.71632   0.00000  Uiso   1.00
H831   H     0.45750   0.66561   0.78410   0.00000  Uiso   1.00
H832   H     0.55320   0.41025   0.60054   0.00000  Uiso   1.00
H833   H     0.55540   0.40720   0.96814   0.00000  Uiso   1.00
H834   H     0.40914   0.58612   0.97697   0.00000  Uiso   1.00
H835   H     0.42366   0.57346   0.90572   0.00000  Uiso   1.00
O836   O     0.50000   0.50000   0.75000   0.00000  Uiso   1.00
O837   O     0.49027   0.45726   0.66625   0.00000  Uiso   1.00
O838   O     0.46020   0.53979   0.83749   0.00000  Uiso   1.00
O839   O     0.54421   0.50826   0.65877   0.00000  Uiso   1.00
O840   O     0.50532   0.49468   0.83749   0.00000  Uiso   1.00
O841   O     0.64585   0.46904   0.79284   0.00000  Uiso   1.00
O842   O     0.51312   0.53702   0.59784   0.00000  Uiso   1.00
O843   O     0.51182   0.41434   0.77821   0.00000  Uiso   1.00
O844   O     0.47914   0.59469   0.76767   0.00000  Uiso   1.00
O845   O     0.40785   0.46584   0.73607   0.00000  Uiso   1.00
O846   O     0.60119   0.52512   0.71806   0.00000  Uiso   1.00
O847   O     0.40323   0.52293   0.77820   0.00000  Uiso   1.00
O848   O     0.58773   0.48610   0.76768   0.00000  Uiso   1.00
O849   O     0.47133   0.40236   0.73607   0.00000  Uiso   1.00
O850   O     0.53771   0.58860   0.71806   0.00000  Uiso   1.00
Zn851  Zn    0.52577   0.47423   0.78278   0.00000  Uiso   1.00
Zn852  Zn    0.46792   0.45711   0.72258   0.00000  Uiso   1.00
Zn853  Zn    0.54500   0.52997   0.71188   0.00000  Uiso   1.00
Zn854  Zn    0.46131   0.53868   0.78277   0.00000  Uiso   1.00
C855   C     0.71949   0.49363   0.75828   0.00000  Uiso   1.00
C856   C     0.85756   0.45799   0.96177   0.00000  Uiso   1.00
C857   C     0.87342   0.43474   0.98294   0.00000  Uiso   1.00
C858   C     0.94758   0.50675   0.74140   0.00000  Uiso   1.00
C859   C     0.86937   0.44638   0.52263   0.00000  Uiso   1.00
C860   C     0.85011   0.48301   0.54156   0.00000  Uiso   1.00
C861   C     0.88342   0.42103   0.54388   0.00000  Uiso   1.00
C862   C     0.87799   0.43134   0.58386   0.00000  Uiso   1.00
C863   C     0.85223   0.49677   0.58054   0.00000  Uiso   1.00
C864   C     0.99327   0.50876   0.73839   0.00000  Uiso   1.00
C865   C     0.67387   0.49033   0.76304   0.00000  Uiso   1.00
C866   C     0.77363   0.55728   0.92033   0.00000  Uiso   1.00
C867   C     0.84744   0.65546   0.73825   0.00000  Uiso   1.00
C868   C     0.81822   0.34543   0.76211   0.00000  Uiso   1.00
C869   C     0.82257   0.38947   0.75891   0.00000  Uiso   1.00
C870   C     0.84347   0.61095   0.74140   0.00000  Uiso   1.00
C871   C     0.85480   0.47845   0.64420   0.00000  Uiso   1.00
C872   C     0.81233   0.52123   0.85606   0.00000  Uiso   1.00
C873   C     0.80328   0.52967   0.89891   0.00000  Uiso   1.00
C874   C     0.86278   0.46919   0.60201   0.00000  Uiso   1.00
C875   C     0.76530   0.56442   0.96096   0.00000  Uiso   1.00
C876   C     0.82441   0.50933   0.91853   0.00000  Uiso   1.00
C877   C     0.81530   0.51471   0.95964   0.00000  Uiso   1.00
C878   C     0.78593   0.54349   0.98074   0.00000  Uiso   1.00
C879   C     0.83453   0.49236   0.98029   0.00000  Uiso   1.00
C880   C     0.82833   0.50313   0.52131   0.00000  Uiso   1.00
C881   C     0.79738   0.53054   0.54142   0.00000  Uiso   1.00
C882   C     0.77674   0.55045   0.52143   0.00000  Uiso   1.00
H883   H     0.75326   0.57130   0.53799   0.00000  Uiso   1.00
H884   H     0.84862   0.49010   0.90095   0.00000  Uiso   1.00
H885   H     0.78693   0.53541   0.57302   0.00000  Uiso   1.00
H886   H     0.86127   0.44627   0.93144   0.00000  Uiso   1.00
H887   H     0.99627   0.45814   0.80734   0.00000  Uiso   1.00
H888   H     0.85699   0.55602   0.57690   0.00000  Uiso   1.00
H889   H     0.89694   0.39236   0.52991   0.00000  Uiso   1.00
H890   H     0.68284   0.52560   0.71553   0.00000  Uiso   1.00
H891   H     0.87442   0.33606   0.71632   0.00000  Uiso   1.00
H892   H     0.79084   0.66561   0.78410   0.00000  Uiso   1.00
H893   H     0.88653   0.41025   0.60054   0.00000  Uiso   1.00
H894   H     0.88873   0.40720   0.96814   0.00000  Uiso   1.00
H895   H     0.74248   0.58612   0.97697   0.00000  Uiso   1.00
H896   H     0.75699   0.57346   0.90572   0.00000  Uiso   1.00
O897   O     0.83333   0.50000   0.75000   0.00000  Uiso   1.00
O898   O     0.82360   0.45726   0.66625   0.00000  Uiso   1.00
O899   O     0.79354   0.53979   0.83749   0.00000  Uiso   1.00
O900   O     0.87755   0.50826   0.65877   0.00000  Uiso   1.00
O901   O     0.83865   0.49468   0.83749   0.00000  Uiso   1.00
O902   O     0.97918   0.46904   0.79284   0.00000  Uiso   1.00
O903   O     0.84645   0.53702   0.59784   0.00000  Uiso   1.00
O904   O     0.84515   0.41434   0.77821   0.00000  Uiso   1.00
O905   O     0.81247   0.59469   0.76767   0.00000  Uiso   1.00
O906   O     0.74119   0.46584   0.73607   0.00000  Uiso   1.00
O907   O     0.93452   0.52512   0.71806   0.00000  Uiso   1.00
O908   O     0.73656   0.52293   0.77820   0.00000  Uiso   1.00
O909   O     0.92106   0.48610   0.76768   0.00000  Uiso   1.00
O910   O     0.80467   0.40236   0.73607   0.00000  Uiso   1.00
O911   O     0.87104   0.58860   0.71806   0.00000  Uiso   1.00
Zn912  Zn    0.85910   0.47423   0.78278   0.00000  Uiso   1.00
Zn913  Zn    0.80125   0.45711   0.72258   0.00000  Uiso   1.00
Zn914  Zn    0.87833   0.52997   0.71188   0.00000  Uiso   1.00
Zn915  Zn    0.79465   0.53868   0.78277   0.00000  Uiso   1.00
C916   C     0.05283   0.82697   0.75828   0.00000  Uiso   1.00
C917   C     0.19089   0.79133   0.96177   0.00000  Uiso   1.00
C918   C     0.20675   0.76807   0.98294   0.00000  Uiso   1.00
C919   C     0.28091   0.84009   0.74140   0.00000  Uiso   1.00
C920   C     0.20270   0.77972   0.52263   0.00000  Uiso   1.00
C921   C     0.18344   0.81634   0.54156   0.00000  Uiso   1.00
C922   C     0.21675   0.75437   0.54388   0.00000  Uiso   1.00
C923   C     0.21132   0.76467   0.58386   0.00000  Uiso   1.00
C924   C     0.18557   0.83010   0.58054   0.00000  Uiso   1.00
C925   C     0.32660   0.84210   0.73839   0.00000  Uiso   1.00
C926   C     0.00721   0.82367   0.76304   0.00000  Uiso   1.00
C927   C     0.10697   0.89062   0.92033   0.00000  Uiso   1.00
C928   C     0.18078   0.98880   0.73825   0.00000  Uiso   1.00
C929   C     0.15155   0.67876   0.76211   0.00000  Uiso   1.00
C930   C     0.15591   0.72281   0.75891   0.00000  Uiso   1.00
C931   C     0.17681   0.94429   0.74140   0.00000  Uiso   1.00
C932   C     0.18814   0.81178   0.64420   0.00000  Uiso   1.00
C933   C     0.14566   0.85456   0.85606   0.00000  Uiso   1.00
C934   C     0.13661   0.86300   0.89891   0.00000  Uiso   1.00
C935   C     0.19611   0.80252   0.60201   0.00000  Uiso   1.00
C936   C     0.09864   0.89775   0.96096   0.00000  Uiso   1.00
C937   C     0.15774   0.84267   0.91853   0.00000  Uiso   1.00
C938   C     0.14863   0.84804   0.95964   0.00000  Uiso   1.00
C939   C     0.11926   0.87682   0.98074   0.00000  Uiso   1.00
C940   C     0.16787   0.82569   0.98029   0.00000  Uiso   1.00
C941   C     0.16166   0.83646   0.52131   0.00000  Uiso   1.00
C942   C     0.13071   0.86387   0.54142   0.00000  Uiso   1.00
C943   C     0.11007   0.88378   0.52143   0.00000  Uiso   1.00
H944   H     0.08659   0.90464   0.53799   0.00000  Uiso   1.00
H945   H     0.18196   0.82344   0.90095   0.00000  Uiso   1.00
H946   H     0.12027   0.86874   0.57302   0.00000  Uiso   1.00
H947   H     0.19461   0.77960   0.93144   0.00000  Uiso   1.00
H948   H     0.32960   0.79148   0.80734   0.00000  Uiso   1.00
H949   H     0.19032   0.88936   0.57690   0.00000  Uiso   1.00
H950   H     0.23027   0.72569   0.52991   0.00000  Uiso   1.00
H951   H     0.01617   0.85894   0.71553   0.00000  Uiso   1.00
H952   H     0.20776   0.66940   0.71632   0.00000  Uiso   1.00
H953   H     0.12417   0.99895   0.78410   0.00000  Uiso   1.00
H954   H     0.21986   0.74358   0.60054   0.00000  Uiso   1.00
H955   H     0.22207   0.74053   0.96814   0.00000  Uiso   1.00
H956   H     0.07581   0.91945   0.97697   0.00000  Uiso   1.00
H957   H     0.09033   0.90679   0.90572   0.00000  Uiso   1.00
O958   O     0.16667   0.83333   0.75000   0.00000  Uiso   1.00
O959   O     0.15693   0.79060   0.66625   0.00000  Uiso   1.00
O960   O     0.12687   0.87313   0.83749   0.00000  Uiso   1.00
O961   O     0.21088   0.84159   0.65877   0.00000  Uiso   1.00
O962   O     0.17198   0.82802   0.83749   0.00000  Uiso   1.00
O963   O     0.31252   0.80237   0.79284   0.00000  Uiso   1.00
O964   O     0.17979   0.87035   0.59784   0.00000  Uiso   1.00
O965   O     0.17849   0.74768   0.77821   0.00000  Uiso   1.00
O966   O     0.14581   0.92803   0.76767   0.00000  Uiso   1.00
O967   O     0.07452   0.79917   0.73607   0.00000  Uiso   1.00
O968   O     0.26785   0.85845   0.71806   0.00000  Uiso   1.00
O969   O     0.06990   0.85627   0.77820   0.00000  Uiso   1.00
O970   O     0.25440   0.81944   0.76768   0.00000  Uiso   1.00
O971   O     0.13800   0.73570   0.73607   0.00000  Uiso   1.00
O972   O     0.20437   0.92193   0.71806   0.00000  Uiso   1.00
Zn973  Zn    0.19244   0.80756   0.78278   0.00000  Uiso   1.00
Zn974  Zn    0.13459   0.79044   0.72258   0.00000  Uiso   1.00
Zn975  Zn    0.21166   0.86331   0.71188   0.00000  Uiso   1.00
Zn976  Zn    0.12798   0.87202   0.78277   0.00000  Uiso   1.00
C977   C     0.38616   0.82697   0.75828   0.00000  Uiso   1.00
C978   C     0.52423   0.79133   0.96177   0.00000  Uiso   1.00
C979   C     0.54008   0.76807   0.98294   0.00000  Uiso   1.00
C980   C     0.61424   0.84009   0.74140   0.00000  Uiso   1.00
C981   C     0.53604   0.77972   0.52263   0.00000  Uiso   1.00
C982   C     0.51677   0.81634   0.54156   0.00000  Uiso   1.00
C983   C     0.55008   0.75437   0.54388   0.00000  Uiso   1.00
C984   C     0.54466   0.76467   0.58386   0.00000  Uiso   1.00
C985   C     0.51890   0.83010   0.58054   0.00000  Uiso   1.00
C986   C     0.65994   0.84210   0.73839   0.00000  Uiso   1.00
C987   C     0.34054   0.82367   0.76304   0.00000  Uiso   1.00
C988   C     0.44030   0.89062   0.92033   0.00000  Uiso   1.00
C989   C     0.51411   0.98880   0.73825   0.00000  Uiso   1.00
C990   C     0.48489   0.67876   0.76211   0.00000  Uiso   1.00
C991   C     0.48924   0.72281   0.75891   0.00000  Uiso   1.00
C992   C     0.51014   0.94429   0.74140   0.00000  Uiso   1.00
C993   C     0.52147   0.81178   0.64420   0.00000  Uiso   1.00
C994   C     0.47900   0.85456   0.85606   0.00000  Uiso   1.00
C995   C     0.46995   0.86300   0.89891   0.00000  Uiso   1.00
C996   C     0.52945   0.80252   0.60201   0.00000  Uiso   1.00
C997   C     0.43197   0.89775   0.96096   0.00000  Uiso   1.00
C998   C     0.49108   0.84267   0.91853   0.00000  Uiso   1.00
C999   C     0.48196   0.84804   0.95964   0.00000  Uiso   1.00
C1000  C     0.45259   0.87682   0.98074   0.00000  Uiso   1.00
C1001  C     0.50120   0.82569   0.98029   0.00000  Uiso   1.00
C1002  C     0.49500   0.83646   0.52131   0.00000  Uiso   1.00
C1003  C     0.46405   0.86387   0.54142   0.00000  Uiso   1.00
C1004  C     0.44341   0.88378   0.52143   0.00000  Uiso   1.00
H1005  H     0.41992   0.90464   0.53799   0.00000  Uiso   1.00
H1006  H     0.51529   0.82344   0.90095   0.00000  Uiso   1.00
H1007  H     0.45360   0.86874   0.57302   0.00000  Uiso   1.00
H1008  H     0.52794   0.77960   0.93144   0.00000  Uiso   1.00
H1009  H     0.66293   0.79148   0.80734   0.00000  Uiso   1.00
H1010  H     0.52365   0.88936   0.57690   0.00000  Uiso   1.00
H1011  H     0.56360   0.72569   0.52991   0.00000  Uiso   1.00
H1012  H     0.34951   0.85894   0.71553   0.00000  Uiso   1.00
H1013  H     0.54109   0.66940   0.71632   0.00000  Uiso   1.00
H1014  H     0.45750   0.99895   0.78410   0.00000  Uiso   1.00
H1015  H     0.55320   0.74358   0.60054   0.00000  Uiso   1.00
H1016  H     0.55540   0.74053   0.96814   0.00000  Uiso   1.00
H1017  H     0.40914   0.91945   0.97697   0.00000  Uiso   1.00
H1018  H     0.42366   0.90679   0.90572   0.00000  Uiso   1.00
O1019  O     0.50000   0.83333   0.75000   0.00000  Uiso   1.00
O1020  O     0.49027   0.79060   0.66625   0.00000  Uiso   1.00
O1021  O     0.46020   0.87313   0.83749   0.00000  Uiso   1.00
O1022  O     0.54421   0.84159   0.65877   0.00000  Uiso   1.00
O1023  O     0.50532   0.82802   0.83749   0.00000  Uiso   1.00
O1024  O     0.64585   0.80237   0.79284   0.00000  Uiso   1.00
O1025  O     0.51312   0.87035   0.59784   0.00000  Uiso   1.00
O1026  O     0.51182   0.74768   0.77821   0.00000  Uiso   1.00
O1027  O     0.47914   0.92803   0.76767   0.00000  Uiso   1.00
O1028  O     0.40785   0.79917   0.73607   0.00000  Uiso   1.00
O1029  O     0.60119   0.85845   0.71806   0.00000  Uiso   1.00
O1030  O     0.40323   0.85627   0.77820   0.00000  Uiso   1.00
O1031  O     0.58773   0.81944   0.76768   0.00000  Uiso   1.00
O1032  O     0.47133   0.73570   0.73607   0.00000  Uiso   1.00
O1033  O     0.53771   0.92193   0.71806   0.00000  Uiso   1.00
Zn1034 Zn    0.52577   0.80756   0.78278   0.00000  Uiso   1.00
Zn1035 Zn    0.46792   0.79044   0.72258   0.00000  Uiso   1.00
Zn1036 Zn    0.54500   0.86331   0.71188   0.00000  Uiso   1.00
Zn1037 Zn    0.46131   0.87202   0.78277   0.00000  Uiso   1.00
C1038  C     0.71949   0.82697   0.75828   0.00000  Uiso   1.00
C1039  C     0.85756   0.79133   0.96177   0.00000  Uiso   1.00
C1040  C     0.87342   0.76807   0.98294   0.00000  Uiso   1.00
C1041  C     0.94758   0.84009   0.74140   0.00000  Uiso   1.00
C1042  C     0.86937   0.77972   0.52263   0.00000  Uiso   1.00
C1043  C     0.85011   0.81634   0.54156   0.00000  Uiso   1.00
C1044  C     0.88342   0.75437   0.54388   0.00000  Uiso   1.00
C1045  C     0.87799   0.76467   0.58386   0.00000  Uiso   1.00
C1046  C     0.85223   0.83010   0.58054   0.00000  Uiso   1.00
C1047  C     0.99327   0.84210   0.73839   0.00000  Uiso   1.00
C1048  C     0.67387   0.82367   0.76304   0.00000  Uiso   1.00
C1049  C     0.77363   0.89062   0.92033   0.00000  Uiso   1.00
C1050  C     0.84744   0.98880   0.73825   0.00000  Uiso   1.00
C1051  C     0.81822   0.67876   0.76211   0.00000  Uiso   1.00
C1052  C     0.82257   0.72281   0.75891   0.00000  Uiso   1.00
C1053  C     0.84347   0.94429   0.74140   0.00000  Uiso   1.00
C1054  C     0.85480   0.81178   0.64420   0.00000  Uiso   1.00
C1055  C     0.81233   0.85456   0.85606   0.00000  Uiso   1.00
C1056  C     0.80328   0.86300   0.89891   0.00000  Uiso   1.00
C1057  C     0.86278   0.80252   0.60201   0.00000  Uiso   1.00
C1058  C     0.76530   0.89775   0.96096   0.00000  Uiso   1.00
C1059  C     0.82441   0.84267   0.91853   0.00000  Uiso   1.00
C1060  C     0.81530   0.84804   0.95964   0.00000  Uiso   1.00
C1061  C     0.78593   0.87682   0.98074   0.00000  Uiso   1.00
C1062  C     0.83453   0.82569   0.98029   0.00000  Uiso   1.00
C1063  C     0.82833   0.83646   0.52131   0.00000  Uiso   1.00
C1064  C     0.79738   0.86387   0.54142   0.00000  Uiso   1.00
C1065  C     0.77674   0.88378   0.52143   0.00000  Uiso   1.00
H1066  H     0.75326   0.90464   0.53799   0.00000  Uiso   1.00
H1067  H     0.84862   0.82344   0.90095   0.00000  Uiso   1.00
H1068  H     0.78693   0.86874   0.57302   0.00000  Uiso   1.00
H1069  H     0.86127   0.77960   0.93144   0.00000  Uiso   1.00
H1070  H     0.99627   0.79148   0.80734   0.00000  Uiso   1.00
H1071  H     0.85699   0.88936   0.57690   0.00000  Uiso   1.00
H1072  H     0.89694   0.72569   0.52991   0.00000  Uiso   1.00
H1073  H     0.68284   0.85894   0.71553   0.00000  Uiso   1.00
H1074  H     0.87442   0.66940   0.71632   0.00000  Uiso   1.00
H1075  H     0.79084   0.99895   0.78410   0.00000  Uiso   1.00
H1076  H     0.88653   0.74358   0.60054   0.00000  Uiso   1.00
H1077  H     0.88873   0.74053   0.96814   0.00000  Uiso   1.00
H1078  H     0.74248   0.91945   0.97697   0.00000  Uiso   1.00
H1079  H     0.75699   0.90679   0.90572   0.00000  Uiso   1.00
O1080  O     0.83333   0.83333   0.75000   0.00000  Uiso   1.00
O1081  O     0.82360   0.79060   0.66625   0.00000  Uiso   1.00
O1082  O     0.79354   0.87313   0.83749   0.00000  Uiso   1.00
O1083  O     0.87755   0.84159   0.65877   0.00000  Uiso   1.00
O1084  O     0.83865   0.82802   0.83749   0.00000  Uiso   1.00
O1085  O     0.97918   0.80237   0.79284   0.00000  Uiso   1.00
O1086  O     0.84645   0.87035   0.59784   0.00000  Uiso   1.00
O1087  O     0.84515   0.74768   0.77821   0.00000  Uiso   1.00
O1088  O     0.81247   0.92803   0.76767   0.00000  Uiso   1.00
O1089  O     0.74119   0.79917   0.73607   0.00000  Uiso   1.00
O1090  O     0.93452   0.85845   0.71806   0.00000  Uiso   1.00
O1091  O     0.73656   0.85627   0.77820   0.00000  Uiso   1.00
O1092  O     0.92106   0.81944   0.76768   0.00000  Uiso   1.00
O1093  O     0.80467   0.73570   0.73607   0.00000  Uiso   1.00
O1094  O     0.87104   0.92193   0.71806   0.00000  Uiso   1.00
Zn1095 Zn    0.85910   0.80756   0.78278   0.00000  Uiso   1.00
Zn1096 Zn    0.80125   0.79044   0.72258   0.00000  Uiso   1.00
Zn1097 Zn    0.87833   0.86331   0.71188   0.00000  Uiso   1.00
Zn1098 Zn    0.79465   0.87202   0.78277   0.00000  Uiso   1.00
loop_
_geom_bond_atom_site_label_1
_geom_bond_atom_site_label_2
_geom_bond_distance
_geom_bond_site_symmetry_2
_ccdc_geom_bond_type
C1     O54     1.268   .     A
C1     O52     1.268   .     A
C1     C11     1.440   .     S
C2     C3      1.386   .     A
C2     C25     1.415   .     A
C2     H32     1.077   .     S
C3     H40     1.084   .     S
C3     C554    1.391   .     S
C4     O53     1.289   .     A
C4     O55     1.275   .     A
C4     C10     1.457   .     S
C5     C6      1.420   .     A
C5     C7      1.400   .     A
C5     C552    1.391   1_554 S
C6     C9      1.422   .     A
C6     C26     1.425   .     A
C7     C8      1.389   .     A
C7     H35     1.084   .     S
C8     C20     1.396   .     A
C8     H39     1.084   .     S
C9     C20     1.398   .     A
C9     O49     1.380   .     S
C10    C72     1.345   .     S
C10    H97     1.088   .     S
C11    C132    1.345   1_455 S
C11    O170    1.384   1_455 S
C12    C19     1.401   .     A
C12    H42     1.083   .     S
C12    C21     1.393   .     A
C13    C16     1.451   .     S
C13    C197    1.331   .     S
C13    H220    1.088   .     S
C14    C15     1.435   .     S
C14    C379    1.331   1_545 S
C14    H404    1.086   1_545 S
C15    O56     1.278   .     A
C15    O50     1.278   .     A
C16    O51     1.275   .     A
C16    O57     1.274   .     A
C17    C20     1.452   .     S
C17    O44     1.273   .     A
C17    O46     1.277   .     A
C18    O47     1.285   .     A
C18    O45     1.282   .     A
C18    C19     1.470   .     S
C19    C22     1.398   .     A
C21    H41     1.084   .     S
C21    C24     1.403   .     A
C22    H30     1.076   .     S
C22    C23     1.406   .     A
C23    C24     1.418   .     A
C23    C25     1.423   .     A
C24    C577    1.392   .     S
C25    C575    1.423   .     S
C26    C27     1.413   .     A
C26    C574    1.423   1_554 S
C27    H31     1.079   .     S
C27    C28     1.388   .     A
C28    H29     1.084   .     S
C28    C573    1.392   1_554 S
H33    O48     0.992   .     S
H34    O49     0.992   .     S
H36    C132    1.088   1_455 S
H37    C379    1.088   1_545 S
H38    C197    1.086   .     S
O43    Zn59    1.944   .     S
O43    Zn60    1.943   .     S
O43    Zn61    1.935   .     S
O43    Zn58    1.962   .     S
O44    Zn59    1.938   .     S
O45    Zn61    1.945   .     S
O46    Zn60    1.938   .     S
O47    Zn58    1.932   .     S
O48    C72     1.384   .     S
O50    Zn58    1.927   .     S
O51    Zn61    1.932   .     S
O52    Zn59    1.934   .     S
O53    Zn60    1.942   .     S
O54    Zn61    1.939   .     S
O55    Zn58    1.933   .     S
O56    Zn59    1.936   .     S
O57    Zn60    1.929   .     S
C62    O115    1.268   .     A
C62    O113    1.268   .     A
C62    C72     1.440   .     S
C63    C64     1.386   .     A
C63    C86     1.415   .     A
C63    H93     1.077   .     S
C64    H101    1.084   .     S
C64    C615    1.391   .     S
C65    O114    1.289   .     A
C65    O116    1.275   .     A
C65    C71     1.457   .     S
C66    C67     1.420   .     A
C66    C68     1.400   .     A
C66    C613    1.391   1_554 S
C67    C70     1.422   .     A
C67    C87     1.425   .     A
C68    C69     1.389   .     A
C68    H96     1.084   .     S
C69    C81     1.396   .     A
C69    H100    1.084   .     S
C70    C81     1.398   .     A
C70    O110    1.380   .     S
C71    C133    1.345   .     S
C71    H158    1.088   .     S
C73    C80     1.401   .     A
C73    H103    1.083   .     S
C73    C82     1.393   .     A
C74    C77     1.451   .     S
C74    C258    1.331   .     S
C74    H281    1.088   .     S
C75    C76     1.435   .     S
C75    C440    1.331   1_545 S
C75    H465    1.086   1_545 S
C76    O117    1.278   .     A
C76    O111    1.278   .     A
C77    O112    1.275   .     A
C77    O118    1.274   .     A
C78    C81     1.452   .     S
C78    O105    1.273   .     A
C78    O107    1.277   .     A
C79    O108    1.285   .     A
C79    O106    1.282   .     A
C79    C80     1.470   .     S
C80    C83     1.398   .     A
C82    H102    1.084   .     S
C82    C85     1.403   .     A
C83    H91     1.076   .     S
C83    C84     1.406   .     A
C84    C85     1.418   .     A
C84    C86     1.423   .     A
C85    C638    1.392   .     S
C86    C636    1.423   .     S
C87    C88     1.413   .     A
C87    C635    1.423   1_554 S
C88    H92     1.079   .     S
C88    C89     1.388   .     A
C89    H90     1.084   .     S
C89    C634    1.392   1_554 S
H94    O109    0.992   .     S
H95    O110    0.992   .     S
H98    C440    1.088   1_545 S
H99    C258    1.086   .     S
O104   Zn120   1.944   .     S
O104   Zn121   1.943   .     S
O104   Zn122   1.935   .     S
O104   Zn119   1.962   .     S
O105   Zn120   1.938   .     S
O106   Zn122   1.945   .     S
O107   Zn121   1.938   .     S
O108   Zn119   1.932   .     S
O109   C133    1.384   .     S
O111   Zn119   1.927   .     S
O112   Zn122   1.932   .     S
O113   Zn120   1.934   .     S
O114   Zn121   1.942   .     S
O115   Zn122   1.939   .     S
O116   Zn119   1.933   .     S
O117   Zn120   1.936   .     S
O118   Zn121   1.929   .     S
C123   O176    1.268   .     A
C123   O174    1.268   .     A
C123   C133    1.440   .     S
C124   C125    1.386   .     A
C124   C147    1.415   .     A
C124   H154    1.077   .     S
C125   H162    1.084   .     S
C125   C676    1.391   .     S
C126   O175    1.289   .     A
C126   O177    1.275   .     A
C126   C132    1.457   .     S
C127   C128    1.420   .     A
C127   C129    1.400   .     A
C127   C674    1.391   1_554 S
C128   C131    1.422   .     A
C128   C148    1.425   .     A
C129   C130    1.389   .     A
C129   H157    1.084   .     S
C130   C142    1.396   .     A
C130   H161    1.084   .     S
C131   C142    1.398   .     A
C131   O171    1.380   .     S
C132   C11     1.345   1_655 S
C132   H36     1.088   1_655 S
C134   C141    1.401   .     A
C134   H164    1.083   .     S
C134   C143    1.393   .     A
C135   C138    1.451   .     S
C135   C319    1.331   .     S
C135   H342    1.088   .     S
C136   C137    1.435   .     S
C136   C501    1.331   1_545 S
C136   H526    1.086   1_545 S
C137   O178    1.278   .     A
C137   O172    1.278   .     A
C138   O173    1.275   .     A
C138   O179    1.274   .     A
C139   C142    1.452   .     S
C139   O166    1.273   .     A
C139   O168    1.277   .     A
C140   O169    1.285   .     A
C140   O167    1.282   .     A
C140   C141    1.470   .     S
C141   C144    1.398   .     A
C143   H163    1.084   .     S
C143   C146    1.403   .     A
C144   H152    1.076   .     S
C144   C145    1.406   .     A
C145   C146    1.418   .     A
C145   C147    1.423   .     A
C146   C699    1.392   .     S
C147   C697    1.423   .     S
C148   C149    1.413   .     A
C148   C696    1.423   1_554 S
C149   H153    1.079   .     S
C149   C150    1.388   .     A
C150   H151    1.084   .     S
C150   C695    1.392   1_554 S
H155   O170    0.992   .     S
H156   O171    0.992   .     S
H159   C501    1.088   1_545 S
H160   C319    1.086   .     S
O165   Zn181   1.944   .     S
O165   Zn182   1.943   .     S
O165   Zn183   1.935   .     S
O165   Zn180   1.962   .     S
O166   Zn181   1.938   .     S
O167   Zn183   1.945   .     S
O168   Zn182   1.938   .     S
O169   Zn180   1.932   .     S
O170   C11     1.384   1_655 S
O172   Zn180   1.927   .     S
O173   Zn183   1.932   .     S
O174   Zn181   1.934   .     S
O175   Zn182   1.942   .     S
O176   Zn183   1.939   .     S
O177   Zn180   1.933   .     S
O178   Zn181   1.936   .     S
O179   Zn182   1.929   .     S
C184   O237    1.268   .     A
C184   O235    1.268   .     A
C184   C194    1.440   .     S
C185   C186    1.386   .     A
C185   C208    1.415   .     A
C185   H215    1.077   .     S
C186   H223    1.084   .     S
C186   C737    1.391   .     S
C187   O236    1.289   .     A
C187   O238    1.275   .     A
C187   C193    1.457   .     S
C188   C189    1.420   .     A
C188   C190    1.400   .     A
C188   C735    1.391   1_554 S
C189   C192    1.422   .     A
C189   C209    1.425   .     A
C190   C191    1.389   .     A
C190   H218    1.084   .     S
C191   C203    1.396   .     A
C191   H222    1.084   .     S
C192   C203    1.398   .     A
C192   O232    1.380   .     S
C193   C255    1.345   .     S
C193   H280    1.088   .     S
C194   C315    1.345   1_455 S
C194   O353    1.384   1_455 S
C195   C202    1.401   .     A
C195   H225    1.083   .     S
C195   C204    1.393   .     A
C196   C199    1.451   .     S
C196   C380    1.331   .     S
C196   H403    1.088   .     S
C197   C198    1.435   .     S
C198   O239    1.278   .     A
C198   O233    1.278   .     A
C199   O234    1.275   .     A
C199   O240    1.274   .     A
C200   C203    1.452   .     S
C200   O227    1.273   .     A
C200   O229    1.277   .     A
C201   O230    1.285   .     A
C201   O228    1.282   .     A
C201   C202    1.470   .     S
C202   C205    1.398   .     A
C204   H224    1.084   .     S
C204   C207    1.403   .     A
C205   H213    1.076   .     S
C205   C206    1.406   .     A
C206   C207    1.418   .     A
C206   C208    1.423   .     A
C207   C760    1.392   .     S
C208   C758    1.423   .     S
C209   C210    1.413   .     A
C209   C757    1.423   1_554 S
C210   H214    1.079   .     S
C210   C211    1.388   .     A
C211   H212    1.084   .     S
C211   C756    1.392   1_554 S
H216   O231    0.992   .     S
H217   O232    0.992   .     S
H219   C315    1.088   1_455 S
H221   C380    1.086   .     S
O226   Zn242   1.944   .     S
O226   Zn243   1.943   .     S
O226   Zn244   1.935   .     S
O226   Zn241   1.962   .     S
O227   Zn242   1.938   .     S
O228   Zn244   1.945   .     S
O229   Zn243   1.938   .     S
O230   Zn241   1.932   .     S
O231   C255    1.384   .     S
O233   Zn241   1.927   .     S
O234   Zn244   1.932   .     S
O235   Zn242   1.934   .     S
O236   Zn243   1.942   .     S
O237   Zn244   1.939   .     S
O238   Zn241   1.933   .     S
O239   Zn242   1.936   .     S
O240   Zn243   1.929   .     S
C245   O298    1.268   .     A
C245   O296    1.268   .     A
C245   C255    1.440   .     S
C246   C247    1.386   .     A
C246   C269    1.415   .     A
C246   H276    1.077   .     S
C247   H284    1.084   .     S
C247   C798    1.391   .     S
C248   O297    1.289   .     A
C248   O299    1.275   .     A
C248   C254    1.457   .     S
C249   C250    1.420   .     A
C249   C251    1.400   .     A
C249   C796    1.391   1_554 S
C250   C253    1.422   .     A
C250   C270    1.425   .     A
C251   C252    1.389   .     A
C251   H279    1.084   .     S
C252   C264    1.396   .     A
C252   H283    1.084   .     S
C253   C264    1.398   .     A
C253   O293    1.380   .     S
C254   C316    1.345   .     S
C254   H341    1.088   .     S
C256   C263    1.401   .     A
C256   H286    1.083   .     S
C256   C265    1.393   .     A
C257   C260    1.451   .     S
C257   C441    1.331   .     S
C257   H464    1.088   .     S
C258   C259    1.435   .     S
C259   O300    1.278   .     A
C259   O294    1.278   .     A
C260   O295    1.275   .     A
C260   O301    1.274   .     A
C261   C264    1.452   .     S
C261   O288    1.273   .     A
C261   O290    1.277   .     A
C262   O291    1.285   .     A
C262   O289    1.282   .     A
C262   C263    1.470   .     S
C263   C266    1.398   .     A
C265   H285    1.084   .     S
C265   C268    1.403   .     A
C266   H274    1.076   .     S
C266   C267    1.406   .     A
C267   C268    1.418   .     A
C267   C269    1.423   .     A
C268   C821    1.392   .     S
C269   C819    1.423   .     S
C270   C271    1.413   .     A
C270   C818    1.423   1_554 S
C271   H275    1.079   .     S
C271   C272    1.388   .     A
C272   H273    1.084   .     S
C272   C817    1.392   1_554 S
H277   O292    0.992   .     S
H278   O293    0.992   .     S
H282   C441    1.086   .     S
O287   Zn303   1.944   .     S
O287   Zn304   1.943   .     S
O287   Zn305   1.935   .     S
O287   Zn302   1.962   .     S
O288   Zn303   1.938   .     S
O289   Zn305   1.945   .     S
O290   Zn304   1.938   .     S
O291   Zn302   1.932   .     S
O292   C316    1.384   .     S
O294   Zn302   1.927   .     S
O295   Zn305   1.932   .     S
O296   Zn303   1.934   .     S
O297   Zn304   1.942   .     S
O298   Zn305   1.939   .     S
O299   Zn302   1.933   .     S
O300   Zn303   1.936   .     S
O301   Zn304   1.929   .     S
C306   O359    1.268   .     A
C306   O357    1.268   .     A
C306   C316    1.440   .     S
C307   C308    1.386   .     A
C307   C330    1.415   .     A
C307   H337    1.077   .     S
C308   H345    1.084   .     S
C308   C859    1.391   .     S
C309   O358    1.289   .     A
C309   O360    1.275   .     A
C309   C315    1.457   .     S
C310   C311    1.420   .     A
C310   C312    1.400   .     A
C310   C857    1.391   1_554 S
C311   C314    1.422   .     A
C311   C331    1.425   .     A
C312   C313    1.389   .     A
C312   H340    1.084   .     S
C313   C325    1.396   .     A
C313   H344    1.084   .     S
C314   C325    1.398   .     A
C314   O354    1.380   .     S
C315   C194    1.345   1_655 S
C315   H219    1.088   1_655 S
C317   C324    1.401   .     A
C317   H347    1.083   .     S
C317   C326    1.393   .     A
C318   C321    1.451   .     S
C318   C502    1.331   .     S
C318   H525    1.088   .     S
C319   C320    1.435   .     S
C320   O361    1.278   .     A
C320   O355    1.278   .     A
C321   O356    1.275   .     A
C321   O362    1.274   .     A
C322   C325    1.452   .     S
C322   O349    1.273   .     A
C322   O351    1.277   .     A
C323   O352    1.285   .     A
C323   O350    1.282   .     A
C323   C324    1.470   .     S
C324   C327    1.398   .     A
C326   H346    1.084   .     S
C326   C329    1.403   .     A
C327   H335    1.076   .     S
C327   C328    1.406   .     A
C328   C329    1.418   .     A
C328   C330    1.423   .     A
C329   C882    1.392   .     S
C330   C880    1.423   .     S
C331   C332    1.413   .     A
C331   C879    1.423   1_554 S
C332   H336    1.079   .     S
C332   C333    1.388   .     A
C333   H334    1.084   .     S
C333   C878    1.392   1_554 S
H338   O353    0.992   .     S
H339   O354    0.992   .     S
H343   C502    1.086   .     S
O348   Zn364   1.944   .     S
O348   Zn365   1.943   .     S
O348   Zn366   1.935   .     S
O348   Zn363   1.962   .     S
O349   Zn364   1.938   .     S
O350   Zn366   1.945   .     S
O351   Zn365   1.938   .     S
O352   Zn363   1.932   .     S
O353   C194    1.384   1_655 S
O355   Zn363   1.927   .     S
O356   Zn366   1.932   .     S
O357   Zn364   1.934   .     S
O358   Zn365   1.942   .     S
O359   Zn366   1.939   .     S
O360   Zn363   1.933   .     S
O361   Zn364   1.936   .     S
O362   Zn365   1.929   .     S
C367   O420    1.268   .     A
C367   O418    1.268   .     A
C367   C377    1.440   .     S
C368   C369    1.386   .     A
C368   C391    1.415   .     A
C368   H398    1.077   .     S
C369   H406    1.084   .     S
C369   C920    1.391   .     S
C370   O419    1.289   .     A
C370   O421    1.275   .     A
C370   C376    1.457   .     S
C371   C372    1.420   .     A
C371   C373    1.400   .     A
C371   C918    1.391   1_554 S
C372   C375    1.422   .     A
C372   C392    1.425   .     A
C373   C374    1.389   .     A
C373   H401    1.084   .     S
C374   C386    1.396   .     A
C374   H405    1.084   .     S
C375   C386    1.398   .     A
C375   O415    1.380   .     S
C376   C438    1.345   .     S
C376   H463    1.088   .     S
C377   C498    1.345   1_455 S
C377   O536    1.384   1_455 S
C378   C385    1.401   .     A
C378   H408    1.083   .     S
C378   C387    1.393   .     A
C379   C382    1.451   .     S
C379   C14     1.331   1_565 S
C379   H37     1.088   1_565 S
C380   C381    1.435   .     S
C381   O422    1.278   .     A
C381   O416    1.278   .     A
C382   O417    1.275   .     A
C382   O423    1.274   .     A
C383   C386    1.452   .     S
C383   O410    1.273   .     A
C383   O412    1.277   .     A
C384   O413    1.285   .     A
C384   O411    1.282   .     A
C384   C385    1.470   .     S
C385   C388    1.398   .     A
C387   H407    1.084   .     S
C387   C390    1.403   .     A
C388   H396    1.076   .     S
C388   C389    1.406   .     A
C389   C390    1.418   .     A
C389   C391    1.423   .     A
C390   C943    1.392   .     S
C391   C941    1.423   .     S
C392   C393    1.413   .     A
C392   C940    1.423   1_554 S
C393   H397    1.079   .     S
C393   C394    1.388   .     A
C394   H395    1.084   .     S
C394   C939    1.392   1_554 S
H399   O414    0.992   .     S
H400   O415    0.992   .     S
H402   C498    1.088   1_455 S
H404   C14     1.086   1_565 S
O409   Zn425   1.944   .     S
O409   Zn426   1.943   .     S
O409   Zn427   1.935   .     S
O409   Zn424   1.962   .     S
O410   Zn425   1.938   .     S
O411   Zn427   1.945   .     S
O412   Zn426   1.938   .     S
O413   Zn424   1.932   .     S
O414   C438    1.384   .     S
O416   Zn424   1.927   .     S
O417   Zn427   1.932   .     S
O418   Zn425   1.934   .     S
O419   Zn426   1.942   .     S
O420   Zn427   1.939   .     S
O421   Zn424   1.933   .     S
O422   Zn425   1.936   .     S
O423   Zn426   1.929   .     S
C428   O481    1.268   .     A
C428   O479    1.268   .     A
C428   C438    1.440   .     S
C429   C430    1.386   .     A
C429   C452    1.415   .     A
C429   H459    1.077   .     S
C430   H467    1.084   .     S
C430   C981    1.391   .     S
C431   O480    1.289   .     A
C431   O482    1.275   .     A
C431   C437    1.457   .     S
C432   C433    1.420   .     A
C432   C434    1.400   .     A
C432   C979    1.391   1_554 S
C433   C436    1.422   .     A
C433   C453    1.425   .     A
C434   C435    1.389   .     A
C434   H462    1.084   .     S
C435   C447    1.396   .     A
C435   H466    1.084   .     S
C436   C447    1.398   .     A
C436   O476    1.380   .     S
C437   C499    1.345   .     S
C437   H524    1.088   .     S
C439   C446    1.401   .     A
C439   H469    1.083   .     S
C439   C448    1.393   .     A
C440   C443    1.451   .     S
C440   C75     1.331   1_565 S
C440   H98     1.088   1_565 S
C441   C442    1.435   .     S
C442   O483    1.278   .     A
C442   O477    1.278   .     A
C443   O478    1.275   .     A
C443   O484    1.274   .     A
C444   C447    1.452   .     S
C444   O471    1.273   .     A
C444   O473    1.277   .     A
C445   O474    1.285   .     A
C445   O472    1.282   .     A
C445   C446    1.470   .     S
C446   C449    1.398   .     A
C448   H468    1.084   .     S
C448   C451    1.403   .     A
C449   H457    1.076   .     S
C449   C450    1.406   .     A
C450   C451    1.418   .     A
C450   C452    1.423   .     A
C451   C1004   1.392   .     S
C452   C1002   1.423   .     S
C453   C454    1.413   .     A
C453   C1001   1.423   1_554 S
C454   H458    1.079   .     S
C454   C455    1.388   .     A
C455   H456    1.084   .     S
C455   C1000   1.392   1_554 S
H460   O475    0.992   .     S
H461   O476    0.992   .     S
H465   C75     1.086   1_565 S
O470   Zn486   1.944   .     S
O470   Zn487   1.943   .     S
O470   Zn488   1.935   .     S
O470   Zn485   1.962   .     S
O471   Zn486   1.938   .     S
O472   Zn488   1.945   .     S
O473   Zn487   1.938   .     S
O474   Zn485   1.932   .     S
O475   C499    1.384   .     S
O477   Zn485   1.927   .     S
O478   Zn488   1.932   .     S
O479   Zn486   1.934   .     S
O480   Zn487   1.942   .     S
O481   Zn488   1.939   .     S
O482   Zn485   1.933   .     S
O483   Zn486   1.936   .     S
O484   Zn487   1.929   .     S
C489   O542    1.268   .     A
C489   O540    1.268   .     A
C489   C499    1.440   .     S
C490   C491    1.386   .     A
C490   C513    1.415   .     A
C490   H520    1.077   .     S
C491   H528    1.084   .     S
C491   C1042   1.391   .     S
C492   O541    1.289   .     A
C492   O543    1.275   .     A
C492   C498    1.457   .     S
C493   C494    1.420   .     A
C493   C495    1.400   .     A
C493   C1040   1.391   1_554 S
C494   C497    1.422   .     A
C494   C514    1.425   .     A
C495   C496    1.389   .     A
C495   H523    1.084   .     S
C496   C508    1.396   .     A
C496   H527    1.084   .     S
C497   C508    1.398   .     A
C497   O537    1.380   .     S
C498   C377    1.345   1_655 S
C498   H402    1.088   1_655 S
C500   C507    1.401   .     A
C500   H530    1.083   .     S
C500   C509    1.393   .     A
C501   C504    1.451   .     S
C501   C136    1.331   1_565 S
C501   H159    1.088   1_565 S
C502   C503    1.435   .     S
C503   O544    1.278   .     A
C503   O538    1.278   .     A
C504   O539    1.275   .     A
C504   O545    1.274   .     A
C505   C508    1.452   .     S
C505   O532    1.273   .     A
C505   O534    1.277   .     A
C506   O535    1.285   .     A
C506   O533    1.282   .     A
C506   C507    1.470   .     S
C507   C510    1.398   .     A
C509   H529    1.084   .     S
C509   C512    1.403   .     A
C510   H518    1.076   .     S
C510   C511    1.406   .     A
C511   C512    1.418   .     A
C511   C513    1.423   .     A
C512   C1065   1.392   .     S
C513   C1063   1.423   .     S
C514   C515    1.413   .     A
C514   C1062   1.423   1_554 S
C515   H519    1.079   .     S
C515   C516    1.388   .     A
C516   H517    1.084   .     S
C516   C1061   1.392   1_554 S
H521   O536    0.992   .     S
H522   O537    0.992   .     S
H526   C136    1.086   1_565 S
O531   Zn547   1.944   .     S
O531   Zn548   1.943   .     S
O531   Zn549   1.935   .     S
O531   Zn546   1.962   .     S
O532   Zn547   1.938   .     S
O533   Zn549   1.945   .     S
O534   Zn548   1.938   .     S
O535   Zn546   1.932   .     S
O536   C377    1.384   1_655 S
O538   Zn546   1.927   .     S
O539   Zn549   1.932   .     S
O540   Zn547   1.934   .     S
O541   Zn548   1.942   .     S
O542   Zn549   1.939   .     S
O543   Zn546   1.933   .     S
O544   Zn547   1.936   .     S
O545   Zn548   1.929   .     S
C550   O603    1.268   .     A
C550   O601    1.268   .     A
C550   C560    1.440   .     S
C551   C552    1.386   .     A
C551   C574    1.415   .     A
C551   H581    1.077   .     S
C552   H589    1.084   .     S
C552   C5      1.391   1_556 S
C553   O602    1.289   .     A
C553   O604    1.275   .     A
C553   C559    1.457   .     S
C554   C555    1.420   .     A
C554   C556    1.400   .     A
C555   C558    1.422   .     A
C555   C575    1.425   .     A
C556   C557    1.389   .     A
C556   H584    1.084   .     S
C557   C569    1.396   .     A
C557   H588    1.084   .     S
C558   C569    1.398   .     A
C558   O598    1.380   .     S
C559   C621    1.345   .     S
C559   H646    1.088   .     S
C560   C681    1.345   1_455 S
C560   O719    1.384   1_455 S
C561   C568    1.401   .     A
C561   H591    1.083   .     S
C561   C570    1.393   .     A
C562   C565    1.451   .     S
C562   C746    1.331   .     S
C562   H769    1.088   .     S
C563   C564    1.435   .     S
C563   C928    1.331   1_545 S
C563   H953    1.086   1_545 S
C564   O605    1.278   .     A
C564   O599    1.278   .     A
C565   O600    1.275   .     A
C565   O606    1.274   .     A
C566   C569    1.452   .     S
C566   O593    1.273   .     A
C566   O595    1.277   .     A
C567   O596    1.285   .     A
C567   O594    1.282   .     A
C567   C568    1.470   .     S
C568   C571    1.398   .     A
C570   H590    1.084   .     S
C570   C573    1.403   .     A
C571   H579    1.076   .     S
C571   C572    1.406   .     A
C572   C573    1.418   .     A
C572   C574    1.423   .     A
C573   C28     1.392   1_556 S
C574   C26     1.423   1_556 S
C575   C576    1.413   .     A
C576   H580    1.079   .     S
C576   C577    1.388   .     A
C577   H578    1.084   .     S
H582   O597    0.992   .     S
H583   O598    0.992   .     S
H585   C681    1.088   1_455 S
H586   C928    1.088   1_545 S
H587   C746    1.086   .     S
O592   Zn608   1.944   .     S
O592   Zn609   1.943   .     S
O592   Zn610   1.935   .     S
O592   Zn607   1.962   .     S
O593   Zn608   1.938   .     S
O594   Zn610   1.945   .     S
O595   Zn609   1.938   .     S
O596   Zn607   1.932   .     S
O597   C621    1.384   .     S
O599   Zn607   1.927   .     S
O600   Zn610   1.932   .     S
O601   Zn608   1.934   .     S
O602   Zn609   1.942   .     S
O603   Zn610   1.939   .     S
O604   Zn607   1.933   .     S
O605   Zn608   1.936   .     S
O606   Zn609   1.929   .     S
C611   O664    1.268   .     A
C611   O662    1.268   .     A
C611   C621    1.440   .     S
C612   C613    1.386   .     A
C612   C635    1.415   .     A
C612   H642    1.077   .     S
C613   H650    1.084   .     S
C613   C66     1.391   1_556 S
C614   O663    1.289   .     A
C614   O665    1.275   .     A
C614   C620    1.457   .     S
C615   C616    1.420   .     A
C615   C617    1.400   .     A
C616   C619    1.422   .     A
C616   C636    1.425   .     A
C617   C618    1.389   .     A
C617   H645    1.084   .     S
C618   C630    1.396   .     A
C618   H649    1.084   .     S
C619   C630    1.398   .     A
C619   O659    1.380   .     S
C620   C682    1.345   .     S
C620   H707    1.088   .     S
C622   C629    1.401   .     A
C622   H652    1.083   .     S
C622   C631    1.393   .     A
C623   C626    1.451   .     S
C623   C807    1.331   .     S
C623   H830    1.088   .     S
C624   C625    1.435   .     S
C624   C989    1.331   1_545 S
C624   H1014   1.086   1_545 S
C625   O666    1.278   .     A
C625   O660    1.278   .     A
C626   O661    1.275   .     A
C626   O667    1.274   .     A
C627   C630    1.452   .     S
C627   O654    1.273   .     A
C627   O656    1.277   .     A
C628   O657    1.285   .     A
C628   O655    1.282   .     A
C628   C629    1.470   .     S
C629   C632    1.398   .     A
C631   H651    1.084   .     S
C631   C634    1.403   .     A
C632   H640    1.076   .     S
C632   C633    1.406   .     A
C633   C634    1.418   .     A
C633   C635    1.423   .     A
C634   C89     1.392   1_556 S
C635   C87     1.423   1_556 S
C636   C637    1.413   .     A
C637   H641    1.079   .     S
C637   C638    1.388   .     A
C638   H639    1.084   .     S
H643   O658    0.992   .     S
H644   O659    0.992   .     S
H647   C989    1.088   1_545 S
H648   C807    1.086   .     S
O653   Zn669   1.944   .     S
O653   Zn670   1.943   .     S
O653   Zn671   1.935   .     S
O653   Zn668   1.962   .     S
O654   Zn669   1.938   .     S
O655   Zn671   1.945   .     S
O656   Zn670   1.938   .     S
O657   Zn668   1.932   .     S
O658   C682    1.384   .     S
O660   Zn668   1.927   .     S
O661   Zn671   1.932   .     S
O662   Zn669   1.934   .     S
O663   Zn670   1.942   .     S
O664   Zn671   1.939   .     S
O665   Zn668   1.933   .     S
O666   Zn669   1.936   .     S
O667   Zn670   1.929   .     S
C672   O725    1.268   .     A
C672   O723    1.268   .     A
C672   C682    1.440   .     S
C673   C674    1.386   .     A
C673   C696    1.415   .     A
C673   H703    1.077   .     S
C674   H711    1.084   .     S
C674   C127    1.391   1_556 S
C675   O724    1.289   .     A
C675   O726    1.275   .     A
C675   C681    1.457   .     S
C676   C677    1.420   .     A
C676   C678    1.400   .     A
C677   C680    1.422   .     A
C677   C697    1.425   .     A
C678   C679    1.389   .     A
C678   H706    1.084   .     S
C679   C691    1.396   .     A
C679   H710    1.084   .     S
C680   C691    1.398   .     A
C680   O720    1.380   .     S
C681   C560    1.345   1_655 S
C681   H585    1.088   1_655 S
C683   C690    1.401   .     A
C683   H713    1.083   .     S
C683   C692    1.393   .     A
C684   C687    1.451   .     S
C684   C868    1.331   .     S
C684   H891    1.088   .     S
C685   C686    1.435   .     S
C685   C1050   1.331   1_545 S
C685   H1075   1.086   1_545 S
C686   O727    1.278   .     A
C686   O721    1.278   .     A
C687   O722    1.275   .     A
C687   O728    1.274   .     A
C688   C691    1.452   .     S
C688   O715    1.273   .     A
C688   O717    1.277   .     A
C689   O718    1.285   .     A
C689   O716    1.282   .     A
C689   C690    1.470   .     S
C690   C693    1.398   .     A
C692   H712    1.084   .     S
C692   C695    1.403   .     A
C693   H701    1.076   .     S
C693   C694    1.406   .     A
C694   C695    1.418   .     A
C694   C696    1.423   .     A
C695   C150    1.392   1_556 S
C696   C148    1.423   1_556 S
C697   C698    1.413   .     A
C698   H702    1.079   .     S
C698   C699    1.388   .     A
C699   H700    1.084   .     S
H704   O719    0.992   .     S
H705   O720    0.992   .     S
H708   C1050   1.088   1_545 S
H709   C868    1.086   .     S
O714   Zn730   1.944   .     S
O714   Zn731   1.943   .     S
O714   Zn732   1.935   .     S
O714   Zn729   1.962   .     S
O715   Zn730   1.938   .     S
O716   Zn732   1.945   .     S
O717   Zn731   1.938   .     S
O718   Zn729   1.932   .     S
O719   C560    1.384   1_655 S
O721   Zn729   1.927   .     S
O722   Zn732   1.932   .     S
O723   Zn730   1.934   .     S
O724   Zn731   1.942   .     S
O725   Zn732   1.939   .     S
O726   Zn729   1.933   .     S
O727   Zn730   1.936   .     S
O728   Zn731   1.929   .     S
C733   O786    1.268   .     A
C733   O784    1.268   .     A
C733   C743    1.440   .     S
C734   C735    1.386   .     A
C734   C757    1.415   .     A
C734   H764    1.077   .     S
C735   H772    1.084   .     S
C735   C188    1.391   1_556 S
C736   O785    1.289   .     A
C736   O787    1.275   .     A
C736   C742    1.457   .     S
C737   C738    1.420   .     A
C737   C739    1.400   .     A
C738   C741    1.422   .     A
C738   C758    1.425   .     A
C739   C740    1.389   .     A
C739   H767    1.084   .     S
C740   C752    1.396   .     A
C740   H771    1.084   .     S
C741   C752    1.398   .     A
C741   O781    1.380   .     S
C742   C804    1.345   .     S
C742   H829    1.088   .     S
C743   C864    1.345   1_455 S
C743   O902    1.384   1_455 S
C744   C751    1.401   .     A
C744   H774    1.083   .     S
C744   C753    1.393   .     A
C745   C748    1.451   .     S
C745   C929    1.331   .     S
C745   H952    1.088   .     S
C746   C747    1.435   .     S
C747   O788    1.278   .     A
C747   O782    1.278   .     A
C748   O783    1.275   .     A
C748   O789    1.274   .     A
C749   C752    1.452   .     S
C749   O776    1.273   .     A
C749   O778    1.277   .     A
C750   O779    1.285   .     A
C750   O777    1.282   .     A
C750   C751    1.470   .     S
C751   C754    1.398   .     A
C753   H773    1.084   .     S
C753   C756    1.403   .     A
C754   H762    1.076   .     S
C754   C755    1.406   .     A
C755   C756    1.418   .     A
C755   C757    1.423   .     A
C756   C211    1.392   1_556 S
C757   C209    1.423   1_556 S
C758   C759    1.413   .     A
C759   H763    1.079   .     S
C759   C760    1.388   .     A
C760   H761    1.084   .     S
H765   O780    0.992   .     S
H766   O781    0.992   .     S
H768   C864    1.088   1_455 S
H770   C929    1.086   .     S
O775   Zn791   1.944   .     S
O775   Zn792   1.943   .     S
O775   Zn793   1.935   .     S
O775   Zn790   1.962   .     S
O776   Zn791   1.938   .     S
O777   Zn793   1.945   .     S
O778   Zn792   1.938   .     S
O779   Zn790   1.932   .     S
O780   C804    1.384   .     S
O782   Zn790   1.927   .     S
O783   Zn793   1.932   .     S
O784   Zn791   1.934   .     S
O785   Zn792   1.942   .     S
O786   Zn793   1.939   .     S
O787   Zn790   1.933   .     S
O788   Zn791   1.936   .     S
O789   Zn792   1.929   .     S
C794   O847    1.268   .     A
C794   O845    1.268   .     A
C794   C804    1.440   .     S
C795   C796    1.386   .     A
C795   C818    1.415   .     A
C795   H825    1.077   .     S
C796   H833    1.084   .     S
C796   C249    1.391   1_556 S
C797   O846    1.289   .     A
C797   O848    1.275   .     A
C797   C803    1.457   .     S
C798   C799    1.420   .     A
C798   C800    1.400   .     A
C799   C802    1.422   .     A
C799   C819    1.425   .     A
C800   C801    1.389   .     A
C800   H828    1.084   .     S
C801   C813    1.396   .     A
C801   H832    1.084   .     S
C802   C813    1.398   .     A
C802   O842    1.380   .     S
C803   C865    1.345   .     S
C803   H890    1.088   .     S
C805   C812    1.401   .     A
C805   H835    1.083   .     S
C805   C814    1.393   .     A
C806   C809    1.451   .     S
C806   C990    1.331   .     S
C806   H1013   1.088   .     S
C807   C808    1.435   .     S
C808   O849    1.278   .     A
C808   O843    1.278   .     A
C809   O844    1.275   .     A
C809   O850    1.274   .     A
C810   C813    1.452   .     S
C810   O837    1.273   .     A
C810   O839    1.277   .     A
C811   O840    1.285   .     A
C811   O838    1.282   .     A
C811   C812    1.470   .     S
C812   C815    1.398   .     A
C814   H834    1.084   .     S
C814   C817    1.403   .     A
C815   H823    1.076   .     S
C815   C816    1.406   .     A
C816   C817    1.418   .     A
C816   C818    1.423   .     A
C817   C272    1.392   1_556 S
C818   C270    1.423   1_556 S
C819   C820    1.413   .     A
C820   H824    1.079   .     S
C820   C821    1.388   .     A
C821   H822    1.084   .     S
H826   O841    0.992   .     S
H827   O842    0.992   .     S
H831   C990    1.086   .     S
O836   Zn852   1.944   .     S
O836   Zn853   1.943   .     S
O836   Zn854   1.935   .     S
O836   Zn851   1.962   .     S
O837   Zn852   1.938   .     S
O838   Zn854   1.945   .     S
O839   Zn853   1.938   .     S
O840   Zn851   1.932   .     S
O841   C865    1.384   .     S
O843   Zn851   1.927   .     S
O844   Zn854   1.932   .     S
O845   Zn852   1.934   .     S
O846   Zn853   1.942   .     S
O847   Zn854   1.939   .     S
O848   Zn851   1.933   .     S
O849   Zn852   1.936   .     S
O850   Zn853   1.929   .     S
C855   O908    1.268   .     A
C855   O906    1.268   .     A
C855   C865    1.440   .     S
C856   C857    1.386   .     A
C856   C879    1.415   .     A
C856   H886    1.077   .     S
C857   H894    1.084   .     S
C857   C310    1.391   1_556 S
C858   O907    1.289   .     A
C858   O909    1.275   .     A
C858   C864    1.457   .     S
C859   C860    1.420   .     A
C859   C861    1.400   .     A
C860   C863    1.422   .     A
C860   C880    1.425   .     A
C861   C862    1.389   .     A
C861   H889    1.084   .     S
C862   C874    1.396   .     A
C862   H893    1.084   .     S
C863   C874    1.398   .     A
C863   O903    1.380   .     S
C864   C743    1.345   1_655 S
C864   H768    1.088   1_655 S
C866   C873    1.401   .     A
C866   H896    1.083   .     S
C866   C875    1.393   .     A
C867   C870    1.451   .     S
C867   C1051   1.331   .     S
C867   H1074   1.088   .     S
C868   C869    1.435   .     S
C869   O910    1.278   .     A
C869   O904    1.278   .     A
C870   O905    1.275   .     A
C870   O911    1.274   .     A
C871   C874    1.452   .     S
C871   O898    1.273   .     A
C871   O900    1.277   .     A
C872   O901    1.285   .     A
C872   O899    1.282   .     A
C872   C873    1.470   .     S
C873   C876    1.398   .     A
C875   H895    1.084   .     S
C875   C878    1.403   .     A
C876   H884    1.076   .     S
C876   C877    1.406   .     A
C877   C878    1.418   .     A
C877   C879    1.423   .     A
C878   C333    1.392   1_556 S
C879   C331    1.423   1_556 S
C880   C881    1.413   .     A
C881   H885    1.079   .     S
C881   C882    1.388   .     A
C882   H883    1.084   .     S
H887   O902    0.992   .     S
H888   O903    0.992   .     S
H892   C1051   1.086   .     S
O897   Zn913   1.944   .     S
O897   Zn914   1.943   .     S
O897   Zn915   1.935   .     S
O897   Zn912   1.962   .     S
O898   Zn913   1.938   .     S
O899   Zn915   1.945   .     S
O900   Zn914   1.938   .     S
O901   Zn912   1.932   .     S
O902   C743    1.384   1_655 S
O904   Zn912   1.927   .     S
O905   Zn915   1.932   .     S
O906   Zn913   1.934   .     S
O907   Zn914   1.942   .     S
O908   Zn915   1.939   .     S
O909   Zn912   1.933   .     S
O910   Zn913   1.936   .     S
O911   Zn914   1.929   .     S
C916   O969    1.268   .     A
C916   O967    1.268   .     A
C916   C926    1.440   .     S
C917   C918    1.386   .     A
C917   C940    1.415   .     A
C917   H947    1.077   .     S
C918   H955    1.084   .     S
C918   C371    1.391   1_556 S
C919   O968    1.289   .     A
C919   O970    1.275   .     A
C919   C925    1.457   .     S
C920   C921    1.420   .     A
C920   C922    1.400   .     A
C921   C924    1.422   .     A
C921   C941    1.425   .     A
C922   C923    1.389   .     A
C922   H950    1.084   .     S
C923   C935    1.396   .     A
C923   H954    1.084   .     S
C924   C935    1.398   .     A
C924   O964    1.380   .     S
C925   C987    1.345   .     S
C925   H1012   1.088   .     S
C926   C1047   1.345   1_455 S
C926   O1085   1.384   1_455 S
C927   C934    1.401   .     A
C927   H957    1.083   .     S
C927   C936    1.393   .     A
C928   C931    1.451   .     S
C928   C563    1.331   1_565 S
C928   H586    1.088   1_565 S
C929   C930    1.435   .     S
C930   O971    1.278   .     A
C930   O965    1.278   .     A
C931   O966    1.275   .     A
C931   O972    1.274   .     A
C932   C935    1.452   .     S
C932   O959    1.273   .     A
C932   O961    1.277   .     A
C933   O962    1.285   .     A
C933   O960    1.282   .     A
C933   C934    1.470   .     S
C934   C937    1.398   .     A
C936   H956    1.084   .     S
C936   C939    1.403   .     A
C937   H945    1.076   .     S
C937   C938    1.406   .     A
C938   C939    1.418   .     A
C938   C940    1.423   .     A
C939   C394    1.392   1_556 S
C940   C392    1.423   1_556 S
C941   C942    1.413   .     A
C942   H946    1.079   .     S
C942   C943    1.388   .     A
C943   H944    1.084   .     S
H948   O963    0.992   .     S
H949   O964    0.992   .     S
H951   C1047   1.088   1_455 S
H953   C563    1.086   1_565 S
O958   Zn974   1.944   .     S
O958   Zn975   1.943   .     S
O958   Zn976   1.935   .     S
O958   Zn973   1.962   .     S
O959   Zn974   1.938   .     S
O960   Zn976   1.945   .     S
O961   Zn975   1.938   .     S
O962   Zn973   1.932   .     S
O963   C987    1.384   .     S
O965   Zn973   1.927   .     S
O966   Zn976   1.932   .     S
O967   Zn974   1.934   .     S
O968   Zn975   1.942   .     S
O969   Zn976   1.939   .     S
O970   Zn973   1.933   .     S
O971   Zn974   1.936   .     S
O972   Zn975   1.929   .     S
C977   O1030   1.268   .     A
C977   O1028   1.268   .     A
C977   C987    1.440   .     S
C978   C979    1.386   .     A
C978   C1001   1.415   .     A
C978   H1008   1.077   .     S
C979   H1016   1.084   .     S
C979   C432    1.391   1_556 S
C980   O1029   1.289   .     A
C980   O1031   1.275   .     A
C980   C986    1.457   .     S
C981   C982    1.420   .     A
C981   C983    1.400   .     A
C982   C985    1.422   .     A
C982   C1002   1.425   .     A
C983   C984    1.389   .     A
C983   H1011   1.084   .     S
C984   C996    1.396   .     A
C984   H1015   1.084   .     S
C985   C996    1.398   .     A
C985   O1025   1.380   .     S
C986   C1048   1.345   .     S
C986   H1073   1.088   .     S
C988   C995    1.401   .     A
C988   H1018   1.083   .     S
C988   C997    1.393   .     A
C989   C992    1.451   .     S
C989   C624    1.331   1_565 S
C989   H647    1.088   1_565 S
C990   C991    1.435   .     S
C991   O1032   1.278   .     A
C991   O1026   1.278   .     A
C992   O1027   1.275   .     A
C992   O1033   1.274   .     A
C993   C996    1.452   .     S
C993   O1020   1.273   .     A
C993   O1022   1.277   .     A
C994   O1023   1.285   .     A
C994   O1021   1.282   .     A
C994   C995    1.470   .     S
C995   C998    1.398   .     A
C997   H1017   1.084   .     S
C997   C1000   1.403   .     A
C998   H1006   1.076   .     S
C998   C999    1.406   .     A
C999   C1000   1.418   .     A
C999   C1001   1.423   .     A
C1000  C455    1.392   1_556 S
C1001  C453    1.423   1_556 S
C1002  C1003   1.413   .     A
C1003  H1007   1.079   .     S
C1003  C1004   1.388   .     A
C1004  H1005   1.084   .     S
H1009  O1024   0.992   .     S
H1010  O1025   0.992   .     S
H1014  C624    1.086   1_565 S
O1019  Zn1035  1.944   .     S
O1019  Zn1036  1.943   .     S
O1019  Zn1037  1.935   .     S
O1019  Zn1034  1.962   .     S
O1020  Zn1035  1.938   .     S
O1021  Zn1037  1.945   .     S
O1022  Zn1036  1.938   .     S
O1023  Zn1034  1.932   .     S
O1024  C1048   1.384   .     S
O1026  Zn1034  1.927   .     S
O1027  Zn1037  1.932   .     S
O1028  Zn1035  1.934   .     S
O1029  Zn1036  1.942   .     S
O1030  Zn1037  1.939   .     S
O1031  Zn1034  1.933   .     S
O1032  Zn1035  1.936   .     S
O1033  Zn1036  1.929   .     S
C1038  O1091   1.268   .     A
C1038  O1089   1.268   .     A
C1038  C1048   1.440   .     S
C1039  C1040   1.386   .     A
C1039  C1062   1.415   .     A
C1039  H1069   1.077   .     S
C1040  H1077   1.084   .     S
C1040  C493    1.391   1_556 S
C1041  O1090   1.289   .     A
C1041  O1092   1.275   .     A
C1041  C1047   1.457   .     S
C1042  C1043   1.420   .     A
C1042  C1044   1.400   .     A
C1043  C1046   1.422   .     A
C1043  C1063   1.425   .     A
C1044  C1045   1.389   .     A
C1044  H1072   1.084   .     S
C1045  C1057   1.396   .     A
C1045  H1076   1.084   .     S
C1046  C1057   1.398   .     A
C1046  O1086   1.380   .     S
C1047  C926    1.345   1_655 S
C1047  H951    1.088   1_655 S
C1049  C1056   1.401   .     A
C1049  H1079   1.083   .     S
C1049  C1058   1.393   .     A
C1050  C1053   1.451   .     S
C1050  C685    1.331   1_565 S
C1050  H708    1.088   1_565 S
C1051  C1052   1.435   .     S
C1052  O1093   1.278   .     A
C1052  O1087   1.278   .     A
C1053  O1088   1.275   .     A
C1053  O1094   1.274   .     A
C1054  C1057   1.452   .     S
C1054  O1081   1.273   .     A
C1054  O1083   1.277   .     A
C1055  O1084   1.285   .     A
C1055  O1082   1.282   .     A
C1055  C1056   1.470   .     S
C1056  C1059   1.398   .     A
C1058  H1078   1.084   .     S
C1058  C1061   1.403   .     A
C1059  H1067   1.076   .     S
C1059  C1060   1.406   .     A
C1060  C1061   1.418   .     A
C1060  C1062   1.423   .     A
C1061  C516    1.392   1_556 S
C1062  C514    1.423   1_556 S
C1063  C1064   1.413   .     A
C1064  H1068   1.079   .     S
C1064  C1065   1.388   .     A
C1065  H1066   1.084   .     S
H1070  O1085   0.992   .     S
H1071  O1086   0.992   .     S
H1075  C685    1.086   1_565 S
O1080  Zn1096  1.944   .     S
O1080  Zn1097  1.943   .     S
O1080  Zn1098  1.935   .     S
O1080  Zn1095  1.962   .     S
O1081  Zn1096  1.938   .     S
O1082  Zn1098  1.945   .     S
O1083  Zn1097  1.938   .     S
O1084  Zn1095  1.932   .     S
O1085  C926    1.384   1_655 S
O1087  Zn1095  1.927   .     S
O1088  Zn1098  1.932   .     S
O1089  Zn1096  1.934   .     S
O1090  Zn1097  1.942   .     S
O1091  Zn1098  1.939   .     S
O1092  Zn1095  1.933   .     S
O1093  Zn1096  1.936   .     S
O1094  Zn1097  1.929   .     S
