data_str_m1_o1_o17_pcu_sym.74
_audit_creation_date              2020-01-03
_audit_creation_method            'Materials Studio'
_symmetry_space_group_name_H-M    'P1'
_symmetry_Int_Tables_number       1
_symmetry_cell_setting            triclinic
loop_
_symmetry_equiv_pos_as_xyz
  x,y,z
_cell_length_a                    36.6476
_cell_length_b                    36.6474
_cell_length_c                    34.4413
_cell_angle_alpha                 89.9997
_cell_angle_beta                  90.0003
_cell_angle_gamma                 90.0005
loop_
_atom_site_label
_atom_site_type_symbol
_atom_site_fract_x
_atom_site_fract_y
_atom_site_fract_z
_atom_site_U_iso_or_equiv
_atom_site_adp_type
_atom_site_occupancy
C1     C     0.03258   0.25579   0.41865   0.00000  Uiso   1.00
C2     C     0.21701   0.00245   0.08132   0.00000  Uiso   1.00
C3     C     0.25184   0.03347   0.54077   0.00000  Uiso   1.00
C4     C     0.03296   0.25601   0.45921   0.00000  Uiso   1.00
C5     C     0.46725   0.24291   0.54076   0.00000  Uiso   1.00
C6     C     0.25318   0.03333   0.45926   0.00000  Uiso   1.00
C7     C     0.24815   0.46652   0.54077   0.00000  Uiso   1.00
C8     C     0.21668   0.00331   0.95925   0.00000  Uiso   1.00
C9     C     0.28347   0.49804   0.04076   0.00000  Uiso   1.00
C10    C     0.00610   0.21706   0.95921   0.00000  Uiso   1.00
C11    C     0.49279   0.28273   0.04077   0.00000  Uiso   1.00
C12    C     0.28332   0.49669   0.95925   0.00000  Uiso   1.00
C13    C     0.49413   0.28257   0.91865   0.00000  Uiso   1.00
C14    C     0.21653   0.00196   0.04076   0.00000  Uiso   1.00
C15    C     0.49389   0.28294   0.95921   0.00000  Uiso   1.00
C16    C     0.00720   0.21727   0.04077   0.00000  Uiso   1.00
C17    C     0.09809   0.34812   0.25005   0.00000  Uiso   1.00
C18    C     0.40191   0.15188   0.74997   0.00000  Uiso   1.00
C19    C     0.15190   0.09812   0.24997   0.00000  Uiso   1.00
C20    C     0.34809   0.40188   0.75005   0.00000  Uiso   1.00
C21    C     0.40191   0.15188   0.25005   0.00000  Uiso   1.00
C22    C     0.09809   0.34812   0.74997   0.00000  Uiso   1.00
C23    C     0.34810   0.40188   0.24997   0.00000  Uiso   1.00
C24    C     0.00696   0.21764   0.08133   0.00000  Uiso   1.00
C25    C     0.15191   0.09812   0.75005   0.00000  Uiso   1.00
C26    C     0.09812   0.15191   0.75005   0.00000  Uiso   1.00
C27    C     0.40188   0.34809   0.24997   0.00000  Uiso   1.00
C28    C     0.15188   0.40190   0.74997   0.00000  Uiso   1.00
C29    C     0.34812   0.09809   0.25005   0.00000  Uiso   1.00
C30    C     0.40188   0.34809   0.75005   0.00000  Uiso   1.00
C31    C     0.09812   0.15191   0.24997   0.00000  Uiso   1.00
C32    C     0.34812   0.09809   0.74997   0.00000  Uiso   1.00
C33    C     0.15188   0.40191   0.25005   0.00000  Uiso   1.00
C34    C     0.00000   0.25000   0.47962   0.00000  Uiso   1.00
C35    C     0.21709   0.00334   0.91869   0.00000  Uiso   1.00
C36    C    -0.00000   0.25000   0.52036   0.00000  Uiso   1.00
C37    C     0.25000  -0.00000   0.47965   0.00000  Uiso   1.00
C38    C     0.25000  -0.00000   0.52038   0.00000  Uiso   1.00
C39    C     0.25000   0.00000   0.97965   0.00000  Uiso   1.00
C40    C     0.25000  -0.00000   0.02038   0.00000  Uiso   1.00
C41    C    -0.00000   0.25000   0.97962   0.00000  Uiso   1.00
C42    C    -0.00000   0.25000   0.02037   0.00000  Uiso   1.00
C43    C     0.38126   0.26336   0.45865   0.00000  Uiso   1.00
C44    C     0.34621   0.25612   0.43589   0.00000  Uiso   1.00
C45    C     0.32194   0.28993   0.43418   0.00000  Uiso   1.00
C46    C     0.28299   0.49755   0.08132   0.00000  Uiso   1.00
C47    C     0.10165   0.31023   0.54219   0.00000  Uiso   1.00
C48    C     0.14017   0.31876   0.55654   0.00000  Uiso   1.00
C49    C     0.14605   0.35978   0.56101   0.00000  Uiso   1.00
C50    C     0.20252   0.39175   0.45860   0.00000  Uiso   1.00
C51    C     0.19737   0.35815   0.43293   0.00000  Uiso   1.00
C52    C     0.15725   0.34715   0.43059   0.00000  Uiso   1.00
C53    C     0.21910   0.11061   0.55088   0.00000  Uiso   1.00
C54    C     0.20072   0.13329   0.51901   0.00000  Uiso   1.00
C55    C     0.16428   0.14873   0.53285   0.00000  Uiso   1.00
C56    C     0.11879   0.23667   0.45873   0.00000  Uiso   1.00
C57    C     0.00587   0.21743   0.91866   0.00000  Uiso   1.00
C58    C     0.15384   0.24392   0.43597   0.00000  Uiso   1.00
C59    C     0.17819   0.21018   0.43442   0.00000  Uiso   1.00
C60    C     0.39832   0.18981   0.54221   0.00000  Uiso   1.00
C61    C     0.35981   0.18130   0.55657   0.00000  Uiso   1.00
C62    C     0.35391   0.14028   0.56106   0.00000  Uiso   1.00
C63    C     0.29746   0.10827   0.45861   0.00000  Uiso   1.00
C64    C     0.30260   0.14187   0.43294   0.00000  Uiso   1.00
C65    C     0.34271   0.15291   0.43063   0.00000  Uiso   1.00
C66    C     0.28089   0.38939   0.55090   0.00000  Uiso   1.00
C67    C     0.29927   0.36670   0.51905   0.00000  Uiso   1.00
C68    C     0.49304   0.28236   0.08133   0.00000  Uiso   1.00
C69    C     0.33571   0.35127   0.53291   0.00000  Uiso   1.00
C70    C     0.14199   0.04795   0.95859   0.00000  Uiso   1.00
C71    C     0.10842   0.05327   0.93292   0.00000  Uiso   1.00
C72    C     0.09766   0.09345   0.93054   0.00000  Uiso   1.00
C73    C     0.36073   0.03053   0.05083   0.00000  Uiso   1.00
C74    C     0.38335   0.04886   0.01887   0.00000  Uiso   1.00
C75    C     0.39894   0.08525   0.03266   0.00000  Uiso   1.00
C76    C     0.48710   0.13107   0.95889   0.00000  Uiso   1.00
C77    C     0.49452   0.09599   0.93625   0.00000  Uiso   1.00
C78    C     0.46098   0.07133   0.93505   0.00000  Uiso   1.00
C79    C     0.00000   0.25000   0.39840   0.00000  Uiso   1.00
C80    C     0.43938   0.35139   0.04220   0.00000  Uiso   1.00
C81    C     0.43067   0.38990   0.05644   0.00000  Uiso   1.00
C82    C     0.38962   0.39558   0.06094   0.00000  Uiso   1.00
C83    C     0.35801   0.45205   0.95859   0.00000  Uiso   1.00
C84    C     0.39157   0.44672   0.93292   0.00000  Uiso   1.00
C85    C     0.40234   0.40654   0.93054   0.00000  Uiso   1.00
C86    C     0.13927   0.46947   0.05082   0.00000  Uiso   1.00
C87    C     0.11665   0.45114   0.01886   0.00000  Uiso   1.00
C88    C     0.10106   0.41475   0.03266   0.00000  Uiso   1.00
C89    C     0.01289   0.36893   0.95889   0.00000  Uiso   1.00
C90    C    -0.00000   0.25000   0.60158   0.00000  Uiso   1.00
C91    C     0.00548   0.40401   0.93625   0.00000  Uiso   1.00
C92    C     0.03901   0.42866   0.93504   0.00000  Uiso   1.00
C93    C     0.06062   0.14861   0.04220   0.00000  Uiso   1.00
C94    C     0.06933   0.11010   0.05644   0.00000  Uiso   1.00
C95    C     0.11037   0.10442   0.06094   0.00000  Uiso   1.00
C96    C     0.25000  -0.00000   0.39843   0.00000  Uiso   1.00
C97    C     0.46762   0.24316   0.58132   0.00000  Uiso   1.00
C98    C     0.25000   0.00000   0.60158   0.00000  Uiso   1.00
C99    C     0.25000  -0.00000   0.89842   0.00000  Uiso   1.00
C100   C     0.25000  -0.00000   0.10158   0.00000  Uiso   1.00
C101   C    -0.00000   0.25000   0.89840   0.00000  Uiso   1.00
C102   C    -0.00000   0.25000   0.10159   0.00000  Uiso   1.00
C103   C     0.43429   0.23783   0.47959   0.00000  Uiso   1.00
C104   C     0.06524   0.26444   0.52031   0.00000  Uiso   1.00
C105   C     0.24372   0.43350   0.47965   0.00000  Uiso   1.00
C106   C     0.25338   0.06681   0.52025   0.00000  Uiso   1.00
C107   C     0.06571   0.26217   0.47959   0.00000  Uiso   1.00
C108   C     0.25321   0.03293   0.41870   0.00000  Uiso   1.00
C109   C     0.43476   0.23558   0.52030   0.00000  Uiso   1.00
C110   C     0.25628   0.06650   0.47965   0.00000  Uiso   1.00
C111   C     0.24661   0.43319   0.52025   0.00000  Uiso   1.00
C112   C     0.18353   0.00654   0.97965   0.00000  Uiso   1.00
C113   C     0.31680   0.49638   0.02025   0.00000  Uiso   1.00
C114   C     0.01236   0.18433   0.97960   0.00000  Uiso   1.00
C115   C     0.48534   0.31519   0.02031   0.00000  Uiso   1.00
C116   C     0.31647   0.49346   0.97965   0.00000  Uiso   1.00
C117   C     0.18320   0.00362   0.02025   0.00000  Uiso   1.00
C118   C     0.48763   0.31567   0.97960   0.00000  Uiso   1.00
C119   C     0.24764   0.46701   0.58132   0.00000  Uiso   1.00
C120   C     0.01465   0.18481   0.02031   0.00000  Uiso   1.00
C121   C     0.25000  -0.00000   0.35597   0.00000  Uiso   1.00
C122   C     0.25000  -0.00000   0.64403   0.00000  Uiso   1.00
C123   C     0.00000   0.25000   0.35596   0.00000  Uiso   1.00
C124   C    -0.00000   0.25000   0.64403   0.00000  Uiso   1.00
C125   C    -0.00000   0.25000   0.85596   0.00000  Uiso   1.00
C126   C     0.00000   0.25000   0.14403   0.00000  Uiso   1.00
C127   C     0.25000  -0.00000   0.85597   0.00000  Uiso   1.00
C128   C     0.25000  -0.00000   0.14403   0.00000  Uiso   1.00
C129   C     0.17996   0.07005   0.24999   0.00000  Uiso   1.00
C130   C     0.46742   0.24420   0.41865   0.00000  Uiso   1.00
C131   C     0.32004   0.42995   0.75001   0.00000  Uiso   1.00
C132   C     0.42996   0.17995   0.25001   0.00000  Uiso   1.00
C133   C     0.07004   0.32005   0.74999   0.00000  Uiso   1.00
C134   C     0.32004   0.42995   0.24999   0.00000  Uiso   1.00
C135   C     0.17996   0.07005   0.75001   0.00000  Uiso   1.00
C136   C     0.07004   0.32005   0.25001   0.00000  Uiso   1.00
C137   C     0.42996   0.17995   0.74999   0.00000  Uiso   1.00
C138   C     0.17995   0.42996   0.74999   0.00000  Uiso   1.00
C139   C     0.32005   0.07004   0.25001   0.00000  Uiso   1.00
C140   C     0.42995   0.32004   0.75001   0.00000  Uiso   1.00
C141   C     0.03238   0.25685   0.58133   0.00000  Uiso   1.00
C142   C     0.07005   0.17996   0.24999   0.00000  Uiso   1.00
C143   C     0.32005   0.07004   0.74999   0.00000  Uiso   1.00
C144   C     0.17995   0.42996   0.25001   0.00000  Uiso   1.00
C145   C     0.07005   0.17996   0.75001   0.00000  Uiso   1.00
C146   C     0.42995   0.32004   0.24999   0.00000  Uiso   1.00
C147   C     0.11649   0.41025   0.23716   0.00000  Uiso   1.00
C148   C     0.38353   0.08974   0.76278   0.00000  Uiso   1.00
C149   C     0.08977   0.11651   0.23714   0.00000  Uiso   1.00
C150   C     0.41020   0.38346   0.76300   0.00000  Uiso   1.00
C151   C     0.38351   0.08975   0.23716   0.00000  Uiso   1.00
C152   C     0.24679   0.46707   0.41870   0.00000  Uiso   1.00
C153   C     0.11647   0.41026   0.76278   0.00000  Uiso   1.00
C154   C     0.41023   0.38349   0.23713   0.00000  Uiso   1.00
C155   C     0.08980   0.11654   0.76300   0.00000  Uiso   1.00
C156   C     0.11654   0.08980   0.76300   0.00000  Uiso   1.00
C157   C     0.38349   0.41023   0.23714   0.00000  Uiso   1.00
C158   C     0.08974   0.38352   0.76278   0.00000  Uiso   1.00
C159   C     0.41024   0.11649   0.23716   0.00000  Uiso   1.00
C160   C     0.38346   0.41020   0.76300   0.00000  Uiso   1.00
C161   C     0.11651   0.08977   0.23714   0.00000  Uiso   1.00
C162   C     0.41026   0.11648   0.76278   0.00000  Uiso   1.00
C163   C     0.25235   0.03299   0.58132   0.00000  Uiso   1.00
C164   C     0.08975   0.38351   0.23716   0.00000  Uiso   1.00
C165   C     0.36650   0.16023   0.73714   0.00000  Uiso   1.00
C166   C     0.13347   0.33980   0.26299   0.00000  Uiso   1.00
C167   C     0.33976   0.36649   0.73715   0.00000  Uiso   1.00
C168   C     0.16026   0.13352   0.26279   0.00000  Uiso   1.00
C169   C     0.13349   0.33977   0.73714   0.00000  Uiso   1.00
C170   C     0.36653   0.16020   0.26299   0.00000  Uiso   1.00
C171   C     0.16024   0.13350   0.73716   0.00000  Uiso   1.00
C172   C     0.33974   0.36648   0.26279   0.00000  Uiso   1.00
C173   C     0.36648   0.33974   0.26279   0.00000  Uiso   1.00
C174   C     0.28291   0.49666   0.91870   0.00000  Uiso   1.00
C175   C     0.13351   0.16024   0.73716   0.00000  Uiso   1.00
C176   C     0.33980   0.13346   0.26299   0.00000  Uiso   1.00
C177   C     0.16023   0.36650   0.73715   0.00000  Uiso   1.00
C178   C     0.13352   0.16026   0.26279   0.00000  Uiso   1.00
C179   C     0.36649   0.33976   0.73716   0.00000  Uiso   1.00
C180   C     0.16020   0.36653   0.26299   0.00000  Uiso   1.00
C181   C     0.33977   0.13350   0.73715   0.00000  Uiso   1.00
C182   C     0.46704   0.24398   0.45921   0.00000  Uiso   1.00
C183   C     0.03275   0.25709   0.54076   0.00000  Uiso   1.00
C184   C     0.24683   0.46667   0.45926   0.00000  Uiso   1.00
F185   F     0.10744   0.44446   0.22542   0.00000  Uiso   1.00
F186   F     0.39257   0.44446   0.22547   0.00000  Uiso   1.00
F187   F     0.05550   0.39260   0.77444   0.00000  Uiso   1.00
F188   F     0.44446   0.10743   0.22543   0.00000  Uiso   1.00
F189   F     0.39251   0.44440   0.77479   0.00000  Uiso   1.00
F190   F     0.10743   0.05554   0.22547   0.00000  Uiso   1.00
F191   F     0.44450   0.10740   0.77444   0.00000  Uiso   1.00
F192   F     0.05554   0.39257   0.22543   0.00000  Uiso   1.00
F193   F     0.35743   0.19446   0.72548   0.00000  Uiso   1.00
F194   F     0.14252   0.30559   0.27477   0.00000  Uiso   1.00
F195   F     0.30555   0.35744   0.72541   0.00000  Uiso   1.00
F196   F     0.39260   0.05550   0.77443   0.00000  Uiso   1.00
F197   F     0.19449   0.14260   0.27445   0.00000  Uiso   1.00
F198   F     0.14257   0.30553   0.72548   0.00000  Uiso   1.00
F199   F     0.35748   0.19441   0.27476   0.00000  Uiso   1.00
F200   F     0.19445   0.14256   0.72541   0.00000  Uiso   1.00
F201   F     0.30551   0.35740   0.27445   0.00000  Uiso   1.00
F202   F     0.35741   0.30551   0.27447   0.00000  Uiso   1.00
F203   F     0.14256   0.19446   0.72542   0.00000  Uiso   1.00
F204   F     0.30560   0.14252   0.27477   0.00000  Uiso   1.00
F205   F     0.19447   0.35743   0.72549   0.00000  Uiso   1.00
F206   F     0.14259   0.19449   0.27446   0.00000  Uiso   1.00
F207   F     0.05554   0.10743   0.22546   0.00000  Uiso   1.00
F208   F     0.35744   0.30554   0.72542   0.00000  Uiso   1.00
F209   F     0.19440   0.35748   0.27477   0.00000  Uiso   1.00
F210   F     0.30553   0.14257   0.72549   0.00000  Uiso   1.00
F211   F     0.44440   0.39252   0.77478   0.00000  Uiso   1.00
F212   F     0.39256   0.05554   0.22542   0.00000  Uiso   1.00
F213   F     0.10740   0.44450   0.77443   0.00000  Uiso   1.00
F214   F     0.44446   0.39257   0.22546   0.00000  Uiso   1.00
F215   F     0.05560   0.10748   0.77478   0.00000  Uiso   1.00
F216   F     0.10749   0.05560   0.77479   0.00000  Uiso   1.00
H217   H     0.05763   0.26043   0.40267   0.00000  Uiso   1.00
H218   H     0.19167   0.00480   0.09731   0.00000  Uiso   1.00
H219   H     0.37858   0.37689   0.08345   0.00000  Uiso   1.00
H220   H     0.33511   0.43569   0.94620   0.00000  Uiso   1.00
H221   H     0.36441   0.44193   0.98829   0.00000  Uiso   1.00
H222   H     0.38557   0.45695   0.90320   0.00000  Uiso   1.00
H223   H     0.41481   0.46265   0.94491   0.00000  Uiso   1.00
H224   H     0.41042   0.39630   0.95965   0.00000  Uiso   1.00
H225   H     0.42577   0.40336   0.91041   0.00000  Uiso   1.00
H226   H     0.37925   0.38996   0.91936   0.00000  Uiso   1.00
H227   H     0.12199   0.47224   0.07717   0.00000  Uiso   1.00
H228   H     0.16263   0.45157   0.05918   0.00000  Uiso   1.00
H229   H     0.48943   0.30760   0.90267   0.00000  Uiso   1.00
H230   H     0.09388   0.46944   0.01018   0.00000  Uiso   1.00
H231   H     0.13412   0.44606   0.99308   0.00000  Uiso   1.00
H232   H     0.12339   0.39628   0.04211   0.00000  Uiso   1.00
H233   H     0.08605   0.40141   0.00854   0.00000  Uiso   1.00
H234   H     0.08190   0.41914   0.05722   0.00000  Uiso   1.00
H235   H     0.03536   0.35372   0.94422   0.00000  Uiso   1.00
H236   H     0.02161   0.37638   0.98884   0.00000  Uiso   1.00
H237   H     0.49733   0.39701   0.90607   0.00000  Uiso   1.00
H238   H     0.48268   0.41911   0.95023   0.00000  Uiso   1.00
H239   H     0.04619   0.43783   0.96479   0.00000  Uiso   1.00
H240   H     0.01237   0.19275   0.09731   0.00000  Uiso   1.00
H241   H     0.03305   0.45312   0.91710   0.00000  Uiso   1.00
H242   H     0.06258   0.41399   0.92209   0.00000  Uiso   1.00
H243   H     0.07211   0.16881   0.06304   0.00000  Uiso   1.00
H244   H     0.07391   0.15241   0.01333   0.00000  Uiso   1.00
H245   H     0.05585   0.10537   0.08491   0.00000  Uiso   1.00
H246   H     0.05852   0.08991   0.03526   0.00000  Uiso   1.00
H247   H     0.12453   0.10967   0.03299   0.00000  Uiso   1.00
H248   H     0.11587   0.07585   0.06994   0.00000  Uiso   1.00
H249   H     0.12142   0.12311   0.08345   0.00000  Uiso   1.00
H250   H     0.19173   0.00591   0.90274   0.00000  Uiso   1.00
H251   H     0.30833   0.49520   0.09731   0.00000  Uiso   1.00
H252   H     0.01057   0.19240   0.90268   0.00000  Uiso   1.00
H253   H     0.48763   0.30725   0.09731   0.00000  Uiso   1.00
H254   H     0.39669   0.28566   0.44396   0.00000  Uiso   1.00
H255   H     0.37376   0.27224   0.48854   0.00000  Uiso   1.00
H256   H     0.35327   0.24762   0.40583   0.00000  Uiso   1.00
H257   H     0.44271   0.23784   0.59730   0.00000  Uiso   1.00
H258   H     0.33079   0.23363   0.45002   0.00000  Uiso   1.00
H259   H     0.31277   0.29754   0.46380   0.00000  Uiso   1.00
H260   H     0.29747   0.28404   0.41623   0.00000  Uiso   1.00
H261   H     0.33693   0.31317   0.42098   0.00000  Uiso   1.00
H262   H     0.08146   0.32183   0.56298   0.00000  Uiso   1.00
H263   H     0.09799   0.32353   0.51331   0.00000  Uiso   1.00
H264   H     0.14476   0.30529   0.58504   0.00000  Uiso   1.00
H265   H     0.16036   0.30783   0.53543   0.00000  Uiso   1.00
H266   H     0.14094   0.37394   0.53303   0.00000  Uiso   1.00
H267   H     0.17463   0.36514   0.57008   0.00000  Uiso   1.00
H268   H     0.25568   0.05829   0.40275   0.00000  Uiso   1.00
H269   H     0.12736   0.37094   0.58345   0.00000  Uiso   1.00
H270   H     0.18604   0.41456   0.44620   0.00000  Uiso   1.00
H271   H     0.19243   0.38530   0.48829   0.00000  Uiso   1.00
H272   H     0.20754   0.36421   0.40321   0.00000  Uiso   1.00
H273   H     0.21344   0.33501   0.44491   0.00000  Uiso   1.00
H274   H     0.14708   0.33900   0.45971   0.00000  Uiso   1.00
H275   H     0.15418   0.32371   0.41045   0.00000  Uiso   1.00
H276   H     0.14052   0.37015   0.41943   0.00000  Uiso   1.00
H277   H     0.22181   0.12780   0.57729   0.00000  Uiso   1.00
H278   H     0.20125   0.08717   0.55914   0.00000  Uiso   1.00
H279   H     0.24537   0.44166   0.59731   0.00000  Uiso   1.00
H280   H     0.21896   0.15614   0.51044   0.00000  Uiso   1.00
H281   H     0.19570   0.11591   0.49314   0.00000  Uiso   1.00
H282   H     0.14586   0.12630   0.54217   0.00000  Uiso   1.00
H283   H     0.15092   0.16380   0.50880   0.00000  Uiso   1.00
H284   H     0.16859   0.16779   0.55750   0.00000  Uiso   1.00
H285   H     0.10340   0.21433   0.44407   0.00000  Uiso   1.00
H286   H     0.12629   0.22786   0.48864   0.00000  Uiso   1.00
H287   H     0.14678   0.25230   0.40587   0.00000  Uiso   1.00
H288   H     0.16919   0.26651   0.45002   0.00000  Uiso   1.00
H289   H     0.18739   0.20272   0.46408   0.00000  Uiso   1.00
H290   H     0.44238   0.23956   0.40267   0.00000  Uiso   1.00
H291   H     0.20265   0.21606   0.41644   0.00000  Uiso   1.00
H292   H     0.16328   0.18684   0.42134   0.00000  Uiso   1.00
H293   H     0.41851   0.17821   0.56299   0.00000  Uiso   1.00
H294   H     0.40196   0.17650   0.51332   0.00000  Uiso   1.00
H295   H     0.35524   0.19478   0.58507   0.00000  Uiso   1.00
H296   H     0.33961   0.19224   0.53547   0.00000  Uiso   1.00
H297   H     0.35899   0.12612   0.53307   0.00000  Uiso   1.00
H298   H     0.32533   0.13494   0.57014   0.00000  Uiso   1.00
H299   H     0.37260   0.12911   0.58349   0.00000  Uiso   1.00
H300   H     0.31396   0.08547   0.44622   0.00000  Uiso   1.00
H301   H     0.05729   0.26217   0.59731   0.00000  Uiso   1.00
H302   H     0.30754   0.11473   0.48831   0.00000  Uiso   1.00
H303   H     0.29246   0.13580   0.40321   0.00000  Uiso   1.00
H304   H     0.28650   0.16500   0.44491   0.00000  Uiso   1.00
H305   H     0.35285   0.16108   0.45976   0.00000  Uiso   1.00
H306   H     0.34577   0.17634   0.41049   0.00000  Uiso   1.00
H307   H     0.35947   0.12993   0.41950   0.00000  Uiso   1.00
H308   H     0.27816   0.37221   0.57732   0.00000  Uiso   1.00
H309   H     0.29873   0.41283   0.55915   0.00000  Uiso   1.00
H310   H     0.28104   0.34383   0.51048   0.00000  Uiso   1.00
H311   H     0.30429   0.38407   0.49317   0.00000  Uiso   1.00
H312   H     0.24432   0.44171   0.40274   0.00000  Uiso   1.00
H313   H     0.35412   0.37371   0.54222   0.00000  Uiso   1.00
H314   H     0.34908   0.33619   0.50887   0.00000  Uiso   1.00
H315   H     0.33140   0.33223   0.55757   0.00000  Uiso   1.00
H316   H     0.16489   0.06431   0.94619   0.00000  Uiso   1.00
H317   H     0.13559   0.05807   0.98828   0.00000  Uiso   1.00
H318   H     0.11442   0.04304   0.90320   0.00000  Uiso   1.00
H319   H     0.08519   0.03735   0.94492   0.00000  Uiso   1.00
H320   H     0.08959   0.10370   0.95965   0.00000  Uiso   1.00
H321   H     0.07423   0.09664   0.91041   0.00000  Uiso   1.00
H322   H     0.12075   0.11004   0.91935   0.00000  Uiso   1.00
H323   H     0.25462   0.05834   0.59731   0.00000  Uiso   1.00
H324   H     0.37801   0.02776   0.07717   0.00000  Uiso   1.00
H325   H     0.33736   0.04843   0.05918   0.00000  Uiso   1.00
H326   H     0.40612   0.03056   0.01018   0.00000  Uiso   1.00
H327   H     0.36588   0.05394   0.99308   0.00000  Uiso   1.00
H328   H     0.37661   0.10372   0.04211   0.00000  Uiso   1.00
H329   H     0.41395   0.09859   0.00854   0.00000  Uiso   1.00
H330   H     0.41810   0.08087   0.05722   0.00000  Uiso   1.00
H331   H     0.46463   0.14628   0.94423   0.00000  Uiso   1.00
H332   H     0.47839   0.12361   0.98885   0.00000  Uiso   1.00
H333   H     0.00266   0.10299   0.90607   0.00000  Uiso   1.00
H334   H     0.30827   0.49409   0.90274   0.00000  Uiso   1.00
H335   H     0.01732   0.08089   0.95023   0.00000  Uiso   1.00
H336   H     0.45382   0.06216   0.96480   0.00000  Uiso   1.00
H337   H     0.46695   0.04688   0.91711   0.00000  Uiso   1.00
H338   H     0.43741   0.08601   0.92211   0.00000  Uiso   1.00
H339   H     0.42789   0.33119   0.06304   0.00000  Uiso   1.00
H340   H     0.42608   0.34759   0.01333   0.00000  Uiso   1.00
H341   H     0.44415   0.39462   0.08492   0.00000  Uiso   1.00
H342   H     0.44148   0.41009   0.03526   0.00000  Uiso   1.00
H343   H     0.37547   0.39033   0.03299   0.00000  Uiso   1.00
H344   H     0.38413   0.42415   0.06994   0.00000  Uiso   1.00
O345   O     0.25000  -0.00000   0.25000   0.00000  Uiso   1.00
O346   O     0.25000   0.46963   0.66245   0.00000  Uiso   1.00
O347   O     0.46963   0.25000   0.33755   0.00000  Uiso   1.00
O348   O     0.03036   0.25000   0.66245   0.00000  Uiso   1.00
O349   O     0.00000   0.21963   0.83755   0.00000  Uiso   1.00
O350   O     0.00000   0.28036   0.16245   0.00000  Uiso   1.00
O351   O     0.28036  -0.00000   0.83755   0.00000  Uiso   1.00
O352   O     0.21963  -0.00000   0.16245   0.00000  Uiso   1.00
O353   O     0.00000   0.28036   0.83755   0.00000  Uiso   1.00
O354   O     0.00000   0.21963   0.16245   0.00000  Uiso   1.00
O355   O     0.21963  -0.00000   0.83755   0.00000  Uiso   1.00
O356   O     0.25000  -0.00000   0.75000   0.00000  Uiso   1.00
O357   O     0.28036  -0.00000   0.16245   0.00000  Uiso   1.00
O358   O     0.20724   0.07307   0.27302   0.00000  Uiso   1.00
O359   O     0.29275   0.42692   0.72698   0.00000  Uiso   1.00
O360   O     0.42692   0.20724   0.27302   0.00000  Uiso   1.00
O361   O     0.07307   0.29275   0.72698   0.00000  Uiso   1.00
O362   O     0.29275   0.42692   0.27302   0.00000  Uiso   1.00
O363   O     0.20724   0.07307   0.72698   0.00000  Uiso   1.00
O364   O     0.07307   0.29275   0.27302   0.00000  Uiso   1.00
O365   O     0.42692   0.20724   0.72698   0.00000  Uiso   1.00
O366   O     0.20724   0.42692   0.72698   0.00000  Uiso   1.00
O367   O     0.00000   0.25000   0.25000   0.00000  Uiso   1.00
O368   O     0.29275   0.07307   0.27302   0.00000  Uiso   1.00
O369   O     0.42692   0.29275   0.72698   0.00000  Uiso   1.00
O370   O     0.07307   0.20724   0.27302   0.00000  Uiso   1.00
O371   O     0.29275   0.07307   0.72698   0.00000  Uiso   1.00
O372   O     0.20724   0.42692   0.27302   0.00000  Uiso   1.00
O373   O     0.07307   0.20724   0.72698   0.00000  Uiso   1.00
O374   O     0.42692   0.29275   0.27302   0.00000  Uiso   1.00
O375   O     0.45724   0.32307   0.77302   0.00000  Uiso   1.00
O376   O     0.04275   0.17692   0.22698   0.00000  Uiso   1.00
O377   O     0.17692   0.45724   0.77302   0.00000  Uiso   1.00
O378   O     0.00000   0.25000   0.75000   0.00000  Uiso   1.00
O379   O     0.32307   0.04275   0.22698   0.00000  Uiso   1.00
O380   O     0.04275   0.17692   0.77302   0.00000  Uiso   1.00
O381   O     0.45724   0.32307   0.22698   0.00000  Uiso   1.00
O382   O     0.32307   0.04275   0.77302   0.00000  Uiso   1.00
O383   O     0.17692   0.45724   0.22698   0.00000  Uiso   1.00
O384   O     0.45724   0.17692   0.22698   0.00000  Uiso   1.00
O385   O     0.04275   0.32307   0.77302   0.00000  Uiso   1.00
O386   O     0.17692   0.04275   0.22698   0.00000  Uiso   1.00
O387   O     0.32307   0.45724   0.77302   0.00000  Uiso   1.00
O388   O     0.04275   0.32307   0.22698   0.00000  Uiso   1.00
O389   O     0.25000   0.46963   0.33755   0.00000  Uiso   1.00
O390   O     0.45724   0.17692   0.77302   0.00000  Uiso   1.00
O391   O     0.32307   0.45724   0.22698   0.00000  Uiso   1.00
O392   O     0.17692   0.04275   0.77302   0.00000  Uiso   1.00
O393   O     0.40218   0.23101   0.45969   0.00000  Uiso   1.00
O394   O     0.09730   0.27198   0.53996   0.00000  Uiso   1.00
O395   O     0.23993   0.40091   0.45975   0.00000  Uiso   1.00
O396   O     0.25472   0.09996   0.53958   0.00000  Uiso   1.00
O397   O     0.09782   0.26900   0.45969   0.00000  Uiso   1.00
O398   O     0.40269   0.22806   0.53996   0.00000  Uiso   1.00
O399   O     0.26005   0.09909   0.45975   0.00000  Uiso   1.00
O400   O     0.25000   0.03036   0.66245   0.00000  Uiso   1.00
O401   O     0.24526   0.40004   0.53958   0.00000  Uiso   1.00
O402   O     0.15096   0.01049   0.95975   0.00000  Uiso   1.00
O403   O     0.34994   0.49493   0.03957   0.00000  Uiso   1.00
O404   O     0.01930   0.15224   0.95969   0.00000  Uiso   1.00
O405   O     0.47765   0.34721   0.03996   0.00000  Uiso   1.00
O406   O     0.34904   0.48951   0.95975   0.00000  Uiso   1.00
O407   O     0.15006   0.00507   0.03957   0.00000  Uiso   1.00
O408   O     0.48070   0.34776   0.95969   0.00000  Uiso   1.00
O409   O     0.02235   0.15278   0.03996   0.00000  Uiso   1.00
O410   O     0.03036   0.25000   0.33755   0.00000  Uiso   1.00
O411   O     0.46963   0.25000   0.66245   0.00000  Uiso   1.00
O412   O     0.25000   0.03036   0.33755   0.00000  Uiso   1.00
Zn413  Zn    0.20659  -0.00000   0.21735   0.00000  Uiso   1.00
Zn414  Zn    0.04340   0.25000   0.28265   0.00000  Uiso   1.00
Zn415  Zn    0.25000   0.45659   0.71735   0.00000  Uiso   1.00
Zn416  Zn    0.25000   0.04340   0.28265   0.00000  Uiso   1.00
Zn417  Zn    0.04340   0.25000   0.71735   0.00000  Uiso   1.00
Zn418  Zn    0.45659   0.25000   0.28265   0.00000  Uiso   1.00
Zn419  Zn    0.25000   0.04340   0.71735   0.00000  Uiso   1.00
Zn420  Zn    0.25000   0.45659   0.28265   0.00000  Uiso   1.00
Zn421  Zn    0.29340  -0.00000   0.78265   0.00000  Uiso   1.00
Zn422  Zn    0.00000   0.20659   0.21735   0.00000  Uiso   1.00
Zn423  Zn    0.00000   0.29340   0.78265   0.00000  Uiso   1.00
Zn424  Zn    0.29340  -0.00000   0.21735   0.00000  Uiso   1.00
Zn425  Zn    0.20659  -0.00000   0.78265   0.00000  Uiso   1.00
Zn426  Zn    0.00000   0.29340   0.21735   0.00000  Uiso   1.00
Zn427  Zn    0.00000   0.20659   0.78265   0.00000  Uiso   1.00
Zn428  Zn    0.45659   0.25000   0.71735   0.00000  Uiso   1.00
C429   C     0.53258   0.25579   0.41865   0.00000  Uiso   1.00
C430   C     0.71701   0.00245   0.08132   0.00000  Uiso   1.00
C431   C     0.75184   0.03347   0.54077   0.00000  Uiso   1.00
C432   C     0.53296   0.25601   0.45921   0.00000  Uiso   1.00
C433   C     0.96725   0.24291   0.54076   0.00000  Uiso   1.00
C434   C     0.75318   0.03333   0.45926   0.00000  Uiso   1.00
C435   C     0.74815   0.46652   0.54077   0.00000  Uiso   1.00
C436   C     0.71668   0.00331   0.95925   0.00000  Uiso   1.00
C437   C     0.78347   0.49804   0.04076   0.00000  Uiso   1.00
C438   C     0.50610   0.21706   0.95921   0.00000  Uiso   1.00
C439   C     0.99279   0.28273   0.04077   0.00000  Uiso   1.00
C440   C     0.78332   0.49669   0.95925   0.00000  Uiso   1.00
C441   C     0.99413   0.28257   0.91865   0.00000  Uiso   1.00
C442   C     0.71653   0.00196   0.04076   0.00000  Uiso   1.00
C443   C     0.99389   0.28294   0.95921   0.00000  Uiso   1.00
C444   C     0.50720   0.21727   0.04077   0.00000  Uiso   1.00
C445   C     0.59809   0.34812   0.25005   0.00000  Uiso   1.00
C446   C     0.90191   0.15188   0.74997   0.00000  Uiso   1.00
C447   C     0.65190   0.09812   0.24997   0.00000  Uiso   1.00
C448   C     0.84809   0.40188   0.75005   0.00000  Uiso   1.00
C449   C     0.90191   0.15188   0.25005   0.00000  Uiso   1.00
C450   C     0.59809   0.34812   0.74997   0.00000  Uiso   1.00
C451   C     0.84810   0.40188   0.24997   0.00000  Uiso   1.00
C452   C     0.50696   0.21764   0.08133   0.00000  Uiso   1.00
C453   C     0.65191   0.09812   0.75005   0.00000  Uiso   1.00
C454   C     0.59812   0.15191   0.75005   0.00000  Uiso   1.00
C455   C     0.90188   0.34809   0.24997   0.00000  Uiso   1.00
C456   C     0.65188   0.40190   0.74997   0.00000  Uiso   1.00
C457   C     0.84812   0.09809   0.25005   0.00000  Uiso   1.00
C458   C     0.90188   0.34809   0.75005   0.00000  Uiso   1.00
C459   C     0.59812   0.15191   0.24997   0.00000  Uiso   1.00
C460   C     0.84812   0.09809   0.74997   0.00000  Uiso   1.00
C461   C     0.65188   0.40191   0.25005   0.00000  Uiso   1.00
C462   C     0.50000   0.25000   0.47962   0.00000  Uiso   1.00
C463   C     0.71709   0.00334   0.91869   0.00000  Uiso   1.00
C464   C     0.50000   0.25000   0.52036   0.00000  Uiso   1.00
C465   C     0.75000  -0.00000   0.47965   0.00000  Uiso   1.00
C466   C     0.75000  -0.00000   0.52038   0.00000  Uiso   1.00
C467   C     0.75000   0.00000   0.97965   0.00000  Uiso   1.00
C468   C     0.75000  -0.00000   0.02038   0.00000  Uiso   1.00
C469   C     0.50000   0.25000   0.97962   0.00000  Uiso   1.00
C470   C     0.50000   0.25000   0.02037   0.00000  Uiso   1.00
C471   C     0.88126   0.26336   0.45865   0.00000  Uiso   1.00
C472   C     0.84621   0.25612   0.43589   0.00000  Uiso   1.00
C473   C     0.82194   0.28993   0.43418   0.00000  Uiso   1.00
C474   C     0.78299   0.49755   0.08132   0.00000  Uiso   1.00
C475   C     0.60165   0.31023   0.54219   0.00000  Uiso   1.00
C476   C     0.64017   0.31876   0.55654   0.00000  Uiso   1.00
C477   C     0.64605   0.35978   0.56101   0.00000  Uiso   1.00
C478   C     0.70252   0.39175   0.45860   0.00000  Uiso   1.00
C479   C     0.69737   0.35815   0.43293   0.00000  Uiso   1.00
C480   C     0.65725   0.34715   0.43059   0.00000  Uiso   1.00
C481   C     0.71910   0.11061   0.55088   0.00000  Uiso   1.00
C482   C     0.70072   0.13329   0.51901   0.00000  Uiso   1.00
C483   C     0.66428   0.14873   0.53285   0.00000  Uiso   1.00
C484   C     0.61879   0.23667   0.45873   0.00000  Uiso   1.00
C485   C     0.50587   0.21743   0.91866   0.00000  Uiso   1.00
C486   C     0.65384   0.24392   0.43597   0.00000  Uiso   1.00
C487   C     0.67819   0.21018   0.43442   0.00000  Uiso   1.00
C488   C     0.89832   0.18981   0.54221   0.00000  Uiso   1.00
C489   C     0.85981   0.18130   0.55657   0.00000  Uiso   1.00
C490   C     0.85391   0.14028   0.56106   0.00000  Uiso   1.00
C491   C     0.79746   0.10827   0.45861   0.00000  Uiso   1.00
C492   C     0.80260   0.14187   0.43294   0.00000  Uiso   1.00
C493   C     0.84271   0.15291   0.43063   0.00000  Uiso   1.00
C494   C     0.78089   0.38939   0.55090   0.00000  Uiso   1.00
C495   C     0.79927   0.36670   0.51905   0.00000  Uiso   1.00
C496   C     0.99304   0.28236   0.08133   0.00000  Uiso   1.00
C497   C     0.83571   0.35127   0.53291   0.00000  Uiso   1.00
C498   C     0.64199   0.04795   0.95859   0.00000  Uiso   1.00
C499   C     0.60842   0.05327   0.93292   0.00000  Uiso   1.00
C500   C     0.59766   0.09345   0.93054   0.00000  Uiso   1.00
C501   C     0.86073   0.03053   0.05083   0.00000  Uiso   1.00
C502   C     0.88335   0.04886   0.01887   0.00000  Uiso   1.00
C503   C     0.89894   0.08525   0.03266   0.00000  Uiso   1.00
C504   C     0.98710   0.13107   0.95889   0.00000  Uiso   1.00
C505   C     0.99452   0.09599   0.93625   0.00000  Uiso   1.00
C506   C     0.96098   0.07133   0.93505   0.00000  Uiso   1.00
C507   C     0.50000   0.25000   0.39840   0.00000  Uiso   1.00
C508   C     0.93938   0.35139   0.04220   0.00000  Uiso   1.00
C509   C     0.93067   0.38990   0.05644   0.00000  Uiso   1.00
C510   C     0.88962   0.39558   0.06094   0.00000  Uiso   1.00
C511   C     0.85801   0.45205   0.95859   0.00000  Uiso   1.00
C512   C     0.89157   0.44672   0.93292   0.00000  Uiso   1.00
C513   C     0.90234   0.40654   0.93054   0.00000  Uiso   1.00
C514   C     0.63927   0.46947   0.05082   0.00000  Uiso   1.00
C515   C     0.61665   0.45114   0.01886   0.00000  Uiso   1.00
C516   C     0.60106   0.41475   0.03266   0.00000  Uiso   1.00
C517   C     0.51289   0.36893   0.95889   0.00000  Uiso   1.00
C518   C     0.50000   0.25000   0.60158   0.00000  Uiso   1.00
C519   C     0.50548   0.40401   0.93625   0.00000  Uiso   1.00
C520   C     0.53901   0.42866   0.93504   0.00000  Uiso   1.00
C521   C     0.56062   0.14861   0.04220   0.00000  Uiso   1.00
C522   C     0.56933   0.11010   0.05644   0.00000  Uiso   1.00
C523   C     0.61037   0.10442   0.06094   0.00000  Uiso   1.00
C524   C     0.75000  -0.00000   0.39843   0.00000  Uiso   1.00
C525   C     0.96762   0.24316   0.58132   0.00000  Uiso   1.00
C526   C     0.75000   0.00000   0.60158   0.00000  Uiso   1.00
C527   C     0.75000  -0.00000   0.89842   0.00000  Uiso   1.00
C528   C     0.75000  -0.00000   0.10158   0.00000  Uiso   1.00
C529   C     0.50000   0.25000   0.89840   0.00000  Uiso   1.00
C530   C     0.50000   0.25000   0.10159   0.00000  Uiso   1.00
C531   C     0.93429   0.23783   0.47959   0.00000  Uiso   1.00
C532   C     0.56524   0.26444   0.52031   0.00000  Uiso   1.00
C533   C     0.74372   0.43350   0.47965   0.00000  Uiso   1.00
C534   C     0.75338   0.06681   0.52025   0.00000  Uiso   1.00
C535   C     0.56571   0.26217   0.47959   0.00000  Uiso   1.00
C536   C     0.75321   0.03293   0.41870   0.00000  Uiso   1.00
C537   C     0.93476   0.23558   0.52030   0.00000  Uiso   1.00
C538   C     0.75628   0.06650   0.47965   0.00000  Uiso   1.00
C539   C     0.74661   0.43319   0.52025   0.00000  Uiso   1.00
C540   C     0.68353   0.00654   0.97965   0.00000  Uiso   1.00
C541   C     0.81680   0.49638   0.02025   0.00000  Uiso   1.00
C542   C     0.51236   0.18433   0.97960   0.00000  Uiso   1.00
C543   C     0.98534   0.31519   0.02031   0.00000  Uiso   1.00
C544   C     0.81647   0.49346   0.97965   0.00000  Uiso   1.00
C545   C     0.68320   0.00362   0.02025   0.00000  Uiso   1.00
C546   C     0.98763   0.31567   0.97960   0.00000  Uiso   1.00
C547   C     0.74764   0.46701   0.58132   0.00000  Uiso   1.00
C548   C     0.51465   0.18481   0.02031   0.00000  Uiso   1.00
C549   C     0.75000  -0.00000   0.35597   0.00000  Uiso   1.00
C550   C     0.75000  -0.00000   0.64403   0.00000  Uiso   1.00
C551   C     0.50000   0.25000   0.35596   0.00000  Uiso   1.00
C552   C     0.50000   0.25000   0.64403   0.00000  Uiso   1.00
C553   C     0.50000   0.25000   0.85596   0.00000  Uiso   1.00
C554   C     0.50000   0.25000   0.14403   0.00000  Uiso   1.00
C555   C     0.75000  -0.00000   0.85597   0.00000  Uiso   1.00
C556   C     0.75000  -0.00000   0.14403   0.00000  Uiso   1.00
C557   C     0.67996   0.07005   0.24999   0.00000  Uiso   1.00
C558   C     0.96742   0.24420   0.41865   0.00000  Uiso   1.00
C559   C     0.82004   0.42995   0.75001   0.00000  Uiso   1.00
C560   C     0.92996   0.17995   0.25001   0.00000  Uiso   1.00
C561   C     0.57004   0.32005   0.74999   0.00000  Uiso   1.00
C562   C     0.82004   0.42995   0.24999   0.00000  Uiso   1.00
C563   C     0.67996   0.07005   0.75001   0.00000  Uiso   1.00
C564   C     0.57004   0.32005   0.25001   0.00000  Uiso   1.00
C565   C     0.92996   0.17995   0.74999   0.00000  Uiso   1.00
C566   C     0.67995   0.42996   0.74999   0.00000  Uiso   1.00
C567   C     0.82005   0.07004   0.25001   0.00000  Uiso   1.00
C568   C     0.92995   0.32004   0.75001   0.00000  Uiso   1.00
C569   C     0.53238   0.25685   0.58133   0.00000  Uiso   1.00
C570   C     0.57005   0.17996   0.24999   0.00000  Uiso   1.00
C571   C     0.82005   0.07004   0.74999   0.00000  Uiso   1.00
C572   C     0.67995   0.42996   0.25001   0.00000  Uiso   1.00
C573   C     0.57005   0.17996   0.75001   0.00000  Uiso   1.00
C574   C     0.92995   0.32004   0.24999   0.00000  Uiso   1.00
C575   C     0.61649   0.41025   0.23716   0.00000  Uiso   1.00
C576   C     0.88353   0.08974   0.76278   0.00000  Uiso   1.00
C577   C     0.58977   0.11651   0.23714   0.00000  Uiso   1.00
C578   C     0.91020   0.38346   0.76300   0.00000  Uiso   1.00
C579   C     0.88351   0.08975   0.23716   0.00000  Uiso   1.00
C580   C     0.74679   0.46707   0.41870   0.00000  Uiso   1.00
C581   C     0.61647   0.41026   0.76278   0.00000  Uiso   1.00
C582   C     0.91023   0.38349   0.23713   0.00000  Uiso   1.00
C583   C     0.58980   0.11654   0.76300   0.00000  Uiso   1.00
C584   C     0.61654   0.08980   0.76300   0.00000  Uiso   1.00
C585   C     0.88349   0.41023   0.23714   0.00000  Uiso   1.00
C586   C     0.58974   0.38352   0.76278   0.00000  Uiso   1.00
C587   C     0.91024   0.11649   0.23716   0.00000  Uiso   1.00
C588   C     0.88346   0.41020   0.76300   0.00000  Uiso   1.00
C589   C     0.61651   0.08977   0.23714   0.00000  Uiso   1.00
C590   C     0.91026   0.11648   0.76278   0.00000  Uiso   1.00
C591   C     0.75235   0.03299   0.58132   0.00000  Uiso   1.00
C592   C     0.58975   0.38351   0.23716   0.00000  Uiso   1.00
C593   C     0.86650   0.16023   0.73714   0.00000  Uiso   1.00
C594   C     0.63347   0.33980   0.26299   0.00000  Uiso   1.00
C595   C     0.83976   0.36649   0.73715   0.00000  Uiso   1.00
C596   C     0.66026   0.13352   0.26279   0.00000  Uiso   1.00
C597   C     0.63349   0.33977   0.73714   0.00000  Uiso   1.00
C598   C     0.86653   0.16020   0.26299   0.00000  Uiso   1.00
C599   C     0.66024   0.13350   0.73716   0.00000  Uiso   1.00
C600   C     0.83974   0.36648   0.26279   0.00000  Uiso   1.00
C601   C     0.86648   0.33974   0.26279   0.00000  Uiso   1.00
C602   C     0.78291   0.49666   0.91870   0.00000  Uiso   1.00
C603   C     0.63351   0.16024   0.73716   0.00000  Uiso   1.00
C604   C     0.83980   0.13346   0.26299   0.00000  Uiso   1.00
C605   C     0.66023   0.36650   0.73715   0.00000  Uiso   1.00
C606   C     0.63352   0.16026   0.26279   0.00000  Uiso   1.00
C607   C     0.86649   0.33976   0.73716   0.00000  Uiso   1.00
C608   C     0.66020   0.36653   0.26299   0.00000  Uiso   1.00
C609   C     0.83977   0.13350   0.73715   0.00000  Uiso   1.00
C610   C     0.96704   0.24398   0.45921   0.00000  Uiso   1.00
C611   C     0.53275   0.25709   0.54076   0.00000  Uiso   1.00
C612   C     0.74683   0.46667   0.45926   0.00000  Uiso   1.00
F613   F     0.60744   0.44446   0.22542   0.00000  Uiso   1.00
F614   F     0.89257   0.44446   0.22547   0.00000  Uiso   1.00
F615   F     0.55550   0.39260   0.77444   0.00000  Uiso   1.00
F616   F     0.94446   0.10743   0.22543   0.00000  Uiso   1.00
F617   F     0.89251   0.44440   0.77479   0.00000  Uiso   1.00
F618   F     0.60743   0.05554   0.22547   0.00000  Uiso   1.00
F619   F     0.94450   0.10740   0.77444   0.00000  Uiso   1.00
F620   F     0.55554   0.39257   0.22543   0.00000  Uiso   1.00
F621   F     0.85743   0.19446   0.72548   0.00000  Uiso   1.00
F622   F     0.64252   0.30559   0.27477   0.00000  Uiso   1.00
F623   F     0.80555   0.35744   0.72541   0.00000  Uiso   1.00
F624   F     0.89260   0.05550   0.77443   0.00000  Uiso   1.00
F625   F     0.69449   0.14260   0.27445   0.00000  Uiso   1.00
F626   F     0.64257   0.30553   0.72548   0.00000  Uiso   1.00
F627   F     0.85748   0.19441   0.27476   0.00000  Uiso   1.00
F628   F     0.69445   0.14256   0.72541   0.00000  Uiso   1.00
F629   F     0.80551   0.35740   0.27445   0.00000  Uiso   1.00
F630   F     0.85741   0.30551   0.27447   0.00000  Uiso   1.00
F631   F     0.64256   0.19446   0.72542   0.00000  Uiso   1.00
F632   F     0.80560   0.14252   0.27477   0.00000  Uiso   1.00
F633   F     0.69447   0.35743   0.72549   0.00000  Uiso   1.00
F634   F     0.64259   0.19449   0.27446   0.00000  Uiso   1.00
F635   F     0.55554   0.10743   0.22546   0.00000  Uiso   1.00
F636   F     0.85744   0.30554   0.72542   0.00000  Uiso   1.00
F637   F     0.69440   0.35748   0.27477   0.00000  Uiso   1.00
F638   F     0.80553   0.14257   0.72549   0.00000  Uiso   1.00
F639   F     0.94440   0.39252   0.77478   0.00000  Uiso   1.00
F640   F     0.89256   0.05554   0.22542   0.00000  Uiso   1.00
F641   F     0.60740   0.44450   0.77443   0.00000  Uiso   1.00
F642   F     0.94446   0.39257   0.22546   0.00000  Uiso   1.00
F643   F     0.55560   0.10748   0.77478   0.00000  Uiso   1.00
F644   F     0.60749   0.05560   0.77479   0.00000  Uiso   1.00
H645   H     0.55763   0.26043   0.40267   0.00000  Uiso   1.00
H646   H     0.69167   0.00480   0.09731   0.00000  Uiso   1.00
H647   H     0.87858   0.37689   0.08345   0.00000  Uiso   1.00
H648   H     0.83511   0.43569   0.94620   0.00000  Uiso   1.00
H649   H     0.86441   0.44193   0.98829   0.00000  Uiso   1.00
H650   H     0.88557   0.45695   0.90320   0.00000  Uiso   1.00
H651   H     0.91481   0.46265   0.94491   0.00000  Uiso   1.00
H652   H     0.91042   0.39630   0.95965   0.00000  Uiso   1.00
H653   H     0.92577   0.40336   0.91041   0.00000  Uiso   1.00
H654   H     0.87925   0.38996   0.91936   0.00000  Uiso   1.00
H655   H     0.62199   0.47224   0.07717   0.00000  Uiso   1.00
H656   H     0.66263   0.45157   0.05918   0.00000  Uiso   1.00
H657   H     0.98943   0.30760   0.90267   0.00000  Uiso   1.00
H658   H     0.59388   0.46944   0.01018   0.00000  Uiso   1.00
H659   H     0.63412   0.44606   0.99308   0.00000  Uiso   1.00
H660   H     0.62339   0.39628   0.04211   0.00000  Uiso   1.00
H661   H     0.58605   0.40141   0.00854   0.00000  Uiso   1.00
H662   H     0.58190   0.41914   0.05722   0.00000  Uiso   1.00
H663   H     0.53536   0.35372   0.94422   0.00000  Uiso   1.00
H664   H     0.52161   0.37638   0.98884   0.00000  Uiso   1.00
H665   H     0.99733   0.39701   0.90607   0.00000  Uiso   1.00
H666   H     0.98268   0.41911   0.95023   0.00000  Uiso   1.00
H667   H     0.54619   0.43783   0.96479   0.00000  Uiso   1.00
H668   H     0.51237   0.19275   0.09731   0.00000  Uiso   1.00
H669   H     0.53305   0.45312   0.91710   0.00000  Uiso   1.00
H670   H     0.56258   0.41399   0.92209   0.00000  Uiso   1.00
H671   H     0.57211   0.16881   0.06304   0.00000  Uiso   1.00
H672   H     0.57391   0.15241   0.01333   0.00000  Uiso   1.00
H673   H     0.55585   0.10537   0.08491   0.00000  Uiso   1.00
H674   H     0.55852   0.08991   0.03526   0.00000  Uiso   1.00
H675   H     0.62453   0.10967   0.03299   0.00000  Uiso   1.00
H676   H     0.61587   0.07585   0.06994   0.00000  Uiso   1.00
H677   H     0.62142   0.12311   0.08345   0.00000  Uiso   1.00
H678   H     0.69173   0.00591   0.90274   0.00000  Uiso   1.00
H679   H     0.80833   0.49520   0.09731   0.00000  Uiso   1.00
H680   H     0.51057   0.19240   0.90268   0.00000  Uiso   1.00
H681   H     0.98763   0.30725   0.09731   0.00000  Uiso   1.00
H682   H     0.89669   0.28566   0.44396   0.00000  Uiso   1.00
H683   H     0.87376   0.27224   0.48854   0.00000  Uiso   1.00
H684   H     0.85327   0.24762   0.40583   0.00000  Uiso   1.00
H685   H     0.94271   0.23784   0.59730   0.00000  Uiso   1.00
H686   H     0.83079   0.23363   0.45002   0.00000  Uiso   1.00
H687   H     0.81277   0.29754   0.46380   0.00000  Uiso   1.00
H688   H     0.79747   0.28404   0.41623   0.00000  Uiso   1.00
H689   H     0.83693   0.31317   0.42098   0.00000  Uiso   1.00
H690   H     0.58146   0.32183   0.56298   0.00000  Uiso   1.00
H691   H     0.59799   0.32353   0.51331   0.00000  Uiso   1.00
H692   H     0.64476   0.30529   0.58504   0.00000  Uiso   1.00
H693   H     0.66036   0.30783   0.53543   0.00000  Uiso   1.00
H694   H     0.64094   0.37394   0.53303   0.00000  Uiso   1.00
H695   H     0.67463   0.36514   0.57008   0.00000  Uiso   1.00
H696   H     0.75568   0.05829   0.40275   0.00000  Uiso   1.00
H697   H     0.62736   0.37094   0.58345   0.00000  Uiso   1.00
H698   H     0.68604   0.41456   0.44620   0.00000  Uiso   1.00
H699   H     0.69243   0.38530   0.48829   0.00000  Uiso   1.00
H700   H     0.70754   0.36421   0.40321   0.00000  Uiso   1.00
H701   H     0.71344   0.33501   0.44491   0.00000  Uiso   1.00
H702   H     0.64708   0.33900   0.45971   0.00000  Uiso   1.00
H703   H     0.65418   0.32371   0.41045   0.00000  Uiso   1.00
H704   H     0.64052   0.37015   0.41943   0.00000  Uiso   1.00
H705   H     0.72181   0.12780   0.57729   0.00000  Uiso   1.00
H706   H     0.70125   0.08717   0.55914   0.00000  Uiso   1.00
H707   H     0.74537   0.44166   0.59731   0.00000  Uiso   1.00
H708   H     0.71896   0.15614   0.51044   0.00000  Uiso   1.00
H709   H     0.69570   0.11591   0.49314   0.00000  Uiso   1.00
H710   H     0.64586   0.12630   0.54217   0.00000  Uiso   1.00
H711   H     0.65092   0.16380   0.50880   0.00000  Uiso   1.00
H712   H     0.66859   0.16779   0.55750   0.00000  Uiso   1.00
H713   H     0.60340   0.21433   0.44407   0.00000  Uiso   1.00
H714   H     0.62629   0.22786   0.48864   0.00000  Uiso   1.00
H715   H     0.64678   0.25230   0.40587   0.00000  Uiso   1.00
H716   H     0.66919   0.26651   0.45002   0.00000  Uiso   1.00
H717   H     0.68739   0.20272   0.46408   0.00000  Uiso   1.00
H718   H     0.94238   0.23956   0.40267   0.00000  Uiso   1.00
H719   H     0.70265   0.21606   0.41644   0.00000  Uiso   1.00
H720   H     0.66328   0.18684   0.42134   0.00000  Uiso   1.00
H721   H     0.91851   0.17821   0.56299   0.00000  Uiso   1.00
H722   H     0.90196   0.17650   0.51332   0.00000  Uiso   1.00
H723   H     0.85524   0.19478   0.58507   0.00000  Uiso   1.00
H724   H     0.83961   0.19224   0.53547   0.00000  Uiso   1.00
H725   H     0.85899   0.12612   0.53307   0.00000  Uiso   1.00
H726   H     0.82533   0.13494   0.57014   0.00000  Uiso   1.00
H727   H     0.87260   0.12911   0.58349   0.00000  Uiso   1.00
H728   H     0.81396   0.08547   0.44622   0.00000  Uiso   1.00
H729   H     0.55729   0.26217   0.59731   0.00000  Uiso   1.00
H730   H     0.80754   0.11473   0.48831   0.00000  Uiso   1.00
H731   H     0.79246   0.13580   0.40321   0.00000  Uiso   1.00
H732   H     0.78650   0.16500   0.44491   0.00000  Uiso   1.00
H733   H     0.85285   0.16108   0.45976   0.00000  Uiso   1.00
H734   H     0.84577   0.17634   0.41049   0.00000  Uiso   1.00
H735   H     0.85947   0.12993   0.41950   0.00000  Uiso   1.00
H736   H     0.77816   0.37221   0.57732   0.00000  Uiso   1.00
H737   H     0.79873   0.41283   0.55915   0.00000  Uiso   1.00
H738   H     0.78104   0.34383   0.51048   0.00000  Uiso   1.00
H739   H     0.80429   0.38407   0.49317   0.00000  Uiso   1.00
H740   H     0.74432   0.44171   0.40274   0.00000  Uiso   1.00
H741   H     0.85412   0.37371   0.54222   0.00000  Uiso   1.00
H742   H     0.84908   0.33619   0.50887   0.00000  Uiso   1.00
H743   H     0.83140   0.33223   0.55757   0.00000  Uiso   1.00
H744   H     0.66489   0.06431   0.94619   0.00000  Uiso   1.00
H745   H     0.63559   0.05807   0.98828   0.00000  Uiso   1.00
H746   H     0.61442   0.04304   0.90320   0.00000  Uiso   1.00
H747   H     0.58519   0.03735   0.94492   0.00000  Uiso   1.00
H748   H     0.58959   0.10370   0.95965   0.00000  Uiso   1.00
H749   H     0.57423   0.09664   0.91041   0.00000  Uiso   1.00
H750   H     0.62075   0.11004   0.91935   0.00000  Uiso   1.00
H751   H     0.75462   0.05834   0.59731   0.00000  Uiso   1.00
H752   H     0.87801   0.02776   0.07717   0.00000  Uiso   1.00
H753   H     0.83736   0.04843   0.05918   0.00000  Uiso   1.00
H754   H     0.90612   0.03056   0.01018   0.00000  Uiso   1.00
H755   H     0.86588   0.05394   0.99308   0.00000  Uiso   1.00
H756   H     0.87661   0.10372   0.04211   0.00000  Uiso   1.00
H757   H     0.91395   0.09859   0.00854   0.00000  Uiso   1.00
H758   H     0.91810   0.08087   0.05722   0.00000  Uiso   1.00
H759   H     0.96463   0.14628   0.94423   0.00000  Uiso   1.00
H760   H     0.97839   0.12361   0.98885   0.00000  Uiso   1.00
H761   H     0.50266   0.10299   0.90607   0.00000  Uiso   1.00
H762   H     0.80827   0.49409   0.90274   0.00000  Uiso   1.00
H763   H     0.51732   0.08089   0.95023   0.00000  Uiso   1.00
H764   H     0.95382   0.06216   0.96480   0.00000  Uiso   1.00
H765   H     0.96695   0.04688   0.91711   0.00000  Uiso   1.00
H766   H     0.93741   0.08601   0.92211   0.00000  Uiso   1.00
H767   H     0.92789   0.33119   0.06304   0.00000  Uiso   1.00
H768   H     0.92608   0.34759   0.01333   0.00000  Uiso   1.00
H769   H     0.94415   0.39462   0.08492   0.00000  Uiso   1.00
H770   H     0.94148   0.41009   0.03526   0.00000  Uiso   1.00
H771   H     0.87547   0.39033   0.03299   0.00000  Uiso   1.00
H772   H     0.88413   0.42415   0.06994   0.00000  Uiso   1.00
O773   O     0.75000  -0.00000   0.25000   0.00000  Uiso   1.00
O774   O     0.75000   0.46963   0.66245   0.00000  Uiso   1.00
O775   O     0.96963   0.25000   0.33755   0.00000  Uiso   1.00
O776   O     0.53036   0.25000   0.66245   0.00000  Uiso   1.00
O777   O     0.50000   0.21963   0.83755   0.00000  Uiso   1.00
O778   O     0.50000   0.28036   0.16245   0.00000  Uiso   1.00
O779   O     0.78036  -0.00000   0.83755   0.00000  Uiso   1.00
O780   O     0.71963  -0.00000   0.16245   0.00000  Uiso   1.00
O781   O     0.50000   0.28036   0.83755   0.00000  Uiso   1.00
O782   O     0.50000   0.21963   0.16245   0.00000  Uiso   1.00
O783   O     0.71963  -0.00000   0.83755   0.00000  Uiso   1.00
O784   O     0.75000  -0.00000   0.75000   0.00000  Uiso   1.00
O785   O     0.78036  -0.00000   0.16245   0.00000  Uiso   1.00
O786   O     0.70724   0.07307   0.27302   0.00000  Uiso   1.00
O787   O     0.79275   0.42692   0.72698   0.00000  Uiso   1.00
O788   O     0.92692   0.20724   0.27302   0.00000  Uiso   1.00
O789   O     0.57307   0.29275   0.72698   0.00000  Uiso   1.00
O790   O     0.79275   0.42692   0.27302   0.00000  Uiso   1.00
O791   O     0.70724   0.07307   0.72698   0.00000  Uiso   1.00
O792   O     0.57307   0.29275   0.27302   0.00000  Uiso   1.00
O793   O     0.92692   0.20724   0.72698   0.00000  Uiso   1.00
O794   O     0.70724   0.42692   0.72698   0.00000  Uiso   1.00
O795   O     0.50000   0.25000   0.25000   0.00000  Uiso   1.00
O796   O     0.79275   0.07307   0.27302   0.00000  Uiso   1.00
O797   O     0.92692   0.29275   0.72698   0.00000  Uiso   1.00
O798   O     0.57307   0.20724   0.27302   0.00000  Uiso   1.00
O799   O     0.79275   0.07307   0.72698   0.00000  Uiso   1.00
O800   O     0.70724   0.42692   0.27302   0.00000  Uiso   1.00
O801   O     0.57307   0.20724   0.72698   0.00000  Uiso   1.00
O802   O     0.92692   0.29275   0.27302   0.00000  Uiso   1.00
O803   O     0.95724   0.32307   0.77302   0.00000  Uiso   1.00
O804   O     0.54275   0.17692   0.22698   0.00000  Uiso   1.00
O805   O     0.67692   0.45724   0.77302   0.00000  Uiso   1.00
O806   O     0.50000   0.25000   0.75000   0.00000  Uiso   1.00
O807   O     0.82307   0.04275   0.22698   0.00000  Uiso   1.00
O808   O     0.54275   0.17692   0.77302   0.00000  Uiso   1.00
O809   O     0.95724   0.32307   0.22698   0.00000  Uiso   1.00
O810   O     0.82307   0.04275   0.77302   0.00000  Uiso   1.00
O811   O     0.67692   0.45724   0.22698   0.00000  Uiso   1.00
O812   O     0.95724   0.17692   0.22698   0.00000  Uiso   1.00
O813   O     0.54275   0.32307   0.77302   0.00000  Uiso   1.00
O814   O     0.67692   0.04275   0.22698   0.00000  Uiso   1.00
O815   O     0.82307   0.45724   0.77302   0.00000  Uiso   1.00
O816   O     0.54275   0.32307   0.22698   0.00000  Uiso   1.00
O817   O     0.75000   0.46963   0.33755   0.00000  Uiso   1.00
O818   O     0.95724   0.17692   0.77302   0.00000  Uiso   1.00
O819   O     0.82307   0.45724   0.22698   0.00000  Uiso   1.00
O820   O     0.67692   0.04275   0.77302   0.00000  Uiso   1.00
O821   O     0.90218   0.23101   0.45969   0.00000  Uiso   1.00
O822   O     0.59730   0.27198   0.53996   0.00000  Uiso   1.00
O823   O     0.73993   0.40091   0.45975   0.00000  Uiso   1.00
O824   O     0.75472   0.09996   0.53958   0.00000  Uiso   1.00
O825   O     0.59782   0.26900   0.45969   0.00000  Uiso   1.00
O826   O     0.90269   0.22806   0.53996   0.00000  Uiso   1.00
O827   O     0.76005   0.09909   0.45975   0.00000  Uiso   1.00
O828   O     0.75000   0.03036   0.66245   0.00000  Uiso   1.00
O829   O     0.74526   0.40004   0.53958   0.00000  Uiso   1.00
O830   O     0.65096   0.01049   0.95975   0.00000  Uiso   1.00
O831   O     0.84994   0.49493   0.03957   0.00000  Uiso   1.00
O832   O     0.51930   0.15224   0.95969   0.00000  Uiso   1.00
O833   O     0.97765   0.34721   0.03996   0.00000  Uiso   1.00
O834   O     0.84904   0.48951   0.95975   0.00000  Uiso   1.00
O835   O     0.65006   0.00507   0.03957   0.00000  Uiso   1.00
O836   O     0.98070   0.34776   0.95969   0.00000  Uiso   1.00
O837   O     0.52235   0.15278   0.03996   0.00000  Uiso   1.00
O838   O     0.53036   0.25000   0.33755   0.00000  Uiso   1.00
O839   O     0.96963   0.25000   0.66245   0.00000  Uiso   1.00
O840   O     0.75000   0.03036   0.33755   0.00000  Uiso   1.00
Zn841  Zn    0.70659  -0.00000   0.21735   0.00000  Uiso   1.00
Zn842  Zn    0.54340   0.25000   0.28265   0.00000  Uiso   1.00
Zn843  Zn    0.75000   0.45659   0.71735   0.00000  Uiso   1.00
Zn844  Zn    0.75000   0.04340   0.28265   0.00000  Uiso   1.00
Zn845  Zn    0.54340   0.25000   0.71735   0.00000  Uiso   1.00
Zn846  Zn    0.95659   0.25000   0.28265   0.00000  Uiso   1.00
Zn847  Zn    0.75000   0.04340   0.71735   0.00000  Uiso   1.00
Zn848  Zn    0.75000   0.45659   0.28265   0.00000  Uiso   1.00
Zn849  Zn    0.79340  -0.00000   0.78265   0.00000  Uiso   1.00
Zn850  Zn    0.50000   0.20659   0.21735   0.00000  Uiso   1.00
Zn851  Zn    0.50000   0.29340   0.78265   0.00000  Uiso   1.00
Zn852  Zn    0.79340  -0.00000   0.21735   0.00000  Uiso   1.00
Zn853  Zn    0.70659  -0.00000   0.78265   0.00000  Uiso   1.00
Zn854  Zn    0.50000   0.29340   0.21735   0.00000  Uiso   1.00
Zn855  Zn    0.50000   0.20659   0.78265   0.00000  Uiso   1.00
Zn856  Zn    0.95659   0.25000   0.71735   0.00000  Uiso   1.00
C857   C     0.03258   0.75579   0.41865   0.00000  Uiso   1.00
C858   C     0.21701   0.50245   0.08132   0.00000  Uiso   1.00
C859   C     0.25184   0.53347   0.54077   0.00000  Uiso   1.00
C860   C     0.03296   0.75601   0.45921   0.00000  Uiso   1.00
C861   C     0.46725   0.74291   0.54076   0.00000  Uiso   1.00
C862   C     0.25318   0.53333   0.45926   0.00000  Uiso   1.00
C863   C     0.24815   0.96652   0.54077   0.00000  Uiso   1.00
C864   C     0.21668   0.50331   0.95925   0.00000  Uiso   1.00
C865   C     0.28347   0.99804   0.04076   0.00000  Uiso   1.00
C866   C     0.00610   0.71706   0.95921   0.00000  Uiso   1.00
C867   C     0.49279   0.78273   0.04077   0.00000  Uiso   1.00
C868   C     0.28332   0.99669   0.95925   0.00000  Uiso   1.00
C869   C     0.49413   0.78257   0.91865   0.00000  Uiso   1.00
C870   C     0.21653   0.50196   0.04076   0.00000  Uiso   1.00
C871   C     0.49389   0.78294   0.95921   0.00000  Uiso   1.00
C872   C     0.00720   0.71727   0.04077   0.00000  Uiso   1.00
C873   C     0.09809   0.84812   0.25005   0.00000  Uiso   1.00
C874   C     0.40191   0.65188   0.74997   0.00000  Uiso   1.00
C875   C     0.15190   0.59812   0.24997   0.00000  Uiso   1.00
C876   C     0.34809   0.90188   0.75005   0.00000  Uiso   1.00
C877   C     0.40191   0.65188   0.25005   0.00000  Uiso   1.00
C878   C     0.09809   0.84812   0.74997   0.00000  Uiso   1.00
C879   C     0.34810   0.90188   0.24997   0.00000  Uiso   1.00
C880   C     0.00696   0.71764   0.08133   0.00000  Uiso   1.00
C881   C     0.15191   0.59812   0.75005   0.00000  Uiso   1.00
C882   C     0.09812   0.65191   0.75005   0.00000  Uiso   1.00
C883   C     0.40188   0.84809   0.24997   0.00000  Uiso   1.00
C884   C     0.15188   0.90190   0.74997   0.00000  Uiso   1.00
C885   C     0.34812   0.59809   0.25005   0.00000  Uiso   1.00
C886   C     0.40188   0.84809   0.75005   0.00000  Uiso   1.00
C887   C     0.09812   0.65191   0.24997   0.00000  Uiso   1.00
C888   C     0.34812   0.59809   0.74997   0.00000  Uiso   1.00
C889   C     0.15188   0.90191   0.25005   0.00000  Uiso   1.00
C890   C     0.00000   0.75000   0.47962   0.00000  Uiso   1.00
C891   C     0.21709   0.50334   0.91869   0.00000  Uiso   1.00
C892   C    -0.00000   0.75000   0.52036   0.00000  Uiso   1.00
C893   C     0.25000   0.50000   0.47965   0.00000  Uiso   1.00
C894   C     0.25000   0.50000   0.52038   0.00000  Uiso   1.00
C895   C     0.25000   0.50000   0.97965   0.00000  Uiso   1.00
C896   C     0.25000   0.50000   0.02038   0.00000  Uiso   1.00
C897   C    -0.00000   0.75000   0.97962   0.00000  Uiso   1.00
C898   C    -0.00000   0.75000   0.02037   0.00000  Uiso   1.00
C899   C     0.38126   0.76336   0.45865   0.00000  Uiso   1.00
C900   C     0.34621   0.75612   0.43589   0.00000  Uiso   1.00
C901   C     0.32194   0.78993   0.43418   0.00000  Uiso   1.00
C902   C     0.28299   0.99755   0.08132   0.00000  Uiso   1.00
C903   C     0.10165   0.81023   0.54219   0.00000  Uiso   1.00
C904   C     0.14017   0.81876   0.55654   0.00000  Uiso   1.00
C905   C     0.14605   0.85978   0.56101   0.00000  Uiso   1.00
C906   C     0.20252   0.89175   0.45860   0.00000  Uiso   1.00
C907   C     0.19737   0.85815   0.43293   0.00000  Uiso   1.00
C908   C     0.15725   0.84715   0.43059   0.00000  Uiso   1.00
C909   C     0.21910   0.61061   0.55088   0.00000  Uiso   1.00
C910   C     0.20072   0.63329   0.51901   0.00000  Uiso   1.00
C911   C     0.16428   0.64873   0.53285   0.00000  Uiso   1.00
C912   C     0.11879   0.73667   0.45873   0.00000  Uiso   1.00
C913   C     0.00587   0.71743   0.91866   0.00000  Uiso   1.00
C914   C     0.15384   0.74392   0.43597   0.00000  Uiso   1.00
C915   C     0.17819   0.71018   0.43442   0.00000  Uiso   1.00
C916   C     0.39832   0.68981   0.54221   0.00000  Uiso   1.00
C917   C     0.35981   0.68130   0.55657   0.00000  Uiso   1.00
C918   C     0.35391   0.64028   0.56106   0.00000  Uiso   1.00
C919   C     0.29746   0.60827   0.45861   0.00000  Uiso   1.00
C920   C     0.30260   0.64187   0.43294   0.00000  Uiso   1.00
C921   C     0.34271   0.65291   0.43063   0.00000  Uiso   1.00
C922   C     0.28089   0.88939   0.55090   0.00000  Uiso   1.00
C923   C     0.29927   0.86670   0.51905   0.00000  Uiso   1.00
C924   C     0.49304   0.78236   0.08133   0.00000  Uiso   1.00
C925   C     0.33571   0.85127   0.53291   0.00000  Uiso   1.00
C926   C     0.14199   0.54795   0.95859   0.00000  Uiso   1.00
C927   C     0.10842   0.55327   0.93292   0.00000  Uiso   1.00
C928   C     0.09766   0.59345   0.93054   0.00000  Uiso   1.00
C929   C     0.36073   0.53053   0.05083   0.00000  Uiso   1.00
C930   C     0.38335   0.54886   0.01887   0.00000  Uiso   1.00
C931   C     0.39894   0.58525   0.03266   0.00000  Uiso   1.00
C932   C     0.48710   0.63107   0.95889   0.00000  Uiso   1.00
C933   C     0.49452   0.59599   0.93625   0.00000  Uiso   1.00
C934   C     0.46098   0.57133   0.93505   0.00000  Uiso   1.00
C935   C     0.00000   0.75000   0.39840   0.00000  Uiso   1.00
C936   C     0.43938   0.85139   0.04220   0.00000  Uiso   1.00
C937   C     0.43067   0.88990   0.05644   0.00000  Uiso   1.00
C938   C     0.38962   0.89558   0.06094   0.00000  Uiso   1.00
C939   C     0.35801   0.95205   0.95859   0.00000  Uiso   1.00
C940   C     0.39157   0.94672   0.93292   0.00000  Uiso   1.00
C941   C     0.40234   0.90654   0.93054   0.00000  Uiso   1.00
C942   C     0.13927   0.96947   0.05082   0.00000  Uiso   1.00
C943   C     0.11665   0.95114   0.01886   0.00000  Uiso   1.00
C944   C     0.10106   0.91475   0.03266   0.00000  Uiso   1.00
C945   C     0.01289   0.86893   0.95889   0.00000  Uiso   1.00
C946   C    -0.00000   0.75000   0.60158   0.00000  Uiso   1.00
C947   C     0.00548   0.90401   0.93625   0.00000  Uiso   1.00
C948   C     0.03901   0.92866   0.93504   0.00000  Uiso   1.00
C949   C     0.06062   0.64861   0.04220   0.00000  Uiso   1.00
C950   C     0.06933   0.61010   0.05644   0.00000  Uiso   1.00
C951   C     0.11037   0.60442   0.06094   0.00000  Uiso   1.00
C952   C     0.25000   0.50000   0.39843   0.00000  Uiso   1.00
C953   C     0.46762   0.74316   0.58132   0.00000  Uiso   1.00
C954   C     0.25000   0.50000   0.60158   0.00000  Uiso   1.00
C955   C     0.25000   0.50000   0.89842   0.00000  Uiso   1.00
C956   C     0.25000   0.50000   0.10158   0.00000  Uiso   1.00
C957   C    -0.00000   0.75000   0.89840   0.00000  Uiso   1.00
C958   C    -0.00000   0.75000   0.10159   0.00000  Uiso   1.00
C959   C     0.43429   0.73783   0.47959   0.00000  Uiso   1.00
C960   C     0.06524   0.76444   0.52031   0.00000  Uiso   1.00
C961   C     0.24372   0.93350   0.47965   0.00000  Uiso   1.00
C962   C     0.25338   0.56681   0.52025   0.00000  Uiso   1.00
C963   C     0.06571   0.76217   0.47959   0.00000  Uiso   1.00
C964   C     0.25321   0.53293   0.41870   0.00000  Uiso   1.00
C965   C     0.43476   0.73558   0.52030   0.00000  Uiso   1.00
C966   C     0.25628   0.56650   0.47965   0.00000  Uiso   1.00
C967   C     0.24661   0.93319   0.52025   0.00000  Uiso   1.00
C968   C     0.18353   0.50654   0.97965   0.00000  Uiso   1.00
C969   C     0.31680   0.99638   0.02025   0.00000  Uiso   1.00
C970   C     0.01236   0.68433   0.97960   0.00000  Uiso   1.00
C971   C     0.48534   0.81519   0.02031   0.00000  Uiso   1.00
C972   C     0.31647   0.99346   0.97965   0.00000  Uiso   1.00
C973   C     0.18320   0.50362   0.02025   0.00000  Uiso   1.00
C974   C     0.48763   0.81567   0.97960   0.00000  Uiso   1.00
C975   C     0.24764   0.96701   0.58132   0.00000  Uiso   1.00
C976   C     0.01465   0.68481   0.02031   0.00000  Uiso   1.00
C977   C     0.25000   0.50000   0.35597   0.00000  Uiso   1.00
C978   C     0.25000   0.50000   0.64403   0.00000  Uiso   1.00
C979   C     0.00000   0.75000   0.35596   0.00000  Uiso   1.00
C980   C    -0.00000   0.75000   0.64403   0.00000  Uiso   1.00
C981   C    -0.00000   0.75000   0.85596   0.00000  Uiso   1.00
C982   C     0.00000   0.75000   0.14403   0.00000  Uiso   1.00
C983   C     0.25000   0.50000   0.85597   0.00000  Uiso   1.00
C984   C     0.25000   0.50000   0.14403   0.00000  Uiso   1.00
C985   C     0.17996   0.57005   0.24999   0.00000  Uiso   1.00
C986   C     0.46742   0.74420   0.41865   0.00000  Uiso   1.00
C987   C     0.32004   0.92995   0.75001   0.00000  Uiso   1.00
C988   C     0.42996   0.67995   0.25001   0.00000  Uiso   1.00
C989   C     0.07004   0.82005   0.74999   0.00000  Uiso   1.00
C990   C     0.32004   0.92995   0.24999   0.00000  Uiso   1.00
C991   C     0.17996   0.57005   0.75001   0.00000  Uiso   1.00
C992   C     0.07004   0.82005   0.25001   0.00000  Uiso   1.00
C993   C     0.42996   0.67995   0.74999   0.00000  Uiso   1.00
C994   C     0.17995   0.92996   0.74999   0.00000  Uiso   1.00
C995   C     0.32005   0.57004   0.25001   0.00000  Uiso   1.00
C996   C     0.42995   0.82004   0.75001   0.00000  Uiso   1.00
C997   C     0.03238   0.75685   0.58133   0.00000  Uiso   1.00
C998   C     0.07005   0.67996   0.24999   0.00000  Uiso   1.00
C999   C     0.32005   0.57004   0.74999   0.00000  Uiso   1.00
C1000  C     0.17995   0.92996   0.25001   0.00000  Uiso   1.00
C1001  C     0.07005   0.67996   0.75001   0.00000  Uiso   1.00
C1002  C     0.42995   0.82004   0.24999   0.00000  Uiso   1.00
C1003  C     0.11649   0.91025   0.23716   0.00000  Uiso   1.00
C1004  C     0.38353   0.58974   0.76278   0.00000  Uiso   1.00
C1005  C     0.08977   0.61651   0.23714   0.00000  Uiso   1.00
C1006  C     0.41020   0.88346   0.76300   0.00000  Uiso   1.00
C1007  C     0.38351   0.58975   0.23716   0.00000  Uiso   1.00
C1008  C     0.24679   0.96707   0.41870   0.00000  Uiso   1.00
C1009  C     0.11647   0.91026   0.76278   0.00000  Uiso   1.00
C1010  C     0.41023   0.88349   0.23713   0.00000  Uiso   1.00
C1011  C     0.08980   0.61654   0.76300   0.00000  Uiso   1.00
C1012  C     0.11654   0.58980   0.76300   0.00000  Uiso   1.00
C1013  C     0.38349   0.91023   0.23714   0.00000  Uiso   1.00
C1014  C     0.08974   0.88352   0.76278   0.00000  Uiso   1.00
C1015  C     0.41024   0.61649   0.23716   0.00000  Uiso   1.00
C1016  C     0.38346   0.91020   0.76300   0.00000  Uiso   1.00
C1017  C     0.11651   0.58977   0.23714   0.00000  Uiso   1.00
C1018  C     0.41026   0.61648   0.76278   0.00000  Uiso   1.00
C1019  C     0.25235   0.53299   0.58132   0.00000  Uiso   1.00
C1020  C     0.08975   0.88351   0.23716   0.00000  Uiso   1.00
C1021  C     0.36650   0.66023   0.73714   0.00000  Uiso   1.00
C1022  C     0.13347   0.83980   0.26299   0.00000  Uiso   1.00
C1023  C     0.33976   0.86649   0.73715   0.00000  Uiso   1.00
C1024  C     0.16026   0.63352   0.26279   0.00000  Uiso   1.00
C1025  C     0.13349   0.83977   0.73714   0.00000  Uiso   1.00
C1026  C     0.36653   0.66020   0.26299   0.00000  Uiso   1.00
C1027  C     0.16024   0.63350   0.73716   0.00000  Uiso   1.00
C1028  C     0.33974   0.86648   0.26279   0.00000  Uiso   1.00
C1029  C     0.36648   0.83974   0.26279   0.00000  Uiso   1.00
C1030  C     0.28291   0.99666   0.91870   0.00000  Uiso   1.00
C1031  C     0.13351   0.66024   0.73716   0.00000  Uiso   1.00
C1032  C     0.33980   0.63346   0.26299   0.00000  Uiso   1.00
C1033  C     0.16023   0.86650   0.73715   0.00000  Uiso   1.00
C1034  C     0.13352   0.66026   0.26279   0.00000  Uiso   1.00
C1035  C     0.36649   0.83976   0.73716   0.00000  Uiso   1.00
C1036  C     0.16020   0.86653   0.26299   0.00000  Uiso   1.00
C1037  C     0.33977   0.63350   0.73715   0.00000  Uiso   1.00
C1038  C     0.46704   0.74398   0.45921   0.00000  Uiso   1.00
C1039  C     0.03275   0.75709   0.54076   0.00000  Uiso   1.00
C1040  C     0.24683   0.96667   0.45926   0.00000  Uiso   1.00
F1041  F     0.10744   0.94446   0.22542   0.00000  Uiso   1.00
F1042  F     0.39257   0.94446   0.22547   0.00000  Uiso   1.00
F1043  F     0.05550   0.89260   0.77444   0.00000  Uiso   1.00
F1044  F     0.44446   0.60743   0.22543   0.00000  Uiso   1.00
F1045  F     0.39251   0.94440   0.77479   0.00000  Uiso   1.00
F1046  F     0.10743   0.55554   0.22547   0.00000  Uiso   1.00
F1047  F     0.44450   0.60740   0.77444   0.00000  Uiso   1.00
F1048  F     0.05554   0.89257   0.22543   0.00000  Uiso   1.00
F1049  F     0.35743   0.69446   0.72548   0.00000  Uiso   1.00
F1050  F     0.14252   0.80559   0.27477   0.00000  Uiso   1.00
F1051  F     0.30555   0.85744   0.72541   0.00000  Uiso   1.00
F1052  F     0.39260   0.55550   0.77443   0.00000  Uiso   1.00
F1053  F     0.19449   0.64260   0.27445   0.00000  Uiso   1.00
F1054  F     0.14257   0.80553   0.72548   0.00000  Uiso   1.00
F1055  F     0.35748   0.69441   0.27476   0.00000  Uiso   1.00
F1056  F     0.19445   0.64256   0.72541   0.00000  Uiso   1.00
F1057  F     0.30551   0.85740   0.27445   0.00000  Uiso   1.00
F1058  F     0.35741   0.80551   0.27447   0.00000  Uiso   1.00
F1059  F     0.14256   0.69446   0.72542   0.00000  Uiso   1.00
F1060  F     0.30560   0.64252   0.27477   0.00000  Uiso   1.00
F1061  F     0.19447   0.85743   0.72549   0.00000  Uiso   1.00
F1062  F     0.14259   0.69449   0.27446   0.00000  Uiso   1.00
F1063  F     0.05554   0.60743   0.22546   0.00000  Uiso   1.00
F1064  F     0.35744   0.80554   0.72542   0.00000  Uiso   1.00
F1065  F     0.19440   0.85748   0.27477   0.00000  Uiso   1.00
F1066  F     0.30553   0.64257   0.72549   0.00000  Uiso   1.00
F1067  F     0.44440   0.89252   0.77478   0.00000  Uiso   1.00
F1068  F     0.39256   0.55554   0.22542   0.00000  Uiso   1.00
F1069  F     0.10740   0.94450   0.77443   0.00000  Uiso   1.00
F1070  F     0.44446   0.89257   0.22546   0.00000  Uiso   1.00
F1071  F     0.05560   0.60748   0.77478   0.00000  Uiso   1.00
F1072  F     0.10749   0.55560   0.77479   0.00000  Uiso   1.00
H1073  H     0.05763   0.76043   0.40267   0.00000  Uiso   1.00
H1074  H     0.19167   0.50480   0.09731   0.00000  Uiso   1.00
H1075  H     0.37858   0.87689   0.08345   0.00000  Uiso   1.00
H1076  H     0.33511   0.93569   0.94620   0.00000  Uiso   1.00
H1077  H     0.36441   0.94193   0.98829   0.00000  Uiso   1.00
H1078  H     0.38557   0.95695   0.90320   0.00000  Uiso   1.00
H1079  H     0.41481   0.96265   0.94491   0.00000  Uiso   1.00
H1080  H     0.41042   0.89630   0.95965   0.00000  Uiso   1.00
H1081  H     0.42577   0.90336   0.91041   0.00000  Uiso   1.00
H1082  H     0.37925   0.88996   0.91936   0.00000  Uiso   1.00
H1083  H     0.12199   0.97224   0.07717   0.00000  Uiso   1.00
H1084  H     0.16263   0.95157   0.05918   0.00000  Uiso   1.00
H1085  H     0.48943   0.80760   0.90267   0.00000  Uiso   1.00
H1086  H     0.09388   0.96944   0.01018   0.00000  Uiso   1.00
H1087  H     0.13412   0.94606   0.99308   0.00000  Uiso   1.00
H1088  H     0.12339   0.89628   0.04211   0.00000  Uiso   1.00
H1089  H     0.08605   0.90141   0.00854   0.00000  Uiso   1.00
H1090  H     0.08190   0.91914   0.05722   0.00000  Uiso   1.00
H1091  H     0.03536   0.85372   0.94422   0.00000  Uiso   1.00
H1092  H     0.02161   0.87638   0.98884   0.00000  Uiso   1.00
H1093  H     0.49733   0.89701   0.90607   0.00000  Uiso   1.00
H1094  H     0.48268   0.91911   0.95023   0.00000  Uiso   1.00
H1095  H     0.04619   0.93783   0.96479   0.00000  Uiso   1.00
H1096  H     0.01237   0.69275   0.09731   0.00000  Uiso   1.00
H1097  H     0.03305   0.95312   0.91710   0.00000  Uiso   1.00
H1098  H     0.06258   0.91399   0.92209   0.00000  Uiso   1.00
H1099  H     0.07211   0.66881   0.06304   0.00000  Uiso   1.00
H1100  H     0.07391   0.65241   0.01333   0.00000  Uiso   1.00
H1101  H     0.05585   0.60537   0.08491   0.00000  Uiso   1.00
H1102  H     0.05852   0.58991   0.03526   0.00000  Uiso   1.00
H1103  H     0.12453   0.60967   0.03299   0.00000  Uiso   1.00
H1104  H     0.11587   0.57585   0.06994   0.00000  Uiso   1.00
H1105  H     0.12142   0.62311   0.08345   0.00000  Uiso   1.00
H1106  H     0.19173   0.50591   0.90274   0.00000  Uiso   1.00
H1107  H     0.30833   0.99520   0.09731   0.00000  Uiso   1.00
H1108  H     0.01057   0.69240   0.90268   0.00000  Uiso   1.00
H1109  H     0.48763   0.80725   0.09731   0.00000  Uiso   1.00
H1110  H     0.39669   0.78566   0.44396   0.00000  Uiso   1.00
H1111  H     0.37376   0.77224   0.48854   0.00000  Uiso   1.00
H1112  H     0.35327   0.74762   0.40583   0.00000  Uiso   1.00
H1113  H     0.44271   0.73784   0.59730   0.00000  Uiso   1.00
H1114  H     0.33079   0.73363   0.45002   0.00000  Uiso   1.00
H1115  H     0.31277   0.79754   0.46380   0.00000  Uiso   1.00
H1116  H     0.29747   0.78404   0.41623   0.00000  Uiso   1.00
H1117  H     0.33693   0.81317   0.42098   0.00000  Uiso   1.00
H1118  H     0.08146   0.82183   0.56298   0.00000  Uiso   1.00
H1119  H     0.09799   0.82353   0.51331   0.00000  Uiso   1.00
H1120  H     0.14476   0.80529   0.58504   0.00000  Uiso   1.00
H1121  H     0.16036   0.80783   0.53543   0.00000  Uiso   1.00
H1122  H     0.14094   0.87394   0.53303   0.00000  Uiso   1.00
H1123  H     0.17463   0.86514   0.57008   0.00000  Uiso   1.00
H1124  H     0.25568   0.55829   0.40275   0.00000  Uiso   1.00
H1125  H     0.12736   0.87094   0.58345   0.00000  Uiso   1.00
H1126  H     0.18604   0.91456   0.44620   0.00000  Uiso   1.00
H1127  H     0.19243   0.88530   0.48829   0.00000  Uiso   1.00
H1128  H     0.20754   0.86421   0.40321   0.00000  Uiso   1.00
H1129  H     0.21344   0.83501   0.44491   0.00000  Uiso   1.00
H1130  H     0.14708   0.83900   0.45971   0.00000  Uiso   1.00
H1131  H     0.15418   0.82371   0.41045   0.00000  Uiso   1.00
H1132  H     0.14052   0.87015   0.41943   0.00000  Uiso   1.00
H1133  H     0.22181   0.62780   0.57729   0.00000  Uiso   1.00
H1134  H     0.20125   0.58717   0.55914   0.00000  Uiso   1.00
H1135  H     0.24537   0.94166   0.59731   0.00000  Uiso   1.00
H1136  H     0.21896   0.65614   0.51044   0.00000  Uiso   1.00
H1137  H     0.19570   0.61591   0.49314   0.00000  Uiso   1.00
H1138  H     0.14586   0.62630   0.54217   0.00000  Uiso   1.00
H1139  H     0.15092   0.66380   0.50880   0.00000  Uiso   1.00
H1140  H     0.16859   0.66779   0.55750   0.00000  Uiso   1.00
H1141  H     0.10340   0.71433   0.44407   0.00000  Uiso   1.00
H1142  H     0.12629   0.72786   0.48864   0.00000  Uiso   1.00
H1143  H     0.14678   0.75230   0.40587   0.00000  Uiso   1.00
H1144  H     0.16919   0.76651   0.45002   0.00000  Uiso   1.00
H1145  H     0.18739   0.70272   0.46408   0.00000  Uiso   1.00
H1146  H     0.44238   0.73956   0.40267   0.00000  Uiso   1.00
H1147  H     0.20265   0.71606   0.41644   0.00000  Uiso   1.00
H1148  H     0.16328   0.68684   0.42134   0.00000  Uiso   1.00
H1149  H     0.41851   0.67821   0.56299   0.00000  Uiso   1.00
H1150  H     0.40196   0.67650   0.51332   0.00000  Uiso   1.00
H1151  H     0.35524   0.69478   0.58507   0.00000  Uiso   1.00
H1152  H     0.33961   0.69224   0.53547   0.00000  Uiso   1.00
H1153  H     0.35899   0.62612   0.53307   0.00000  Uiso   1.00
H1154  H     0.32533   0.63494   0.57014   0.00000  Uiso   1.00
H1155  H     0.37260   0.62911   0.58349   0.00000  Uiso   1.00
H1156  H     0.31396   0.58547   0.44622   0.00000  Uiso   1.00
H1157  H     0.05729   0.76217   0.59731   0.00000  Uiso   1.00
H1158  H     0.30754   0.61473   0.48831   0.00000  Uiso   1.00
H1159  H     0.29246   0.63580   0.40321   0.00000  Uiso   1.00
H1160  H     0.28650   0.66500   0.44491   0.00000  Uiso   1.00
H1161  H     0.35285   0.66108   0.45976   0.00000  Uiso   1.00
H1162  H     0.34577   0.67634   0.41049   0.00000  Uiso   1.00
H1163  H     0.35947   0.62993   0.41950   0.00000  Uiso   1.00
H1164  H     0.27816   0.87221   0.57732   0.00000  Uiso   1.00
H1165  H     0.29873   0.91283   0.55915   0.00000  Uiso   1.00
H1166  H     0.28104   0.84383   0.51048   0.00000  Uiso   1.00
H1167  H     0.30429   0.88407   0.49317   0.00000  Uiso   1.00
H1168  H     0.24432   0.94171   0.40274   0.00000  Uiso   1.00
H1169  H     0.35412   0.87371   0.54222   0.00000  Uiso   1.00
H1170  H     0.34908   0.83619   0.50887   0.00000  Uiso   1.00
H1171  H     0.33140   0.83223   0.55757   0.00000  Uiso   1.00
H1172  H     0.16489   0.56431   0.94619   0.00000  Uiso   1.00
H1173  H     0.13559   0.55807   0.98828   0.00000  Uiso   1.00
H1174  H     0.11442   0.54304   0.90320   0.00000  Uiso   1.00
H1175  H     0.08519   0.53735   0.94492   0.00000  Uiso   1.00
H1176  H     0.08959   0.60370   0.95965   0.00000  Uiso   1.00
H1177  H     0.07423   0.59664   0.91041   0.00000  Uiso   1.00
H1178  H     0.12075   0.61004   0.91935   0.00000  Uiso   1.00
H1179  H     0.25462   0.55834   0.59731   0.00000  Uiso   1.00
H1180  H     0.37801   0.52776   0.07717   0.00000  Uiso   1.00
H1181  H     0.33736   0.54843   0.05918   0.00000  Uiso   1.00
H1182  H     0.40612   0.53056   0.01018   0.00000  Uiso   1.00
H1183  H     0.36588   0.55394   0.99308   0.00000  Uiso   1.00
H1184  H     0.37661   0.60372   0.04211   0.00000  Uiso   1.00
H1185  H     0.41395   0.59859   0.00854   0.00000  Uiso   1.00
H1186  H     0.41810   0.58087   0.05722   0.00000  Uiso   1.00
H1187  H     0.46463   0.64628   0.94423   0.00000  Uiso   1.00
H1188  H     0.47839   0.62361   0.98885   0.00000  Uiso   1.00
H1189  H     0.00266   0.60299   0.90607   0.00000  Uiso   1.00
H1190  H     0.30827   0.99409   0.90274   0.00000  Uiso   1.00
H1191  H     0.01732   0.58089   0.95023   0.00000  Uiso   1.00
H1192  H     0.45382   0.56216   0.96480   0.00000  Uiso   1.00
H1193  H     0.46695   0.54688   0.91711   0.00000  Uiso   1.00
H1194  H     0.43741   0.58601   0.92211   0.00000  Uiso   1.00
H1195  H     0.42789   0.83119   0.06304   0.00000  Uiso   1.00
H1196  H     0.42608   0.84759   0.01333   0.00000  Uiso   1.00
H1197  H     0.44415   0.89462   0.08492   0.00000  Uiso   1.00
H1198  H     0.44148   0.91009   0.03526   0.00000  Uiso   1.00
H1199  H     0.37547   0.89033   0.03299   0.00000  Uiso   1.00
H1200  H     0.38413   0.92415   0.06994   0.00000  Uiso   1.00
O1201  O     0.25000   0.50000   0.25000   0.00000  Uiso   1.00
O1202  O     0.25000   0.96963   0.66245   0.00000  Uiso   1.00
O1203  O     0.46963   0.75000   0.33755   0.00000  Uiso   1.00
O1204  O     0.03036   0.75000   0.66245   0.00000  Uiso   1.00
O1205  O     0.00000   0.71963   0.83755   0.00000  Uiso   1.00
O1206  O     0.00000   0.78036   0.16245   0.00000  Uiso   1.00
O1207  O     0.28036   0.50000   0.83755   0.00000  Uiso   1.00
O1208  O     0.21963   0.50000   0.16245   0.00000  Uiso   1.00
O1209  O     0.00000   0.78036   0.83755   0.00000  Uiso   1.00
O1210  O     0.00000   0.71963   0.16245   0.00000  Uiso   1.00
O1211  O     0.21963   0.50000   0.83755   0.00000  Uiso   1.00
O1212  O     0.25000   0.50000   0.75000   0.00000  Uiso   1.00
O1213  O     0.28036   0.50000   0.16245   0.00000  Uiso   1.00
O1214  O     0.20724   0.57307   0.27302   0.00000  Uiso   1.00
O1215  O     0.29275   0.92692   0.72698   0.00000  Uiso   1.00
O1216  O     0.42692   0.70724   0.27302   0.00000  Uiso   1.00
O1217  O     0.07307   0.79275   0.72698   0.00000  Uiso   1.00
O1218  O     0.29275   0.92692   0.27302   0.00000  Uiso   1.00
O1219  O     0.20724   0.57307   0.72698   0.00000  Uiso   1.00
O1220  O     0.07307   0.79275   0.27302   0.00000  Uiso   1.00
O1221  O     0.42692   0.70724   0.72698   0.00000  Uiso   1.00
O1222  O     0.20724   0.92692   0.72698   0.00000  Uiso   1.00
O1223  O     0.00000   0.75000   0.25000   0.00000  Uiso   1.00
O1224  O     0.29275   0.57307   0.27302   0.00000  Uiso   1.00
O1225  O     0.42692   0.79275   0.72698   0.00000  Uiso   1.00
O1226  O     0.07307   0.70724   0.27302   0.00000  Uiso   1.00
O1227  O     0.29275   0.57307   0.72698   0.00000  Uiso   1.00
O1228  O     0.20724   0.92692   0.27302   0.00000  Uiso   1.00
O1229  O     0.07307   0.70724   0.72698   0.00000  Uiso   1.00
O1230  O     0.42692   0.79275   0.27302   0.00000  Uiso   1.00
O1231  O     0.45724   0.82307   0.77302   0.00000  Uiso   1.00
O1232  O     0.04275   0.67692   0.22698   0.00000  Uiso   1.00
O1233  O     0.17692   0.95724   0.77302   0.00000  Uiso   1.00
O1234  O     0.00000   0.75000   0.75000   0.00000  Uiso   1.00
O1235  O     0.32307   0.54275   0.22698   0.00000  Uiso   1.00
O1236  O     0.04275   0.67692   0.77302   0.00000  Uiso   1.00
O1237  O     0.45724   0.82307   0.22698   0.00000  Uiso   1.00
O1238  O     0.32307   0.54275   0.77302   0.00000  Uiso   1.00
O1239  O     0.17692   0.95724   0.22698   0.00000  Uiso   1.00
O1240  O     0.45724   0.67692   0.22698   0.00000  Uiso   1.00
O1241  O     0.04275   0.82307   0.77302   0.00000  Uiso   1.00
O1242  O     0.17692   0.54275   0.22698   0.00000  Uiso   1.00
O1243  O     0.32307   0.95724   0.77302   0.00000  Uiso   1.00
O1244  O     0.04275   0.82307   0.22698   0.00000  Uiso   1.00
O1245  O     0.25000   0.96963   0.33755   0.00000  Uiso   1.00
O1246  O     0.45724   0.67692   0.77302   0.00000  Uiso   1.00
O1247  O     0.32307   0.95724   0.22698   0.00000  Uiso   1.00
O1248  O     0.17692   0.54275   0.77302   0.00000  Uiso   1.00
O1249  O     0.40218   0.73101   0.45969   0.00000  Uiso   1.00
O1250  O     0.09730   0.77198   0.53996   0.00000  Uiso   1.00
O1251  O     0.23993   0.90091   0.45975   0.00000  Uiso   1.00
O1252  O     0.25472   0.59996   0.53958   0.00000  Uiso   1.00
O1253  O     0.09782   0.76900   0.45969   0.00000  Uiso   1.00
O1254  O     0.40269   0.72806   0.53996   0.00000  Uiso   1.00
O1255  O     0.26005   0.59909   0.45975   0.00000  Uiso   1.00
O1256  O     0.25000   0.53036   0.66245   0.00000  Uiso   1.00
O1257  O     0.24526   0.90004   0.53958   0.00000  Uiso   1.00
O1258  O     0.15096   0.51049   0.95975   0.00000  Uiso   1.00
O1259  O     0.34994   0.99493   0.03957   0.00000  Uiso   1.00
O1260  O     0.01930   0.65224   0.95969   0.00000  Uiso   1.00
O1261  O     0.47765   0.84721   0.03996   0.00000  Uiso   1.00
O1262  O     0.34904   0.98951   0.95975   0.00000  Uiso   1.00
O1263  O     0.15006   0.50507   0.03957   0.00000  Uiso   1.00
O1264  O     0.48070   0.84776   0.95969   0.00000  Uiso   1.00
O1265  O     0.02235   0.65278   0.03996   0.00000  Uiso   1.00
O1266  O     0.03036   0.75000   0.33755   0.00000  Uiso   1.00
O1267  O     0.46963   0.75000   0.66245   0.00000  Uiso   1.00
O1268  O     0.25000   0.53036   0.33755   0.00000  Uiso   1.00
Zn1269 Zn    0.20659   0.50000   0.21735   0.00000  Uiso   1.00
Zn1270 Zn    0.04340   0.75000   0.28265   0.00000  Uiso   1.00
Zn1271 Zn    0.25000   0.95659   0.71735   0.00000  Uiso   1.00
Zn1272 Zn    0.25000   0.54340   0.28265   0.00000  Uiso   1.00
Zn1273 Zn    0.04340   0.75000   0.71735   0.00000  Uiso   1.00
Zn1274 Zn    0.45659   0.75000   0.28265   0.00000  Uiso   1.00
Zn1275 Zn    0.25000   0.54340   0.71735   0.00000  Uiso   1.00
Zn1276 Zn    0.25000   0.95659   0.28265   0.00000  Uiso   1.00
Zn1277 Zn    0.29340   0.50000   0.78265   0.00000  Uiso   1.00
Zn1278 Zn    0.00000   0.70659   0.21735   0.00000  Uiso   1.00
Zn1279 Zn    0.00000   0.79340   0.78265   0.00000  Uiso   1.00
Zn1280 Zn    0.29340   0.50000   0.21735   0.00000  Uiso   1.00
Zn1281 Zn    0.20659   0.50000   0.78265   0.00000  Uiso   1.00
Zn1282 Zn    0.00000   0.79340   0.21735   0.00000  Uiso   1.00
Zn1283 Zn    0.00000   0.70659   0.78265   0.00000  Uiso   1.00
Zn1284 Zn    0.45659   0.75000   0.71735   0.00000  Uiso   1.00
C1285  C     0.53258   0.75579   0.41865   0.00000  Uiso   1.00
C1286  C     0.71701   0.50245   0.08132   0.00000  Uiso   1.00
C1287  C     0.75184   0.53347   0.54077   0.00000  Uiso   1.00
C1288  C     0.53296   0.75601   0.45921   0.00000  Uiso   1.00
C1289  C     0.96725   0.74291   0.54076   0.00000  Uiso   1.00
C1290  C     0.75318   0.53333   0.45926   0.00000  Uiso   1.00
C1291  C     0.74815   0.96652   0.54077   0.00000  Uiso   1.00
C1292  C     0.71668   0.50331   0.95925   0.00000  Uiso   1.00
C1293  C     0.78347   0.99804   0.04076   0.00000  Uiso   1.00
C1294  C     0.50610   0.71706   0.95921   0.00000  Uiso   1.00
C1295  C     0.99279   0.78273   0.04077   0.00000  Uiso   1.00
C1296  C     0.78332   0.99669   0.95925   0.00000  Uiso   1.00
C1297  C     0.99413   0.78257   0.91865   0.00000  Uiso   1.00
C1298  C     0.71653   0.50196   0.04076   0.00000  Uiso   1.00
C1299  C     0.99389   0.78294   0.95921   0.00000  Uiso   1.00
C1300  C     0.50720   0.71727   0.04077   0.00000  Uiso   1.00
C1301  C     0.59809   0.84812   0.25005   0.00000  Uiso   1.00
C1302  C     0.90191   0.65188   0.74997   0.00000  Uiso   1.00
C1303  C     0.65190   0.59812   0.24997   0.00000  Uiso   1.00
C1304  C     0.84809   0.90188   0.75005   0.00000  Uiso   1.00
C1305  C     0.90191   0.65188   0.25005   0.00000  Uiso   1.00
C1306  C     0.59809   0.84812   0.74997   0.00000  Uiso   1.00
C1307  C     0.84810   0.90188   0.24997   0.00000  Uiso   1.00
C1308  C     0.50696   0.71764   0.08133   0.00000  Uiso   1.00
C1309  C     0.65191   0.59812   0.75005   0.00000  Uiso   1.00
C1310  C     0.59812   0.65191   0.75005   0.00000  Uiso   1.00
C1311  C     0.90188   0.84809   0.24997   0.00000  Uiso   1.00
C1312  C     0.65188   0.90190   0.74997   0.00000  Uiso   1.00
C1313  C     0.84812   0.59809   0.25005   0.00000  Uiso   1.00
C1314  C     0.90188   0.84809   0.75005   0.00000  Uiso   1.00
C1315  C     0.59812   0.65191   0.24997   0.00000  Uiso   1.00
C1316  C     0.84812   0.59809   0.74997   0.00000  Uiso   1.00
C1317  C     0.65188   0.90191   0.25005   0.00000  Uiso   1.00
C1318  C     0.50000   0.75000   0.47962   0.00000  Uiso   1.00
C1319  C     0.71709   0.50334   0.91869   0.00000  Uiso   1.00
C1320  C     0.50000   0.75000   0.52036   0.00000  Uiso   1.00
C1321  C     0.75000   0.50000   0.47965   0.00000  Uiso   1.00
C1322  C     0.75000   0.50000   0.52038   0.00000  Uiso   1.00
C1323  C     0.75000   0.50000   0.97965   0.00000  Uiso   1.00
C1324  C     0.75000   0.50000   0.02038   0.00000  Uiso   1.00
C1325  C     0.50000   0.75000   0.97962   0.00000  Uiso   1.00
C1326  C     0.50000   0.75000   0.02037   0.00000  Uiso   1.00
C1327  C     0.88126   0.76336   0.45865   0.00000  Uiso   1.00
C1328  C     0.84621   0.75612   0.43589   0.00000  Uiso   1.00
C1329  C     0.82194   0.78993   0.43418   0.00000  Uiso   1.00
C1330  C     0.78299   0.99755   0.08132   0.00000  Uiso   1.00
C1331  C     0.60165   0.81023   0.54219   0.00000  Uiso   1.00
C1332  C     0.64017   0.81876   0.55654   0.00000  Uiso   1.00
C1333  C     0.64605   0.85978   0.56101   0.00000  Uiso   1.00
C1334  C     0.70252   0.89175   0.45860   0.00000  Uiso   1.00
C1335  C     0.69737   0.85815   0.43293   0.00000  Uiso   1.00
C1336  C     0.65725   0.84715   0.43059   0.00000  Uiso   1.00
C1337  C     0.71910   0.61061   0.55088   0.00000  Uiso   1.00
C1338  C     0.70072   0.63329   0.51901   0.00000  Uiso   1.00
C1339  C     0.66428   0.64873   0.53285   0.00000  Uiso   1.00
C1340  C     0.61879   0.73667   0.45873   0.00000  Uiso   1.00
C1341  C     0.50587   0.71743   0.91866   0.00000  Uiso   1.00
C1342  C     0.65384   0.74392   0.43597   0.00000  Uiso   1.00
C1343  C     0.67819   0.71018   0.43442   0.00000  Uiso   1.00
C1344  C     0.89832   0.68981   0.54221   0.00000  Uiso   1.00
C1345  C     0.85981   0.68130   0.55657   0.00000  Uiso   1.00
C1346  C     0.85391   0.64028   0.56106   0.00000  Uiso   1.00
C1347  C     0.79746   0.60827   0.45861   0.00000  Uiso   1.00
C1348  C     0.80260   0.64187   0.43294   0.00000  Uiso   1.00
C1349  C     0.84271   0.65291   0.43063   0.00000  Uiso   1.00
C1350  C     0.78089   0.88939   0.55090   0.00000  Uiso   1.00
C1351  C     0.79927   0.86670   0.51905   0.00000  Uiso   1.00
C1352  C     0.99304   0.78236   0.08133   0.00000  Uiso   1.00
C1353  C     0.83571   0.85127   0.53291   0.00000  Uiso   1.00
C1354  C     0.64199   0.54795   0.95859   0.00000  Uiso   1.00
C1355  C     0.60842   0.55327   0.93292   0.00000  Uiso   1.00
C1356  C     0.59766   0.59345   0.93054   0.00000  Uiso   1.00
C1357  C     0.86073   0.53053   0.05083   0.00000  Uiso   1.00
C1358  C     0.88335   0.54886   0.01887   0.00000  Uiso   1.00
C1359  C     0.89894   0.58525   0.03266   0.00000  Uiso   1.00
C1360  C     0.98710   0.63107   0.95889   0.00000  Uiso   1.00
C1361  C     0.99452   0.59599   0.93625   0.00000  Uiso   1.00
C1362  C     0.96098   0.57133   0.93505   0.00000  Uiso   1.00
C1363  C     0.50000   0.75000   0.39840   0.00000  Uiso   1.00
C1364  C     0.93938   0.85139   0.04220   0.00000  Uiso   1.00
C1365  C     0.93067   0.88990   0.05644   0.00000  Uiso   1.00
C1366  C     0.88962   0.89558   0.06094   0.00000  Uiso   1.00
C1367  C     0.85801   0.95205   0.95859   0.00000  Uiso   1.00
C1368  C     0.89157   0.94672   0.93292   0.00000  Uiso   1.00
C1369  C     0.90234   0.90654   0.93054   0.00000  Uiso   1.00
C1370  C     0.63927   0.96947   0.05082   0.00000  Uiso   1.00
C1371  C     0.61665   0.95114   0.01886   0.00000  Uiso   1.00
C1372  C     0.60106   0.91475   0.03266   0.00000  Uiso   1.00
C1373  C     0.51289   0.86893   0.95889   0.00000  Uiso   1.00
C1374  C     0.50000   0.75000   0.60158   0.00000  Uiso   1.00
C1375  C     0.50548   0.90401   0.93625   0.00000  Uiso   1.00
C1376  C     0.53901   0.92866   0.93504   0.00000  Uiso   1.00
C1377  C     0.56062   0.64861   0.04220   0.00000  Uiso   1.00
C1378  C     0.56933   0.61010   0.05644   0.00000  Uiso   1.00
C1379  C     0.61037   0.60442   0.06094   0.00000  Uiso   1.00
C1380  C     0.75000   0.50000   0.39843   0.00000  Uiso   1.00
C1381  C     0.96762   0.74316   0.58132   0.00000  Uiso   1.00
C1382  C     0.75000   0.50000   0.60158   0.00000  Uiso   1.00
C1383  C     0.75000   0.50000   0.89842   0.00000  Uiso   1.00
C1384  C     0.75000   0.50000   0.10158   0.00000  Uiso   1.00
C1385  C     0.50000   0.75000   0.89840   0.00000  Uiso   1.00
C1386  C     0.50000   0.75000   0.10159   0.00000  Uiso   1.00
C1387  C     0.93429   0.73783   0.47959   0.00000  Uiso   1.00
C1388  C     0.56524   0.76444   0.52031   0.00000  Uiso   1.00
C1389  C     0.74372   0.93350   0.47965   0.00000  Uiso   1.00
C1390  C     0.75338   0.56681   0.52025   0.00000  Uiso   1.00
C1391  C     0.56571   0.76217   0.47959   0.00000  Uiso   1.00
C1392  C     0.75321   0.53293   0.41870   0.00000  Uiso   1.00
C1393  C     0.93476   0.73558   0.52030   0.00000  Uiso   1.00
C1394  C     0.75628   0.56650   0.47965   0.00000  Uiso   1.00
C1395  C     0.74661   0.93319   0.52025   0.00000  Uiso   1.00
C1396  C     0.68353   0.50654   0.97965   0.00000  Uiso   1.00
C1397  C     0.81680   0.99638   0.02025   0.00000  Uiso   1.00
C1398  C     0.51236   0.68433   0.97960   0.00000  Uiso   1.00
C1399  C     0.98534   0.81519   0.02031   0.00000  Uiso   1.00
C1400  C     0.81647   0.99346   0.97965   0.00000  Uiso   1.00
C1401  C     0.68320   0.50362   0.02025   0.00000  Uiso   1.00
C1402  C     0.98763   0.81567   0.97960   0.00000  Uiso   1.00
C1403  C     0.74764   0.96701   0.58132   0.00000  Uiso   1.00
C1404  C     0.51465   0.68481   0.02031   0.00000  Uiso   1.00
C1405  C     0.75000   0.50000   0.35597   0.00000  Uiso   1.00
C1406  C     0.75000   0.50000   0.64403   0.00000  Uiso   1.00
C1407  C     0.50000   0.75000   0.35596   0.00000  Uiso   1.00
C1408  C     0.50000   0.75000   0.64403   0.00000  Uiso   1.00
C1409  C     0.50000   0.75000   0.85596   0.00000  Uiso   1.00
C1410  C     0.50000   0.75000   0.14403   0.00000  Uiso   1.00
C1411  C     0.75000   0.50000   0.85597   0.00000  Uiso   1.00
C1412  C     0.75000   0.50000   0.14403   0.00000  Uiso   1.00
C1413  C     0.67996   0.57005   0.24999   0.00000  Uiso   1.00
C1414  C     0.96742   0.74420   0.41865   0.00000  Uiso   1.00
C1415  C     0.82004   0.92995   0.75001   0.00000  Uiso   1.00
C1416  C     0.92996   0.67995   0.25001   0.00000  Uiso   1.00
C1417  C     0.57004   0.82005   0.74999   0.00000  Uiso   1.00
C1418  C     0.82004   0.92995   0.24999   0.00000  Uiso   1.00
C1419  C     0.67996   0.57005   0.75001   0.00000  Uiso   1.00
C1420  C     0.57004   0.82005   0.25001   0.00000  Uiso   1.00
C1421  C     0.92996   0.67995   0.74999   0.00000  Uiso   1.00
C1422  C     0.67995   0.92996   0.74999   0.00000  Uiso   1.00
C1423  C     0.82005   0.57004   0.25001   0.00000  Uiso   1.00
C1424  C     0.92995   0.82004   0.75001   0.00000  Uiso   1.00
C1425  C     0.53238   0.75685   0.58133   0.00000  Uiso   1.00
C1426  C     0.57005   0.67996   0.24999   0.00000  Uiso   1.00
C1427  C     0.82005   0.57004   0.74999   0.00000  Uiso   1.00
C1428  C     0.67995   0.92996   0.25001   0.00000  Uiso   1.00
C1429  C     0.57005   0.67996   0.75001   0.00000  Uiso   1.00
C1430  C     0.92995   0.82004   0.24999   0.00000  Uiso   1.00
C1431  C     0.61649   0.91025   0.23716   0.00000  Uiso   1.00
C1432  C     0.88353   0.58974   0.76278   0.00000  Uiso   1.00
C1433  C     0.58977   0.61651   0.23714   0.00000  Uiso   1.00
C1434  C     0.91020   0.88346   0.76300   0.00000  Uiso   1.00
C1435  C     0.88351   0.58975   0.23716   0.00000  Uiso   1.00
C1436  C     0.74679   0.96707   0.41870   0.00000  Uiso   1.00
C1437  C     0.61647   0.91026   0.76278   0.00000  Uiso   1.00
C1438  C     0.91023   0.88349   0.23713   0.00000  Uiso   1.00
C1439  C     0.58980   0.61654   0.76300   0.00000  Uiso   1.00
C1440  C     0.61654   0.58980   0.76300   0.00000  Uiso   1.00
C1441  C     0.88349   0.91023   0.23714   0.00000  Uiso   1.00
C1442  C     0.58974   0.88352   0.76278   0.00000  Uiso   1.00
C1443  C     0.91024   0.61649   0.23716   0.00000  Uiso   1.00
C1444  C     0.88346   0.91020   0.76300   0.00000  Uiso   1.00
C1445  C     0.61651   0.58977   0.23714   0.00000  Uiso   1.00
C1446  C     0.91026   0.61648   0.76278   0.00000  Uiso   1.00
C1447  C     0.75235   0.53299   0.58132   0.00000  Uiso   1.00
C1448  C     0.58975   0.88351   0.23716   0.00000  Uiso   1.00
C1449  C     0.86650   0.66023   0.73714   0.00000  Uiso   1.00
C1450  C     0.63347   0.83980   0.26299   0.00000  Uiso   1.00
C1451  C     0.83976   0.86649   0.73715   0.00000  Uiso   1.00
C1452  C     0.66026   0.63352   0.26279   0.00000  Uiso   1.00
C1453  C     0.63349   0.83977   0.73714   0.00000  Uiso   1.00
C1454  C     0.86653   0.66020   0.26299   0.00000  Uiso   1.00
C1455  C     0.66024   0.63350   0.73716   0.00000  Uiso   1.00
C1456  C     0.83974   0.86648   0.26279   0.00000  Uiso   1.00
C1457  C     0.86648   0.83974   0.26279   0.00000  Uiso   1.00
C1458  C     0.78291   0.99666   0.91870   0.00000  Uiso   1.00
C1459  C     0.63351   0.66024   0.73716   0.00000  Uiso   1.00
C1460  C     0.83980   0.63346   0.26299   0.00000  Uiso   1.00
C1461  C     0.66023   0.86650   0.73715   0.00000  Uiso   1.00
C1462  C     0.63352   0.66026   0.26279   0.00000  Uiso   1.00
C1463  C     0.86649   0.83976   0.73716   0.00000  Uiso   1.00
C1464  C     0.66020   0.86653   0.26299   0.00000  Uiso   1.00
C1465  C     0.83977   0.63350   0.73715   0.00000  Uiso   1.00
C1466  C     0.96704   0.74398   0.45921   0.00000  Uiso   1.00
C1467  C     0.53275   0.75709   0.54076   0.00000  Uiso   1.00
C1468  C     0.74683   0.96667   0.45926   0.00000  Uiso   1.00
F1469  F     0.60744   0.94446   0.22542   0.00000  Uiso   1.00
F1470  F     0.89257   0.94446   0.22547   0.00000  Uiso   1.00
F1471  F     0.55550   0.89260   0.77444   0.00000  Uiso   1.00
F1472  F     0.94446   0.60743   0.22543   0.00000  Uiso   1.00
F1473  F     0.89251   0.94440   0.77479   0.00000  Uiso   1.00
F1474  F     0.60743   0.55554   0.22547   0.00000  Uiso   1.00
F1475  F     0.94450   0.60740   0.77444   0.00000  Uiso   1.00
F1476  F     0.55554   0.89257   0.22543   0.00000  Uiso   1.00
F1477  F     0.85743   0.69446   0.72548   0.00000  Uiso   1.00
F1478  F     0.64252   0.80559   0.27477   0.00000  Uiso   1.00
F1479  F     0.80555   0.85744   0.72541   0.00000  Uiso   1.00
F1480  F     0.89260   0.55550   0.77443   0.00000  Uiso   1.00
F1481  F     0.69449   0.64260   0.27445   0.00000  Uiso   1.00
F1482  F     0.64257   0.80553   0.72548   0.00000  Uiso   1.00
F1483  F     0.85748   0.69441   0.27476   0.00000  Uiso   1.00
F1484  F     0.69445   0.64256   0.72541   0.00000  Uiso   1.00
F1485  F     0.80551   0.85740   0.27445   0.00000  Uiso   1.00
F1486  F     0.85741   0.80551   0.27447   0.00000  Uiso   1.00
F1487  F     0.64256   0.69446   0.72542   0.00000  Uiso   1.00
F1488  F     0.80560   0.64252   0.27477   0.00000  Uiso   1.00
F1489  F     0.69447   0.85743   0.72549   0.00000  Uiso   1.00
F1490  F     0.64259   0.69449   0.27446   0.00000  Uiso   1.00
F1491  F     0.55554   0.60743   0.22546   0.00000  Uiso   1.00
F1492  F     0.85744   0.80554   0.72542   0.00000  Uiso   1.00
F1493  F     0.69440   0.85748   0.27477   0.00000  Uiso   1.00
F1494  F     0.80553   0.64257   0.72549   0.00000  Uiso   1.00
F1495  F     0.94440   0.89252   0.77478   0.00000  Uiso   1.00
F1496  F     0.89256   0.55554   0.22542   0.00000  Uiso   1.00
F1497  F     0.60740   0.94450   0.77443   0.00000  Uiso   1.00
F1498  F     0.94446   0.89257   0.22546   0.00000  Uiso   1.00
F1499  F     0.55560   0.60748   0.77478   0.00000  Uiso   1.00
F1500  F     0.60749   0.55560   0.77479   0.00000  Uiso   1.00
H1501  H     0.55763   0.76043   0.40267   0.00000  Uiso   1.00
H1502  H     0.69167   0.50480   0.09731   0.00000  Uiso   1.00
H1503  H     0.87858   0.87689   0.08345   0.00000  Uiso   1.00
H1504  H     0.83511   0.93569   0.94620   0.00000  Uiso   1.00
H1505  H     0.86441   0.94193   0.98829   0.00000  Uiso   1.00
H1506  H     0.88557   0.95695   0.90320   0.00000  Uiso   1.00
H1507  H     0.91481   0.96265   0.94491   0.00000  Uiso   1.00
H1508  H     0.91042   0.89630   0.95965   0.00000  Uiso   1.00
H1509  H     0.92577   0.90336   0.91041   0.00000  Uiso   1.00
H1510  H     0.87925   0.88996   0.91936   0.00000  Uiso   1.00
H1511  H     0.62199   0.97224   0.07717   0.00000  Uiso   1.00
H1512  H     0.66263   0.95157   0.05918   0.00000  Uiso   1.00
H1513  H     0.98943   0.80760   0.90267   0.00000  Uiso   1.00
H1514  H     0.59388   0.96944   0.01018   0.00000  Uiso   1.00
H1515  H     0.63412   0.94606   0.99308   0.00000  Uiso   1.00
H1516  H     0.62339   0.89628   0.04211   0.00000  Uiso   1.00
H1517  H     0.58605   0.90141   0.00854   0.00000  Uiso   1.00
H1518  H     0.58190   0.91914   0.05722   0.00000  Uiso   1.00
H1519  H     0.53536   0.85372   0.94422   0.00000  Uiso   1.00
H1520  H     0.52161   0.87638   0.98884   0.00000  Uiso   1.00
H1521  H     0.99733   0.89701   0.90607   0.00000  Uiso   1.00
H1522  H     0.98268   0.91911   0.95023   0.00000  Uiso   1.00
H1523  H     0.54619   0.93783   0.96479   0.00000  Uiso   1.00
H1524  H     0.51237   0.69275   0.09731   0.00000  Uiso   1.00
H1525  H     0.53305   0.95312   0.91710   0.00000  Uiso   1.00
H1526  H     0.56258   0.91399   0.92209   0.00000  Uiso   1.00
H1527  H     0.57211   0.66881   0.06304   0.00000  Uiso   1.00
H1528  H     0.57391   0.65241   0.01333   0.00000  Uiso   1.00
H1529  H     0.55585   0.60537   0.08491   0.00000  Uiso   1.00
H1530  H     0.55852   0.58991   0.03526   0.00000  Uiso   1.00
H1531  H     0.62453   0.60967   0.03299   0.00000  Uiso   1.00
H1532  H     0.61587   0.57585   0.06994   0.00000  Uiso   1.00
H1533  H     0.62142   0.62311   0.08345   0.00000  Uiso   1.00
H1534  H     0.69173   0.50591   0.90274   0.00000  Uiso   1.00
H1535  H     0.80833   0.99520   0.09731   0.00000  Uiso   1.00
H1536  H     0.51057   0.69240   0.90268   0.00000  Uiso   1.00
H1537  H     0.98763   0.80725   0.09731   0.00000  Uiso   1.00
H1538  H     0.89669   0.78566   0.44396   0.00000  Uiso   1.00
H1539  H     0.87376   0.77224   0.48854   0.00000  Uiso   1.00
H1540  H     0.85327   0.74762   0.40583   0.00000  Uiso   1.00
H1541  H     0.94271   0.73784   0.59730   0.00000  Uiso   1.00
H1542  H     0.83079   0.73363   0.45002   0.00000  Uiso   1.00
H1543  H     0.81277   0.79754   0.46380   0.00000  Uiso   1.00
H1544  H     0.79747   0.78404   0.41623   0.00000  Uiso   1.00
H1545  H     0.83693   0.81317   0.42098   0.00000  Uiso   1.00
H1546  H     0.58146   0.82183   0.56298   0.00000  Uiso   1.00
H1547  H     0.59799   0.82353   0.51331   0.00000  Uiso   1.00
H1548  H     0.64476   0.80529   0.58504   0.00000  Uiso   1.00
H1549  H     0.66036   0.80783   0.53543   0.00000  Uiso   1.00
H1550  H     0.64094   0.87394   0.53303   0.00000  Uiso   1.00
H1551  H     0.67463   0.86514   0.57008   0.00000  Uiso   1.00
H1552  H     0.75568   0.55829   0.40275   0.00000  Uiso   1.00
H1553  H     0.62736   0.87094   0.58345   0.00000  Uiso   1.00
H1554  H     0.68604   0.91456   0.44620   0.00000  Uiso   1.00
H1555  H     0.69243   0.88530   0.48829   0.00000  Uiso   1.00
H1556  H     0.70754   0.86421   0.40321   0.00000  Uiso   1.00
H1557  H     0.71344   0.83501   0.44491   0.00000  Uiso   1.00
H1558  H     0.64708   0.83900   0.45971   0.00000  Uiso   1.00
H1559  H     0.65418   0.82371   0.41045   0.00000  Uiso   1.00
H1560  H     0.64052   0.87015   0.41943   0.00000  Uiso   1.00
H1561  H     0.72181   0.62780   0.57729   0.00000  Uiso   1.00
H1562  H     0.70125   0.58717   0.55914   0.00000  Uiso   1.00
H1563  H     0.74537   0.94166   0.59731   0.00000  Uiso   1.00
H1564  H     0.71896   0.65614   0.51044   0.00000  Uiso   1.00
H1565  H     0.69570   0.61591   0.49314   0.00000  Uiso   1.00
H1566  H     0.64586   0.62630   0.54217   0.00000  Uiso   1.00
H1567  H     0.65092   0.66380   0.50880   0.00000  Uiso   1.00
H1568  H     0.66859   0.66779   0.55750   0.00000  Uiso   1.00
H1569  H     0.60340   0.71433   0.44407   0.00000  Uiso   1.00
H1570  H     0.62629   0.72786   0.48864   0.00000  Uiso   1.00
H1571  H     0.64678   0.75230   0.40587   0.00000  Uiso   1.00
H1572  H     0.66919   0.76651   0.45002   0.00000  Uiso   1.00
H1573  H     0.68739   0.70272   0.46408   0.00000  Uiso   1.00
H1574  H     0.94238   0.73956   0.40267   0.00000  Uiso   1.00
H1575  H     0.70265   0.71606   0.41644   0.00000  Uiso   1.00
H1576  H     0.66328   0.68684   0.42134   0.00000  Uiso   1.00
H1577  H     0.91851   0.67821   0.56299   0.00000  Uiso   1.00
H1578  H     0.90196   0.67650   0.51332   0.00000  Uiso   1.00
H1579  H     0.85524   0.69478   0.58507   0.00000  Uiso   1.00
H1580  H     0.83961   0.69224   0.53547   0.00000  Uiso   1.00
H1581  H     0.85899   0.62612   0.53307   0.00000  Uiso   1.00
H1582  H     0.82533   0.63494   0.57014   0.00000  Uiso   1.00
H1583  H     0.87260   0.62911   0.58349   0.00000  Uiso   1.00
H1584  H     0.81396   0.58547   0.44622   0.00000  Uiso   1.00
H1585  H     0.55729   0.76217   0.59731   0.00000  Uiso   1.00
H1586  H     0.80754   0.61473   0.48831   0.00000  Uiso   1.00
H1587  H     0.79246   0.63580   0.40321   0.00000  Uiso   1.00
H1588  H     0.78650   0.66500   0.44491   0.00000  Uiso   1.00
H1589  H     0.85285   0.66108   0.45976   0.00000  Uiso   1.00
H1590  H     0.84577   0.67634   0.41049   0.00000  Uiso   1.00
H1591  H     0.85947   0.62993   0.41950   0.00000  Uiso   1.00
H1592  H     0.77816   0.87221   0.57732   0.00000  Uiso   1.00
H1593  H     0.79873   0.91283   0.55915   0.00000  Uiso   1.00
H1594  H     0.78104   0.84383   0.51048   0.00000  Uiso   1.00
H1595  H     0.80429   0.88407   0.49317   0.00000  Uiso   1.00
H1596  H     0.74432   0.94171   0.40274   0.00000  Uiso   1.00
H1597  H     0.85412   0.87371   0.54222   0.00000  Uiso   1.00
H1598  H     0.84908   0.83619   0.50887   0.00000  Uiso   1.00
H1599  H     0.83140   0.83223   0.55757   0.00000  Uiso   1.00
H1600  H     0.66489   0.56431   0.94619   0.00000  Uiso   1.00
H1601  H     0.63559   0.55807   0.98828   0.00000  Uiso   1.00
H1602  H     0.61442   0.54304   0.90320   0.00000  Uiso   1.00
H1603  H     0.58519   0.53735   0.94492   0.00000  Uiso   1.00
H1604  H     0.58959   0.60370   0.95965   0.00000  Uiso   1.00
H1605  H     0.57423   0.59664   0.91041   0.00000  Uiso   1.00
H1606  H     0.62075   0.61004   0.91935   0.00000  Uiso   1.00
H1607  H     0.75462   0.55834   0.59731   0.00000  Uiso   1.00
H1608  H     0.87801   0.52776   0.07717   0.00000  Uiso   1.00
H1609  H     0.83736   0.54843   0.05918   0.00000  Uiso   1.00
H1610  H     0.90612   0.53056   0.01018   0.00000  Uiso   1.00
H1611  H     0.86588   0.55394   0.99308   0.00000  Uiso   1.00
H1612  H     0.87661   0.60372   0.04211   0.00000  Uiso   1.00
H1613  H     0.91395   0.59859   0.00854   0.00000  Uiso   1.00
H1614  H     0.91810   0.58087   0.05722   0.00000  Uiso   1.00
H1615  H     0.96463   0.64628   0.94423   0.00000  Uiso   1.00
H1616  H     0.97839   0.62361   0.98885   0.00000  Uiso   1.00
H1617  H     0.50266   0.60299   0.90607   0.00000  Uiso   1.00
H1618  H     0.80827   0.99409   0.90274   0.00000  Uiso   1.00
H1619  H     0.51732   0.58089   0.95023   0.00000  Uiso   1.00
H1620  H     0.95382   0.56216   0.96480   0.00000  Uiso   1.00
H1621  H     0.96695   0.54688   0.91711   0.00000  Uiso   1.00
H1622  H     0.93741   0.58601   0.92211   0.00000  Uiso   1.00
H1623  H     0.92789   0.83119   0.06304   0.00000  Uiso   1.00
H1624  H     0.92608   0.84759   0.01333   0.00000  Uiso   1.00
H1625  H     0.94415   0.89462   0.08492   0.00000  Uiso   1.00
H1626  H     0.94148   0.91009   0.03526   0.00000  Uiso   1.00
H1627  H     0.87547   0.89033   0.03299   0.00000  Uiso   1.00
H1628  H     0.88413   0.92415   0.06994   0.00000  Uiso   1.00
O1629  O     0.75000   0.50000   0.25000   0.00000  Uiso   1.00
O1630  O     0.75000   0.96963   0.66245   0.00000  Uiso   1.00
O1631  O     0.96963   0.75000   0.33755   0.00000  Uiso   1.00
O1632  O     0.53036   0.75000   0.66245   0.00000  Uiso   1.00
O1633  O     0.50000   0.71963   0.83755   0.00000  Uiso   1.00
O1634  O     0.50000   0.78036   0.16245   0.00000  Uiso   1.00
O1635  O     0.78036   0.50000   0.83755   0.00000  Uiso   1.00
O1636  O     0.71963   0.50000   0.16245   0.00000  Uiso   1.00
O1637  O     0.50000   0.78036   0.83755   0.00000  Uiso   1.00
O1638  O     0.50000   0.71963   0.16245   0.00000  Uiso   1.00
O1639  O     0.71963   0.50000   0.83755   0.00000  Uiso   1.00
O1640  O     0.75000   0.50000   0.75000   0.00000  Uiso   1.00
O1641  O     0.78036   0.50000   0.16245   0.00000  Uiso   1.00
O1642  O     0.70724   0.57307   0.27302   0.00000  Uiso   1.00
O1643  O     0.79275   0.92692   0.72698   0.00000  Uiso   1.00
O1644  O     0.92692   0.70724   0.27302   0.00000  Uiso   1.00
O1645  O     0.57307   0.79275   0.72698   0.00000  Uiso   1.00
O1646  O     0.79275   0.92692   0.27302   0.00000  Uiso   1.00
O1647  O     0.70724   0.57307   0.72698   0.00000  Uiso   1.00
O1648  O     0.57307   0.79275   0.27302   0.00000  Uiso   1.00
O1649  O     0.92692   0.70724   0.72698   0.00000  Uiso   1.00
O1650  O     0.70724   0.92692   0.72698   0.00000  Uiso   1.00
O1651  O     0.50000   0.75000   0.25000   0.00000  Uiso   1.00
O1652  O     0.79275   0.57307   0.27302   0.00000  Uiso   1.00
O1653  O     0.92692   0.79275   0.72698   0.00000  Uiso   1.00
O1654  O     0.57307   0.70724   0.27302   0.00000  Uiso   1.00
O1655  O     0.79275   0.57307   0.72698   0.00000  Uiso   1.00
O1656  O     0.70724   0.92692   0.27302   0.00000  Uiso   1.00
O1657  O     0.57307   0.70724   0.72698   0.00000  Uiso   1.00
O1658  O     0.92692   0.79275   0.27302   0.00000  Uiso   1.00
O1659  O     0.95724   0.82307   0.77302   0.00000  Uiso   1.00
O1660  O     0.54275   0.67692   0.22698   0.00000  Uiso   1.00
O1661  O     0.67692   0.95724   0.77302   0.00000  Uiso   1.00
O1662  O     0.50000   0.75000   0.75000   0.00000  Uiso   1.00
O1663  O     0.82307   0.54275   0.22698   0.00000  Uiso   1.00
O1664  O     0.54275   0.67692   0.77302   0.00000  Uiso   1.00
O1665  O     0.95724   0.82307   0.22698   0.00000  Uiso   1.00
O1666  O     0.82307   0.54275   0.77302   0.00000  Uiso   1.00
O1667  O     0.67692   0.95724   0.22698   0.00000  Uiso   1.00
O1668  O     0.95724   0.67692   0.22698   0.00000  Uiso   1.00
O1669  O     0.54275   0.82307   0.77302   0.00000  Uiso   1.00
O1670  O     0.67692   0.54275   0.22698   0.00000  Uiso   1.00
O1671  O     0.82307   0.95724   0.77302   0.00000  Uiso   1.00
O1672  O     0.54275   0.82307   0.22698   0.00000  Uiso   1.00
O1673  O     0.75000   0.96963   0.33755   0.00000  Uiso   1.00
O1674  O     0.95724   0.67692   0.77302   0.00000  Uiso   1.00
O1675  O     0.82307   0.95724   0.22698   0.00000  Uiso   1.00
O1676  O     0.67692   0.54275   0.77302   0.00000  Uiso   1.00
O1677  O     0.90218   0.73101   0.45969   0.00000  Uiso   1.00
O1678  O     0.59730   0.77198   0.53996   0.00000  Uiso   1.00
O1679  O     0.73993   0.90091   0.45975   0.00000  Uiso   1.00
O1680  O     0.75472   0.59996   0.53958   0.00000  Uiso   1.00
O1681  O     0.59782   0.76900   0.45969   0.00000  Uiso   1.00
O1682  O     0.90269   0.72806   0.53996   0.00000  Uiso   1.00
O1683  O     0.76005   0.59909   0.45975   0.00000  Uiso   1.00
O1684  O     0.75000   0.53036   0.66245   0.00000  Uiso   1.00
O1685  O     0.74526   0.90004   0.53958   0.00000  Uiso   1.00
O1686  O     0.65096   0.51049   0.95975   0.00000  Uiso   1.00
O1687  O     0.84994   0.99493   0.03957   0.00000  Uiso   1.00
O1688  O     0.51930   0.65224   0.95969   0.00000  Uiso   1.00
O1689  O     0.97765   0.84721   0.03996   0.00000  Uiso   1.00
O1690  O     0.84904   0.98951   0.95975   0.00000  Uiso   1.00
O1691  O     0.65006   0.50507   0.03957   0.00000  Uiso   1.00
O1692  O     0.98070   0.84776   0.95969   0.00000  Uiso   1.00
O1693  O     0.52235   0.65278   0.03996   0.00000  Uiso   1.00
O1694  O     0.53036   0.75000   0.33755   0.00000  Uiso   1.00
O1695  O     0.96963   0.75000   0.66245   0.00000  Uiso   1.00
O1696  O     0.75000   0.53036   0.33755   0.00000  Uiso   1.00
Zn1697 Zn    0.70659   0.50000   0.21735   0.00000  Uiso   1.00
Zn1698 Zn    0.54340   0.75000   0.28265   0.00000  Uiso   1.00
Zn1699 Zn    0.75000   0.95659   0.71735   0.00000  Uiso   1.00
Zn1700 Zn    0.75000   0.54340   0.28265   0.00000  Uiso   1.00
Zn1701 Zn    0.54340   0.75000   0.71735   0.00000  Uiso   1.00
Zn1702 Zn    0.95659   0.75000   0.28265   0.00000  Uiso   1.00
Zn1703 Zn    0.75000   0.54340   0.71735   0.00000  Uiso   1.00
Zn1704 Zn    0.75000   0.95659   0.28265   0.00000  Uiso   1.00
Zn1705 Zn    0.79340   0.50000   0.78265   0.00000  Uiso   1.00
Zn1706 Zn    0.50000   0.70659   0.21735   0.00000  Uiso   1.00
Zn1707 Zn    0.50000   0.79340   0.78265   0.00000  Uiso   1.00
Zn1708 Zn    0.79340   0.50000   0.21735   0.00000  Uiso   1.00
Zn1709 Zn    0.70659   0.50000   0.78265   0.00000  Uiso   1.00
Zn1710 Zn    0.50000   0.79340   0.21735   0.00000  Uiso   1.00
Zn1711 Zn    0.50000   0.70659   0.78265   0.00000  Uiso   1.00
Zn1712 Zn    0.95659   0.75000   0.71735   0.00000  Uiso   1.00
loop_
_geom_bond_atom_site_label_1
_geom_bond_atom_site_label_2
_geom_bond_distance
_geom_bond_site_symmetry_2
_ccdc_geom_bond_type
C1     C79     1.399   .     A
C1     C4      1.397   .     A
C1     H217    1.084   .     S
C2     C14     1.397   .     A
C2     H218    1.083   .     S
C2     C100    1.399   .     A
C3     C106    1.412   .     A
C3     C163    1.397   .     A
C3     C38     1.415   .     S
C4     C107    1.409   .     A
C4     C34     1.415   .     A
C5     C464    1.415   .     A
C5     C97     1.397   .     A
C5     C109    1.409   .     A
C6     C110    1.408   .     A
C6     C108    1.397   .     A
C6     C37     1.414   .     S
C7     C119    1.397   .     A
C7     C111    1.412   .     A
C7     C894    1.415   .     A
C8     C35     1.397   .     A
C8     C112    1.408   .     A
C8     C39     1.414   .     A
C9     C46     1.397   .     A
C9     C113    1.412   .     A
C9     C896    1.415   .     S
C10    C114    1.409   .     A
C10    C57     1.397   .     A
C10    C41     1.415   .     S
C11    C115    1.409   .     A
C11    C68     1.397   .     A
C11    C470    1.415   .     A
C12    C174    1.397   .     A
C12    C116    1.408   .     A
C12    C895    1.414   .     S
C13    H229    1.084   .     S
C13    C15     1.397   .     A
C13    C529    1.399   .     A
C14    C117    1.412   .     A
C14    C40     1.415   .     A
C15    C118    1.409   .     A
C15    C469    1.415   .     A
C16    C120    1.409   .     A
C16    C24     1.397   .     A
C16    C42     1.415   .     S
C17    C164    1.404   .     A
C17    C166    1.404   .     A
C17    C136    1.454   .     S
C18    C137    1.454   .     S
C18    C165    1.404   .     A
C18    C162    1.404   .     A
C19    C129    1.454   .     S
C19    C161    1.404   .     A
C19    C168    1.404   .     A
C20    C160    1.404   .     A
C20    C167    1.404   .     A
C20    C131    1.454   .     S
C21    C170    1.404   .     A
C21    C159    1.404   .     A
C21    C132    1.454   .     S
C22    C133    1.454   .     S
C22    C158    1.404   .     A
C22    C169    1.404   .     A
C23    C134    1.454   .     S
C23    C157    1.404   .     A
C23    C172    1.404   .     A
C24    H240    1.084   .     S
C24    C102    1.399   .     S
C25    C171    1.404   .     A
C25    C156    1.404   .     A
C25    C135    1.454   .     S
C26    C155    1.404   .     A
C26    C145    1.454   .     S
C26    C175    1.404   .     A
C27    C146    1.454   .     S
C27    C154    1.404   .     A
C27    C173    1.404   .     A
C28    C153    1.404   .     A
C28    C177    1.404   .     A
C28    C138    1.454   .     S
C29    C151    1.404   .     A
C29    C139    1.454   .     S
C29    C176    1.404   .     A
C30    C150    1.404   .     A
C30    C179    1.404   .     A
C30    C140    1.454   .     S
C31    C178    1.404   .     A
C31    C149    1.404   .     A
C31    C142    1.454   .     S
C32    C181    1.404   .     A
C32    C148    1.404   .     A
C32    C143    1.454   .     S
C33    C147    1.404   .     A
C33    C180    1.404   .     A
C33    C144    1.454   .     S
C34    C36     1.403   .     S
C34    C610    1.415   1_455 S
C35    H250    1.083   .     S
C35    C99     1.399   .     A
C36    C433    1.415   1_455 A
C36    C183    1.415   .     S
C37    C38     1.403   .     A
C37    C1040   1.414   1_545 A
C38    C863    1.415   1_545 A
C39    C868    1.414   1_545 S
C39    C40     1.403   1_556 S
C40    C865    1.415   1_545 S
C40    C39     1.403   1_554 S
C41    C443    1.415   1_455 A
C41    C42     1.403   1_556 S
C42    C439    1.415   1_455 A
C42    C41     1.403   1_554 S
C43    C44     1.528   .     S
C43    O393    1.412   .     S
C43    H254    1.115   .     S
C43    H255    1.114   .     S
C44    H256    1.112   .     S
C44    H258    1.112   .     S
C44    C45     1.526   .     S
C45    H261    1.111   .     S
C45    H260    1.110   .     S
C45    H259    1.110   .     S
C46    H251    1.083   .     S
C46    C956    1.399   .     S
C47    O394    1.413   .     S
C47    H262    1.114   .     S
C47    H263    1.116   .     S
C47    C48     1.528   .     S
C48    H265    1.112   .     S
C48    C49     1.526   .     S
C48    H264    1.112   .     S
C49    H266    1.110   .     S
C49    H267    1.111   .     S
C49    H269    1.111   .     S
C50    H270    1.116   .     S
C50    H271    1.113   .     S
C50    C51     1.527   .     S
C50    O395    1.412   .     S
C51    C52     1.527   .     S
C51    H272    1.112   .     S
C51    H273    1.112   .     S
C52    H275    1.110   .     S
C52    H274    1.111   .     S
C52    H276    1.111   .     S
C53    H278    1.116   .     S
C53    O396    1.417   .     S
C53    H277    1.111   .     S
C53    C54     1.533   .     S
C54    C55     1.527   .     S
C54    H281    1.111   .     S
C54    H280    1.112   .     S
C55    H283    1.110   .     S
C55    H284    1.111   .     S
C55    H282    1.111   .     S
C56    H286    1.114   .     S
C56    C58     1.528   .     S
C56    O397    1.412   .     S
C56    H285    1.115   .     S
C57    H252    1.084   .     S
C57    C101    1.399   .     S
C58    H288    1.112   .     S
C58    C59     1.526   .     S
C58    H287    1.112   .     S
C59    H291    1.110   .     S
C59    H289    1.110   .     S
C59    H292    1.111   .     S
C60    H293    1.114   .     S
C60    C61     1.528   .     S
C60    H294    1.116   .     S
C60    O398    1.413   .     S
C61    H296    1.112   .     S
C61    C62     1.526   .     S
C61    H295    1.112   .     S
C62    H299    1.111   .     S
C62    H297    1.111   .     S
C62    H298    1.111   .     S
C63    H300    1.116   .     S
C63    O399    1.412   .     S
C63    C64     1.527   .     S
C63    H302    1.113   .     S
C64    C65     1.527   .     S
C64    H304    1.112   .     S
C64    H303    1.112   .     S
C65    H307    1.111   .     S
C65    H306    1.110   .     S
C65    H305    1.111   .     S
C66    H308    1.111   .     S
C66    H309    1.116   .     S
C66    C67     1.533   .     S
C66    O401    1.417   .     S
C67    H310    1.112   .     S
C67    C69     1.527   .     S
C67    H311    1.111   .     S
C68    H253    1.084   .     S
C68    C530    1.399   .     A
C69    H315    1.111   .     S
C69    H313    1.111   .     S
C69    H314    1.110   .     S
C70    H317    1.113   .     S
C70    O402    1.412   .     S
C70    H316    1.116   .     S
C70    C71     1.527   .     S
C71    H318    1.112   .     S
C71    C72     1.527   .     S
C71    H319    1.112   .     S
C72    H320    1.111   .     S
C72    H321    1.110   .     S
C72    H322    1.111   .     S
C73    C74     1.533   .     S
C73    H325    1.116   .     S
C73    H324    1.111   .     S
C73    O1259   1.417   1_545 S
C74    H326    1.112   .     S
C74    C75     1.527   .     S
C74    H327    1.111   1_554 S
C75    H329    1.110   .     S
C75    H328    1.111   .     S
C75    H330    1.111   .     S
C76    H331    1.115   .     S
C76    H332    1.114   .     S
C76    C77     1.528   .     S
C76    O832    1.412   .     S
C77    C78     1.526   .     S
C77    H761    1.112   .     S
C77    H763    1.112   .     S
C78    H337    1.110   .     S
C78    H338    1.111   .     S
C78    H336    1.110   .     S
C79    C123    1.462   .     S
C79    C558    1.399   1_455 S
C80    H340    1.116   .     S
C80    H339    1.114   .     S
C80    C81     1.528   .     S
C80    O405    1.413   .     S
C81    H341    1.112   .     S
C81    H342    1.112   .     S
C81    C82     1.526   .     S
C82    H344    1.111   .     S
C82    H219    1.111   .     S
C82    H343    1.111   .     S
C83    H221    1.113   .     S
C83    C84     1.527   .     S
C83    O406    1.412   .     S
C83    H220    1.116   .     S
C84    H223    1.112   .     S
C84    H222    1.112   .     S
C84    C85     1.527   .     S
C85    H224    1.111   .     S
C85    H225    1.110   .     S
C85    H226    1.111   .     S
C86    H227    1.111   .     S
C86    C87     1.533   .     S
C86    H228    1.116   .     S
C86    O1263   1.417   .     S
C87    C88     1.527   .     S
C87    H230    1.112   .     S
C87    H231    1.111   1_554 S
C88    H232    1.111   .     S
C88    H233    1.110   .     S
C88    H234    1.111   .     S
C89    H236    1.114   .     S
C89    C91     1.528   .     S
C89    H235    1.115   .     S
C89    O836    1.412   1_455 S
C90    C525    1.399   1_455 A
C90    C124    1.462   .     S
C90    C141    1.399   .     S
C91    C92     1.526   .     S
C91    H665    1.112   1_455 S
C91    H666    1.112   1_455 S
C92    H239    1.110   .     S
C92    H241    1.110   .     S
C92    H242    1.111   .     S
C93    H244    1.116   .     S
C93    O409    1.413   .     S
C93    H243    1.114   .     S
C93    C94     1.528   .     S
C94    H245    1.112   .     S
C94    C95     1.526   .     S
C94    H246    1.112   .     S
C95    H247    1.111   .     S
C95    H248    1.111   .     S
C95    H249    1.111   .     S
C96    C121    1.462   .     S
C96    C1008   1.399   1_545 A
C96    C108    1.399   .     S
C97    C518    1.399   .     A
C97    H257    1.084   .     S
C98    C122    1.462   .     S
C98    C163    1.399   .     A
C98    C975    1.399   1_545 S
C99    C127    1.462   .     S
C99    C1030   1.399   1_545 S
C100   C128    1.462   .     S
C100   C902    1.399   1_545 S
C101   C125    1.462   .     S
C101   C441    1.399   1_455 A
C102   C496    1.399   1_455 A
C102   C126    1.462   .     S
C103   O393    1.385   .     S
C103   C109    1.405   .     A
C103   C182    1.409   .     A
C104   C183    1.409   .     A
C104   C107    1.405   .     A
C104   O394    1.384   .     S
C105   C184    1.408   .     A
C105   O395    1.384   .     S
C105   C111    1.402   .     A
C106   O396    1.386   .     S
C106   C110    1.402   .     A
C107   O397    1.385   .     S
C108   H268    1.083   .     S
C109   O398    1.384   .     S
C110   O399    1.384   .     S
C111   O401    1.386   .     S
C112   O402    1.384   .     S
C112   C117    1.402   1_556 S
C113   O403    1.386   .     S
C113   C116    1.402   1_554 S
C114   O404    1.385   .     S
C114   C120    1.405   1_556 S
C115   O405    1.384   .     S
C115   C118    1.405   1_554 S
C116   O406    1.384   .     S
C116   C113    1.402   1_556 S
C117   O407    1.386   .     S
C117   C112    1.402   1_554 S
C118   O408    1.385   .     S
C118   C115    1.405   1_556 S
C119   H279    1.083   .     S
C119   C954    1.399   .     S
C120   O409    1.384   .     S
C120   C114    1.405   1_554 S
C121   O1245   1.281   1_545 A
C121   O412    1.281   .     S
C122   O400    1.281   .     A
C122   O1202   1.281   1_545 S
C123   O410    1.281   .     A
C123   O775    1.281   1_455 S
C124   O839    1.281   1_455 A
C124   O348    1.281   .     S
C125   O349    1.281   .     S
C125   O353    1.281   .     S
C126   O354    1.281   .     A
C126   O350    1.281   .     A
C127   O351    1.281   .     S
C127   O355    1.281   .     S
C128   O352    1.281   .     A
C128   O357    1.281   .     A
C129   O386    1.281   .     A
C129   O358    1.281   .     A
C130   C182    1.397   .     A
C130   H290    1.084   .     S
C130   C507    1.399   .     S
C131   O387    1.281   .     A
C131   O359    1.281   .     A
C132   O360    1.281   .     A
C132   O384    1.281   .     A
C133   O385    1.281   .     A
C133   O361    1.281   .     A
C134   O391    1.281   .     A
C134   O362    1.281   .     A
C135   O392    1.281   .     A
C135   O363    1.281   .     A
C136   O388    1.281   .     A
C136   O364    1.281   .     A
C137   O390    1.281   .     A
C137   O365    1.281   .     A
C138   O366    1.281   .     A
C138   O377    1.281   .     A
C139   O379    1.281   .     A
C139   O368    1.281   .     A
C140   O375    1.281   .     A
C140   O369    1.281   .     A
C141   H301    1.084   .     S
C141   C183    1.397   .     A
C142   O370    1.281   .     A
C142   O376    1.281   .     A
C143   O371    1.281   .     A
C143   O382    1.281   .     A
C144   O383    1.281   .     A
C144   O372    1.281   .     A
C145   O380    1.281   .     A
C145   O373    1.281   .     A
C146   O381    1.281   .     A
C146   O374    1.281   .     A
C147   C164    1.386   .     A
C147   F185    1.359   .     S
C148   C162    1.386   .     A
C148   F196    1.359   .     S
C149   C161    1.386   .     A
C149   F207    1.359   .     S
C150   F211    1.359   .     S
C150   C160    1.386   .     A
C151   F212    1.359   .     S
C151   C159    1.386   .     A
C152   C952    1.399   .     A
C152   H312    1.084   .     S
C152   C184    1.397   .     A
C153   F213    1.359   .     S
C153   C158    1.386   .     A
C154   F214    1.359   .     S
C154   C157    1.386   .     A
C155   C156    1.386   .     A
C155   F215    1.359   .     S
C156   F216    1.359   .     S
C157   F186    1.359   .     S
C158   F187    1.359   .     S
C159   F188    1.359   .     S
C160   F189    1.359   .     S
C161   F190    1.359   .     S
C162   F191    1.359   .     S
C163   H323    1.083   .     S
C164   F192    1.359   .     S
C165   F193    1.359   .     S
C165   C181    1.386   .     A
C166   F194    1.359   .     S
C166   C180    1.386   .     A
C167   F195    1.359   .     S
C167   C179    1.386   .     A
C168   F197    1.359   .     S
C168   C178    1.386   .     A
C169   C177    1.386   .     A
C169   F198    1.359   .     S
C170   C176    1.386   .     A
C170   F199    1.359   .     S
C171   C175    1.386   .     A
C171   F200    1.359   .     S
C172   F201    1.359   .     S
C172   C173    1.386   .     A
C173   F202    1.359   .     S
C174   H334    1.084   .     S
C174   C955    1.399   .     S
C175   F203    1.359   .     S
C176   F204    1.359   .     S
C177   F205    1.359   .     S
C178   F206    1.359   .     S
C179   F208    1.359   .     S
C180   F209    1.359   .     S
C181   F210    1.359   .     S
C182   C462    1.415   .     S
C184   C893    1.414   .     A
H231   C87     1.111   1_556 S
H237   C519    1.112   .     S
H238   C519    1.112   .     S
H327   C74     1.111   1_556 S
H333   C505    1.112   1_455 S
H335   C505    1.112   1_455 S
O345   Zn416   1.948   .     S
O345   Zn413   1.948   .     S
O345   Zn424   1.948   .     S
O345   Zn1276  1.948   1_545 S
O346   Zn415   1.950   .     S
O346   C978    1.281   .     S
O347   Zn418   1.950   .     S
O347   C551    1.281   .     S
O348   Zn417   1.950   .     S
O349   Zn427   1.950   .     S
O350   Zn426   1.950   .     S
O351   Zn421   1.950   .     S
O352   Zn413   1.950   .     S
O353   Zn423   1.950   .     S
O354   Zn422   1.950   .     S
O355   Zn425   1.950   .     S
O356   Zn425   1.948   .     S
O356   Zn419   1.948   .     S
O356   Zn421   1.948   .     S
O356   Zn1271  1.948   1_545 S
O357   Zn424   1.950   .     S
O358   Zn416   1.936   .     S
O359   Zn415   1.936   .     S
O360   Zn418   1.936   .     S
O361   Zn417   1.936   .     S
O362   Zn420   1.936   .     S
O363   Zn419   1.936   .     S
O364   Zn414   1.936   .     S
O365   Zn428   1.936   .     S
O366   Zn415   1.936   .     S
O367   Zn422   1.948   .     S
O367   Zn426   1.948   .     S
O367   Zn414   1.948   .     S
O367   Zn846   1.948   1_455 S
O368   Zn416   1.936   .     S
O369   Zn428   1.936   .     S
O370   Zn414   1.936   .     S
O371   Zn419   1.936   .     S
O372   Zn420   1.936   .     S
O373   Zn417   1.936   .     S
O374   Zn418   1.936   .     S
O375   Zn851   1.936   .     S
O376   Zn422   1.936   .     S
O377   Zn1281  1.936   .     S
O378   Zn417   1.948   .     S
O378   Zn427   1.948   .     S
O378   Zn423   1.948   .     S
O378   Zn856   1.948   1_455 S
O379   Zn424   1.936   .     S
O380   Zn427   1.936   .     S
O381   Zn854   1.936   .     S
O382   Zn421   1.936   .     S
O383   Zn1269  1.936   .     S
O384   Zn850   1.936   .     S
O385   Zn423   1.936   .     S
O386   Zn413   1.936   .     S
O387   Zn1277  1.936   .     S
O388   Zn426   1.936   .     S
O389   Zn420   1.950   .     S
O389   C977    1.281   .     A
O390   Zn855   1.936   .     S
O391   Zn1280  1.936   .     S
O392   Zn425   1.936   .     S
O400   Zn419   1.950   .     S
O403   C929    1.417   .     S
O404   C504    1.412   1_455 S
O407   C942    1.417   1_545 S
O408   C517    1.412   .     S
O410   Zn414   1.950   .     S
O411   Zn428   1.950   .     S
O411   C552    1.281   .     A
O412   Zn416   1.950   .     S
Zn413  O1239   1.936   1_545 S
Zn415  O1212   1.948   .     S
Zn418  O795    1.948   .     S
Zn420  O1201   1.948   .     S
Zn421  O1243   1.936   1_545 S
Zn422  O812    1.936   1_455 S
Zn423  O803    1.936   1_455 S
Zn424  O1247   1.936   1_545 S
Zn425  O1233   1.936   1_545 S
Zn426  O809    1.936   1_455 S
Zn427  O818    1.936   1_455 S
Zn428  O806    1.948   .     S
C429   C507    1.399   .     A
C429   C432    1.397   .     A
C429   H645    1.084   .     S
C430   C442    1.397   .     A
C430   H646    1.083   .     S
C430   C528    1.399   .     A
C431   C534    1.412   .     A
C431   C591    1.397   .     A
C431   C466    1.415   .     S
C432   C535    1.409   .     A
C432   C462    1.415   .     A
C433   C36     1.415   1_655 A
C433   C525    1.397   .     A
C433   C537    1.409   .     A
C434   C538    1.408   .     A
C434   C536    1.397   .     A
C434   C465    1.414   .     S
C435   C547    1.397   .     A
C435   C539    1.412   .     A
C435   C1322   1.415   .     A
C436   C463    1.397   .     A
C436   C540    1.408   .     A
C436   C467    1.414   .     A
C437   C474    1.397   .     A
C437   C541    1.412   .     A
C437   C1324   1.415   .     S
C438   C542    1.409   .     A
C438   C485    1.397   .     A
C438   C469    1.415   .     S
C439   C543    1.409   .     A
C439   C496    1.397   .     A
C439   C42     1.415   1_655 A
C440   C602    1.397   .     A
C440   C544    1.408   .     A
C440   C1323   1.414   .     S
C441   H657    1.084   .     S
C441   C443    1.397   .     A
C441   C101    1.399   1_655 A
C442   C545    1.412   .     A
C442   C468    1.415   .     A
C443   C546    1.409   .     A
C443   C41     1.415   1_655 A
C444   C548    1.409   .     A
C444   C452    1.397   .     A
C444   C470    1.415   .     S
C445   C592    1.404   .     A
C445   C594    1.404   .     A
C445   C564    1.454   .     S
C446   C565    1.454   .     S
C446   C593    1.404   .     A
C446   C590    1.404   .     A
C447   C557    1.454   .     S
C447   C589    1.404   .     A
C447   C596    1.404   .     A
C448   C588    1.404   .     A
C448   C595    1.404   .     A
C448   C559    1.454   .     S
C449   C598    1.404   .     A
C449   C587    1.404   .     A
C449   C560    1.454   .     S
C450   C561    1.454   .     S
C450   C586    1.404   .     A
C450   C597    1.404   .     A
C451   C562    1.454   .     S
C451   C585    1.404   .     A
C451   C600    1.404   .     A
C452   H668    1.084   .     S
C452   C530    1.399   .     S
C453   C599    1.404   .     A
C453   C584    1.404   .     A
C453   C563    1.454   .     S
C454   C583    1.404   .     A
C454   C573    1.454   .     S
C454   C603    1.404   .     A
C455   C574    1.454   .     S
C455   C582    1.404   .     A
C455   C601    1.404   .     A
C456   C581    1.404   .     A
C456   C605    1.404   .     A
C456   C566    1.454   .     S
C457   C579    1.404   .     A
C457   C567    1.454   .     S
C457   C604    1.404   .     A
C458   C578    1.404   .     A
C458   C607    1.404   .     A
C458   C568    1.454   .     S
C459   C606    1.404   .     A
C459   C577    1.404   .     A
C459   C570    1.454   .     S
C460   C609    1.404   .     A
C460   C576    1.404   .     A
C460   C571    1.454   .     S
C461   C575    1.404   .     A
C461   C608    1.404   .     A
C461   C572    1.454   .     S
C462   C464    1.403   .     S
C463   H678    1.083   .     S
C463   C527    1.399   .     A
C464   C611    1.415   .     S
C465   C466    1.403   .     A
C465   C1468   1.414   1_545 A
C466   C1291   1.415   1_545 A
C467   C1296   1.414   1_545 S
C467   C468    1.403   1_556 S
C468   C1293   1.415   1_545 S
C468   C467    1.403   1_554 S
C469   C470    1.403   1_556 S
C470   C469    1.403   1_554 S
C471   C472    1.528   .     S
C471   O821    1.412   .     S
C471   H682    1.115   .     S
C471   H683    1.114   .     S
C472   H684    1.112   .     S
C472   H686    1.112   .     S
C472   C473    1.526   .     S
C473   H689    1.111   .     S
C473   H688    1.110   .     S
C473   H687    1.110   .     S
C474   H679    1.083   .     S
C474   C1384   1.399   .     S
C475   O822    1.413   .     S
C475   H690    1.114   .     S
C475   H691    1.116   .     S
C475   C476    1.528   .     S
C476   H693    1.112   .     S
C476   C477    1.526   .     S
C476   H692    1.112   .     S
C477   H694    1.110   .     S
C477   H695    1.111   .     S
C477   H697    1.111   .     S
C478   H698    1.116   .     S
C478   H699    1.113   .     S
C478   C479    1.527   .     S
C478   O823    1.412   .     S
C479   C480    1.527   .     S
C479   H700    1.112   .     S
C479   H701    1.112   .     S
C480   H703    1.110   .     S
C480   H702    1.111   .     S
C480   H704    1.111   .     S
C481   H706    1.116   .     S
C481   O824    1.417   .     S
C481   H705    1.111   .     S
C481   C482    1.533   .     S
C482   C483    1.527   .     S
C482   H709    1.111   .     S
C482   H708    1.112   .     S
C483   H711    1.110   .     S
C483   H712    1.111   .     S
C483   H710    1.111   .     S
C484   H714    1.114   .     S
C484   C486    1.528   .     S
C484   O825    1.412   .     S
C484   H713    1.115   .     S
C485   H680    1.084   .     S
C485   C529    1.399   .     S
C486   H716    1.112   .     S
C486   C487    1.526   .     S
C486   H715    1.112   .     S
C487   H719    1.110   .     S
C487   H717    1.110   .     S
C487   H720    1.111   .     S
C488   H721    1.114   .     S
C488   C489    1.528   .     S
C488   H722    1.116   .     S
C488   O826    1.413   .     S
C489   H724    1.112   .     S
C489   C490    1.526   .     S
C489   H723    1.112   .     S
C490   H727    1.111   .     S
C490   H725    1.111   .     S
C490   H726    1.111   .     S
C491   H728    1.116   .     S
C491   O827    1.412   .     S
C491   C492    1.527   .     S
C491   H730    1.113   .     S
C492   C493    1.527   .     S
C492   H732    1.112   .     S
C492   H731    1.112   .     S
C493   H735    1.111   .     S
C493   H734    1.110   .     S
C493   H733    1.111   .     S
C494   H736    1.111   .     S
C494   H737    1.116   .     S
C494   C495    1.533   .     S
C494   O829    1.417   .     S
C495   H738    1.112   .     S
C495   C497    1.527   .     S
C495   H739    1.111   .     S
C496   H681    1.084   .     S
C496   C102    1.399   1_655 A
C497   H743    1.111   .     S
C497   H741    1.111   .     S
C497   H742    1.110   .     S
C498   H745    1.113   .     S
C498   O830    1.412   .     S
C498   H744    1.116   .     S
C498   C499    1.527   .     S
C499   H746    1.112   .     S
C499   C500    1.527   .     S
C499   H747    1.112   .     S
C500   H748    1.111   .     S
C500   H749    1.110   .     S
C500   H750    1.111   .     S
C501   C502    1.533   .     S
C501   H753    1.116   .     S
C501   H752    1.111   .     S
C501   O1687   1.417   1_545 S
C502   H754    1.112   .     S
C502   C503    1.527   .     S
C502   H755    1.111   1_554 S
C503   H757    1.110   .     S
C503   H756    1.111   .     S
C503   H758    1.111   .     S
C504   H759    1.115   .     S
C504   H760    1.114   .     S
C504   C505    1.528   .     S
C504   O404    1.412   1_655 S
C505   C506    1.526   .     S
C505   H333    1.112   1_655 S
C505   H335    1.112   1_655 S
C506   H765    1.110   .     S
C506   H766    1.111   .     S
C506   H764    1.110   .     S
C507   C551    1.462   .     S
C508   H768    1.116   .     S
C508   H767    1.114   .     S
C508   C509    1.528   .     S
C508   O833    1.413   .     S
C509   H769    1.112   .     S
C509   H770    1.112   .     S
C509   C510    1.526   .     S
C510   H772    1.111   .     S
C510   H647    1.111   .     S
C510   H771    1.111   .     S
C511   H649    1.113   .     S
C511   C512    1.527   .     S
C511   O834    1.412   .     S
C511   H648    1.116   .     S
C512   H651    1.112   .     S
C512   H650    1.112   .     S
C512   C513    1.527   .     S
C513   H652    1.111   .     S
C513   H653    1.110   .     S
C513   H654    1.111   .     S
C514   H655    1.111   .     S
C514   C515    1.533   .     S
C514   H656    1.116   .     S
C514   O1691   1.417   .     S
C515   C516    1.527   .     S
C515   H658    1.112   .     S
C515   H659    1.111   1_554 S
C516   H660    1.111   .     S
C516   H661    1.110   .     S
C516   H662    1.111   .     S
C517   H664    1.114   .     S
C517   C519    1.528   .     S
C517   H663    1.115   .     S
C518   C552    1.462   .     S
C518   C569    1.399   .     S
C519   C520    1.526   .     S
C520   H667    1.110   .     S
C520   H669    1.110   .     S
C520   H670    1.111   .     S
C521   H672    1.116   .     S
C521   O837    1.413   .     S
C521   H671    1.114   .     S
C521   C522    1.528   .     S
C522   H673    1.112   .     S
C522   C523    1.526   .     S
C522   H674    1.112   .     S
C523   H675    1.111   .     S
C523   H676    1.111   .     S
C523   H677    1.111   .     S
C524   C549    1.462   .     S
C524   C1436   1.399   1_545 A
C524   C536    1.399   .     S
C525   C90     1.399   1_655 A
C525   H685    1.084   .     S
C526   C550    1.462   .     S
C526   C591    1.399   .     A
C526   C1403   1.399   1_545 S
C527   C555    1.462   .     S
C527   C1458   1.399   1_545 S
C528   C556    1.462   .     S
C528   C1330   1.399   1_545 S
C529   C553    1.462   .     S
C530   C554    1.462   .     S
C531   O821    1.385   .     S
C531   C537    1.405   .     A
C531   C610    1.409   .     A
C532   C611    1.409   .     A
C532   C535    1.405   .     A
C532   O822    1.384   .     S
C533   C612    1.408   .     A
C533   O823    1.384   .     S
C533   C539    1.402   .     A
C534   O824    1.386   .     S
C534   C538    1.402   .     A
C535   O825    1.385   .     S
C536   H696    1.083   .     S
C537   O826    1.384   .     S
C538   O827    1.384   .     S
C539   O829    1.386   .     S
C540   O830    1.384   .     S
C540   C545    1.402   1_556 S
C541   O831    1.386   .     S
C541   C544    1.402   1_554 S
C542   O832    1.385   .     S
C542   C548    1.405   1_556 S
C543   O833    1.384   .     S
C543   C546    1.405   1_554 S
C544   O834    1.384   .     S
C544   C541    1.402   1_556 S
C545   O835    1.386   .     S
C545   C540    1.402   1_554 S
C546   O836    1.385   .     S
C546   C543    1.405   1_556 S
C547   H707    1.083   .     S
C547   C1382   1.399   .     S
C548   O837    1.384   .     S
C548   C542    1.405   1_554 S
C549   O1673   1.281   1_545 A
C549   O840    1.281   .     S
C550   O828    1.281   .     A
C550   O1630   1.281   1_545 S
C551   O838    1.281   .     A
C552   O776    1.281   .     S
C553   O777    1.281   .     S
C553   O781    1.281   .     S
C554   O782    1.281   .     A
C554   O778    1.281   .     A
C555   O779    1.281   .     S
C555   O783    1.281   .     S
C556   O780    1.281   .     A
C556   O785    1.281   .     A
C557   O814    1.281   .     A
C557   O786    1.281   .     A
C558   C610    1.397   .     A
C558   H718    1.084   .     S
C558   C79     1.399   1_655 S
C559   O815    1.281   .     A
C559   O787    1.281   .     A
C560   O788    1.281   .     A
C560   O812    1.281   .     A
C561   O813    1.281   .     A
C561   O789    1.281   .     A
C562   O819    1.281   .     A
C562   O790    1.281   .     A
C563   O820    1.281   .     A
C563   O791    1.281   .     A
C564   O816    1.281   .     A
C564   O792    1.281   .     A
C565   O818    1.281   .     A
C565   O793    1.281   .     A
C566   O794    1.281   .     A
C566   O805    1.281   .     A
C567   O807    1.281   .     A
C567   O796    1.281   .     A
C568   O803    1.281   .     A
C568   O797    1.281   .     A
C569   H729    1.084   .     S
C569   C611    1.397   .     A
C570   O798    1.281   .     A
C570   O804    1.281   .     A
C571   O799    1.281   .     A
C571   O810    1.281   .     A
C572   O811    1.281   .     A
C572   O800    1.281   .     A
C573   O808    1.281   .     A
C573   O801    1.281   .     A
C574   O809    1.281   .     A
C574   O802    1.281   .     A
C575   C592    1.386   .     A
C575   F613    1.359   .     S
C576   C590    1.386   .     A
C576   F624    1.359   .     S
C577   C589    1.386   .     A
C577   F635    1.359   .     S
C578   F639    1.359   .     S
C578   C588    1.386   .     A
C579   F640    1.359   .     S
C579   C587    1.386   .     A
C580   C1380   1.399   .     A
C580   H740    1.084   .     S
C580   C612    1.397   .     A
C581   F641    1.359   .     S
C581   C586    1.386   .     A
C582   F642    1.359   .     S
C582   C585    1.386   .     A
C583   C584    1.386   .     A
C583   F643    1.359   .     S
C584   F644    1.359   .     S
C585   F614    1.359   .     S
C586   F615    1.359   .     S
C587   F616    1.359   .     S
C588   F617    1.359   .     S
C589   F618    1.359   .     S
C590   F619    1.359   .     S
C591   H751    1.083   .     S
C592   F620    1.359   .     S
C593   F621    1.359   .     S
C593   C609    1.386   .     A
C594   F622    1.359   .     S
C594   C608    1.386   .     A
C595   F623    1.359   .     S
C595   C607    1.386   .     A
C596   F625    1.359   .     S
C596   C606    1.386   .     A
C597   C605    1.386   .     A
C597   F626    1.359   .     S
C598   C604    1.386   .     A
C598   F627    1.359   .     S
C599   C603    1.386   .     A
C599   F628    1.359   .     S
C600   F629    1.359   .     S
C600   C601    1.386   .     A
C601   F630    1.359   .     S
C602   H762    1.084   .     S
C602   C1383   1.399   .     S
C603   F631    1.359   .     S
C604   F632    1.359   .     S
C605   F633    1.359   .     S
C606   F634    1.359   .     S
C607   F636    1.359   .     S
C608   F637    1.359   .     S
C609   F638    1.359   .     S
C610   C34     1.415   1_655 S
C612   C1321   1.414   .     A
H659   C515    1.111   1_556 S
H665   C91     1.112   1_655 S
H666   C91     1.112   1_655 S
H755   C502    1.111   1_556 S
O773   Zn844   1.948   .     S
O773   Zn841   1.948   .     S
O773   Zn852   1.948   .     S
O773   Zn1704  1.948   1_545 S
O774   Zn843   1.950   .     S
O774   C1406   1.281   .     S
O775   Zn846   1.950   .     S
O775   C123    1.281   1_655 S
O776   Zn845   1.950   .     S
O777   Zn855   1.950   .     S
O778   Zn854   1.950   .     S
O779   Zn849   1.950   .     S
O780   Zn841   1.950   .     S
O781   Zn851   1.950   .     S
O782   Zn850   1.950   .     S
O783   Zn853   1.950   .     S
O784   Zn853   1.948   .     S
O784   Zn847   1.948   .     S
O784   Zn849   1.948   .     S
O784   Zn1699  1.948   1_545 S
O785   Zn852   1.950   .     S
O786   Zn844   1.936   .     S
O787   Zn843   1.936   .     S
O788   Zn846   1.936   .     S
O789   Zn845   1.936   .     S
O790   Zn848   1.936   .     S
O791   Zn847   1.936   .     S
O792   Zn842   1.936   .     S
O793   Zn856   1.936   .     S
O794   Zn843   1.936   .     S
O795   Zn850   1.948   .     S
O795   Zn854   1.948   .     S
O795   Zn842   1.948   .     S
O796   Zn844   1.936   .     S
O797   Zn856   1.936   .     S
O798   Zn842   1.936   .     S
O799   Zn847   1.936   .     S
O800   Zn848   1.936   .     S
O801   Zn845   1.936   .     S
O802   Zn846   1.936   .     S
O803   Zn423   1.936   1_655 S
O804   Zn850   1.936   .     S
O805   Zn1709  1.936   .     S
O806   Zn845   1.948   .     S
O806   Zn855   1.948   .     S
O806   Zn851   1.948   .     S
O807   Zn852   1.936   .     S
O808   Zn855   1.936   .     S
O809   Zn426   1.936   1_655 S
O810   Zn849   1.936   .     S
O811   Zn1697  1.936   .     S
O812   Zn422   1.936   1_655 S
O813   Zn851   1.936   .     S
O814   Zn841   1.936   .     S
O815   Zn1705  1.936   .     S
O816   Zn854   1.936   .     S
O817   Zn848   1.950   .     S
O817   C1405   1.281   .     A
O818   Zn427   1.936   1_655 S
O819   Zn1708  1.936   .     S
O820   Zn853   1.936   .     S
O828   Zn847   1.950   .     S
O831   C1357   1.417   .     S
O835   C1370   1.417   1_545 S
O836   C89     1.412   1_655 S
O838   Zn842   1.950   .     S
O839   Zn856   1.950   .     S
O839   C124    1.281   1_655 A
O840   Zn844   1.950   .     S
Zn841  O1667   1.936   1_545 S
Zn843  O1640   1.948   .     S
Zn846  O367    1.948   1_655 S
Zn848  O1629   1.948   .     S
Zn849  O1671   1.936   1_545 S
Zn852  O1675   1.936   1_545 S
Zn853  O1661   1.936   1_545 S
Zn856  O378    1.948   1_655 S
C857   C935    1.399   .     A
C857   C860    1.397   .     A
C857   H1073   1.084   .     S
C858   C870    1.397   .     A
C858   H1074   1.083   .     S
C858   C956    1.399   .     A
C859   C962    1.412   .     A
C859   C1019   1.397   .     A
C859   C894    1.415   .     S
C860   C963    1.409   .     A
C860   C890    1.415   .     A
C861   C1320   1.415   .     A
C861   C953    1.397   .     A
C861   C965    1.409   .     A
C862   C966    1.408   .     A
C862   C964    1.397   .     A
C862   C893    1.414   .     S
C863   C975    1.397   .     A
C863   C967    1.412   .     A
C863   C38     1.415   1_565 A
C864   C891    1.397   .     A
C864   C968    1.408   .     A
C864   C895    1.414   .     A
C865   C902    1.397   .     A
C865   C969    1.412   .     A
C865   C40     1.415   1_565 S
C866   C970    1.409   .     A
C866   C913    1.397   .     A
C866   C897    1.415   .     S
C867   C971    1.409   .     A
C867   C924    1.397   .     A
C867   C1326   1.415   .     A
C868   C1030   1.397   .     A
C868   C972    1.408   .     A
C868   C39     1.414   1_565 S
C869   H1085   1.084   .     S
C869   C871    1.397   .     A
C869   C1385   1.399   .     A
C870   C973    1.412   .     A
C870   C896    1.415   .     A
C871   C974    1.409   .     A
C871   C1325   1.415   .     A
C872   C976    1.409   .     A
C872   C880    1.397   .     A
C872   C898    1.415   .     S
C873   C1020   1.404   .     A
C873   C1022   1.404   .     A
C873   C992    1.454   .     S
C874   C993    1.454   .     S
C874   C1021   1.404   .     A
C874   C1018   1.404   .     A
C875   C985    1.454   .     S
C875   C1017   1.404   .     A
C875   C1024   1.404   .     A
C876   C1016   1.404   .     A
C876   C1023   1.404   .     A
C876   C987    1.454   .     S
C877   C1026   1.404   .     A
C877   C1015   1.404   .     A
C877   C988    1.454   .     S
C878   C989    1.454   .     S
C878   C1014   1.404   .     A
C878   C1025   1.404   .     A
C879   C990    1.454   .     S
C879   C1013   1.404   .     A
C879   C1028   1.404   .     A
C880   H1096   1.084   .     S
C880   C958    1.399   .     S
C881   C1027   1.404   .     A
C881   C1012   1.404   .     A
C881   C991    1.454   .     S
C882   C1011   1.404   .     A
C882   C1001   1.454   .     S
C882   C1031   1.404   .     A
C883   C1002   1.454   .     S
C883   C1010   1.404   .     A
C883   C1029   1.404   .     A
C884   C1009   1.404   .     A
C884   C1033   1.404   .     A
C884   C994    1.454   .     S
C885   C1007   1.404   .     A
C885   C995    1.454   .     S
C885   C1032   1.404   .     A
C886   C1006   1.404   .     A
C886   C1035   1.404   .     A
C886   C996    1.454   .     S
C887   C1034   1.404   .     A
C887   C1005   1.404   .     A
C887   C998    1.454   .     S
C888   C1037   1.404   .     A
C888   C1004   1.404   .     A
C888   C999    1.454   .     S
C889   C1003   1.404   .     A
C889   C1036   1.404   .     A
C889   C1000   1.454   .     S
C890   C892    1.403   .     S
C890   C1466   1.415   1_455 S
C891   H1106   1.083   .     S
C891   C955    1.399   .     A
C892   C1289   1.415   1_455 A
C892   C1039   1.415   .     S
C893   C894    1.403   .     A
C895   C896    1.403   1_556 S
C896   C895    1.403   1_554 S
C897   C1299   1.415   1_455 A
C897   C898    1.403   1_556 S
C898   C1295   1.415   1_455 A
C898   C897    1.403   1_554 S
C899   C900    1.528   .     S
C899   O1249   1.412   .     S
C899   H1110   1.115   .     S
C899   H1111   1.114   .     S
C900   H1112   1.112   .     S
C900   H1114   1.112   .     S
C900   C901    1.526   .     S
C901   H1117   1.111   .     S
C901   H1116   1.110   .     S
C901   H1115   1.110   .     S
C902   H1107   1.083   .     S
C902   C100    1.399   1_565 S
C903   O1250   1.413   .     S
C903   H1118   1.114   .     S
C903   H1119   1.116   .     S
C903   C904    1.528   .     S
C904   H1121   1.112   .     S
C904   C905    1.526   .     S
C904   H1120   1.112   .     S
C905   H1122   1.110   .     S
C905   H1123   1.111   .     S
C905   H1125   1.111   .     S
C906   H1126   1.116   .     S
C906   H1127   1.113   .     S
C906   C907    1.527   .     S
C906   O1251   1.412   .     S
C907   C908    1.527   .     S
C907   H1128   1.112   .     S
C907   H1129   1.112   .     S
C908   H1131   1.110   .     S
C908   H1130   1.111   .     S
C908   H1132   1.111   .     S
C909   H1134   1.116   .     S
C909   O1252   1.417   .     S
C909   H1133   1.111   .     S
C909   C910    1.533   .     S
C910   C911    1.527   .     S
C910   H1137   1.111   .     S
C910   H1136   1.112   .     S
C911   H1139   1.110   .     S
C911   H1140   1.111   .     S
C911   H1138   1.111   .     S
C912   H1142   1.114   .     S
C912   C914    1.528   .     S
C912   O1253   1.412   .     S
C912   H1141   1.115   .     S
C913   H1108   1.084   .     S
C913   C957    1.399   .     S
C914   H1144   1.112   .     S
C914   C915    1.526   .     S
C914   H1143   1.112   .     S
C915   H1147   1.110   .     S
C915   H1145   1.110   .     S
C915   H1148   1.111   .     S
C916   H1149   1.114   .     S
C916   C917    1.528   .     S
C916   H1150   1.116   .     S
C916   O1254   1.413   .     S
C917   H1152   1.112   .     S
C917   C918    1.526   .     S
C917   H1151   1.112   .     S
C918   H1155   1.111   .     S
C918   H1153   1.111   .     S
C918   H1154   1.111   .     S
C919   H1156   1.116   .     S
C919   O1255   1.412   .     S
C919   C920    1.527   .     S
C919   H1158   1.113   .     S
C920   C921    1.527   .     S
C920   H1160   1.112   .     S
C920   H1159   1.112   .     S
C921   H1163   1.111   .     S
C921   H1162   1.110   .     S
C921   H1161   1.111   .     S
C922   H1164   1.111   .     S
C922   H1165   1.116   .     S
C922   C923    1.533   .     S
C922   O1257   1.417   .     S
C923   H1166   1.112   .     S
C923   C925    1.527   .     S
C923   H1167   1.111   .     S
C924   H1109   1.084   .     S
C924   C1386   1.399   .     A
C925   H1171   1.111   .     S
C925   H1169   1.111   .     S
C925   H1170   1.110   .     S
C926   H1173   1.113   .     S
C926   O1258   1.412   .     S
C926   H1172   1.116   .     S
C926   C927    1.527   .     S
C927   H1174   1.112   .     S
C927   C928    1.527   .     S
C927   H1175   1.112   .     S
C928   H1176   1.111   .     S
C928   H1177   1.110   .     S
C928   H1178   1.111   .     S
C929   C930    1.533   .     S
C929   H1181   1.116   .     S
C929   H1180   1.111   .     S
C930   H1182   1.112   .     S
C930   C931    1.527   .     S
C930   H1183   1.111   1_554 S
C931   H1185   1.110   .     S
C931   H1184   1.111   .     S
C931   H1186   1.111   .     S
C932   H1187   1.115   .     S
C932   H1188   1.114   .     S
C932   C933    1.528   .     S
C932   O1688   1.412   .     S
C933   C934    1.526   .     S
C933   H1617   1.112   .     S
C933   H1619   1.112   .     S
C934   H1193   1.110   .     S
C934   H1194   1.111   .     S
C934   H1192   1.110   .     S
C935   C979    1.462   .     S
C935   C1414   1.399   1_455 S
C936   H1196   1.116   .     S
C936   H1195   1.114   .     S
C936   C937    1.528   .     S
C936   O1261   1.413   .     S
C937   H1197   1.112   .     S
C937   H1198   1.112   .     S
C937   C938    1.526   .     S
C938   H1200   1.111   .     S
C938   H1075   1.111   .     S
C938   H1199   1.111   .     S
C939   H1077   1.113   .     S
C939   C940    1.527   .     S
C939   O1262   1.412   .     S
C939   H1076   1.116   .     S
C940   H1079   1.112   .     S
C940   H1078   1.112   .     S
C940   C941    1.527   .     S
C941   H1080   1.111   .     S
C941   H1081   1.110   .     S
C941   H1082   1.111   .     S
C942   H1083   1.111   .     S
C942   C943    1.533   .     S
C942   H1084   1.116   .     S
C942   O407    1.417   1_565 S
C943   C944    1.527   .     S
C943   H1086   1.112   .     S
C943   H1087   1.111   1_554 S
C944   H1088   1.111   .     S
C944   H1089   1.110   .     S
C944   H1090   1.111   .     S
C945   H1092   1.114   .     S
C945   C947    1.528   .     S
C945   H1091   1.115   .     S
C945   O1692   1.412   1_455 S
C946   C1381   1.399   1_455 A
C946   C980    1.462   .     S
C946   C997    1.399   .     S
C947   C948    1.526   .     S
C947   H1521   1.112   1_455 S
C947   H1522   1.112   1_455 S
C948   H1095   1.110   .     S
C948   H1097   1.110   .     S
C948   H1098   1.111   .     S
C949   H1100   1.116   .     S
C949   O1265   1.413   .     S
C949   H1099   1.114   .     S
C949   C950    1.528   .     S
C950   H1101   1.112   .     S
C950   C951    1.526   .     S
C950   H1102   1.112   .     S
C951   H1103   1.111   .     S
C951   H1104   1.111   .     S
C951   H1105   1.111   .     S
C952   C977    1.462   .     S
C952   C964    1.399   .     S
C953   C1374   1.399   .     A
C953   H1113   1.084   .     S
C954   C978    1.462   .     S
C954   C1019   1.399   .     A
C955   C983    1.462   .     S
C956   C984    1.462   .     S
C957   C981    1.462   .     S
C957   C1297   1.399   1_455 A
C958   C1352   1.399   1_455 A
C958   C982    1.462   .     S
C959   O1249   1.385   .     S
C959   C965    1.405   .     A
C959   C1038   1.409   .     A
C960   C1039   1.409   .     A
C960   C963    1.405   .     A
C960   O1250   1.384   .     S
C961   C1040   1.408   .     A
C961   O1251   1.384   .     S
C961   C967    1.402   .     A
C962   O1252   1.386   .     S
C962   C966    1.402   .     A
C963   O1253   1.385   .     S
C964   H1124   1.083   .     S
C965   O1254   1.384   .     S
C966   O1255   1.384   .     S
C967   O1257   1.386   .     S
C968   O1258   1.384   .     S
C968   C973    1.402   1_556 S
C969   O1259   1.386   .     S
C969   C972    1.402   1_554 S
C970   O1260   1.385   .     S
C970   C976    1.405   1_556 S
C971   O1261   1.384   .     S
C971   C974    1.405   1_554 S
C972   O1262   1.384   .     S
C972   C969    1.402   1_556 S
C973   O1263   1.386   .     S
C973   C968    1.402   1_554 S
C974   O1264   1.385   .     S
C974   C971    1.405   1_556 S
C975   H1135   1.083   .     S
C975   C98     1.399   1_565 S
C976   O1265   1.384   .     S
C976   C970    1.405   1_554 S
C977   O1268   1.281   .     S
C978   O1256   1.281   .     A
C979   O1266   1.281   .     A
C979   O1631   1.281   1_455 S
C980   O1695   1.281   1_455 A
C980   O1204   1.281   .     S
C981   O1205   1.281   .     S
C981   O1209   1.281   .     S
C982   O1210   1.281   .     A
C982   O1206   1.281   .     A
C983   O1207   1.281   .     S
C983   O1211   1.281   .     S
C984   O1208   1.281   .     A
C984   O1213   1.281   .     A
C985   O1242   1.281   .     A
C985   O1214   1.281   .     A
C986   C1038   1.397   .     A
C986   H1146   1.084   .     S
C986   C1363   1.399   .     S
C987   O1243   1.281   .     A
C987   O1215   1.281   .     A
C988   O1216   1.281   .     A
C988   O1240   1.281   .     A
C989   O1241   1.281   .     A
C989   O1217   1.281   .     A
C990   O1247   1.281   .     A
C990   O1218   1.281   .     A
C991   O1248   1.281   .     A
C991   O1219   1.281   .     A
C992   O1244   1.281   .     A
C992   O1220   1.281   .     A
C993   O1246   1.281   .     A
C993   O1221   1.281   .     A
C994   O1222   1.281   .     A
C994   O1233   1.281   .     A
C995   O1235   1.281   .     A
C995   O1224   1.281   .     A
C996   O1231   1.281   .     A
C996   O1225   1.281   .     A
C997   H1157   1.084   .     S
C997   C1039   1.397   .     A
C998   O1226   1.281   .     A
C998   O1232   1.281   .     A
C999   O1227   1.281   .     A
C999   O1238   1.281   .     A
C1000  O1239   1.281   .     A
C1000  O1228   1.281   .     A
C1001  O1236   1.281   .     A
C1001  O1229   1.281   .     A
C1002  O1237   1.281   .     A
C1002  O1230   1.281   .     A
C1003  C1020   1.386   .     A
C1003  F1041   1.359   .     S
C1004  C1018   1.386   .     A
C1004  F1052   1.359   .     S
C1005  C1017   1.386   .     A
C1005  F1063   1.359   .     S
C1006  F1067   1.359   .     S
C1006  C1016   1.386   .     A
C1007  F1068   1.359   .     S
C1007  C1015   1.386   .     A
C1008  C96     1.399   1_565 A
C1008  H1168   1.084   .     S
C1008  C1040   1.397   .     A
C1009  F1069   1.359   .     S
C1009  C1014   1.386   .     A
C1010  F1070   1.359   .     S
C1010  C1013   1.386   .     A
C1011  C1012   1.386   .     A
C1011  F1071   1.359   .     S
C1012  F1072   1.359   .     S
C1013  F1042   1.359   .     S
C1014  F1043   1.359   .     S
C1015  F1044   1.359   .     S
C1016  F1045   1.359   .     S
C1017  F1046   1.359   .     S
C1018  F1047   1.359   .     S
C1019  H1179   1.083   .     S
C1020  F1048   1.359   .     S
C1021  F1049   1.359   .     S
C1021  C1037   1.386   .     A
C1022  F1050   1.359   .     S
C1022  C1036   1.386   .     A
C1023  F1051   1.359   .     S
C1023  C1035   1.386   .     A
C1024  F1053   1.359   .     S
C1024  C1034   1.386   .     A
C1025  C1033   1.386   .     A
C1025  F1054   1.359   .     S
C1026  C1032   1.386   .     A
C1026  F1055   1.359   .     S
C1027  C1031   1.386   .     A
C1027  F1056   1.359   .     S
C1028  F1057   1.359   .     S
C1028  C1029   1.386   .     A
C1029  F1058   1.359   .     S
C1030  H1190   1.084   .     S
C1030  C99     1.399   1_565 S
C1031  F1059   1.359   .     S
C1032  F1060   1.359   .     S
C1033  F1061   1.359   .     S
C1034  F1062   1.359   .     S
C1035  F1064   1.359   .     S
C1036  F1065   1.359   .     S
C1037  F1066   1.359   .     S
C1038  C1318   1.415   .     S
C1040  C37     1.414   1_565 A
H1087  C943    1.111   1_556 S
H1093  C1375   1.112   .     S
H1094  C1375   1.112   .     S
H1183  C930    1.111   1_556 S
H1189  C1361   1.112   1_455 S
H1191  C1361   1.112   1_455 S
O1201  Zn1272  1.948   .     S
O1201  Zn1269  1.948   .     S
O1201  Zn1280  1.948   .     S
O1202  Zn1271  1.950   .     S
O1202  C122    1.281   1_565 S
O1203  Zn1274  1.950   .     S
O1203  C1407   1.281   .     S
O1204  Zn1273  1.950   .     S
O1205  Zn1283  1.950   .     S
O1206  Zn1282  1.950   .     S
O1207  Zn1277  1.950   .     S
O1208  Zn1269  1.950   .     S
O1209  Zn1279  1.950   .     S
O1210  Zn1278  1.950   .     S
O1211  Zn1281  1.950   .     S
O1212  Zn1281  1.948   .     S
O1212  Zn1275  1.948   .     S
O1212  Zn1277  1.948   .     S
O1213  Zn1280  1.950   .     S
O1214  Zn1272  1.936   .     S
O1215  Zn1271  1.936   .     S
O1216  Zn1274  1.936   .     S
O1217  Zn1273  1.936   .     S
O1218  Zn1276  1.936   .     S
O1219  Zn1275  1.936   .     S
O1220  Zn1270  1.936   .     S
O1221  Zn1284  1.936   .     S
O1222  Zn1271  1.936   .     S
O1223  Zn1278  1.948   .     S
O1223  Zn1282  1.948   .     S
O1223  Zn1270  1.948   .     S
O1223  Zn1702  1.948   1_455 S
O1224  Zn1272  1.936   .     S
O1225  Zn1284  1.936   .     S
O1226  Zn1270  1.936   .     S
O1227  Zn1275  1.936   .     S
O1228  Zn1276  1.936   .     S
O1229  Zn1273  1.936   .     S
O1230  Zn1274  1.936   .     S
O1231  Zn1707  1.936   .     S
O1232  Zn1278  1.936   .     S
O1233  Zn425   1.936   1_565 S
O1234  Zn1273  1.948   .     S
O1234  Zn1283  1.948   .     S
O1234  Zn1279  1.948   .     S
O1234  Zn1712  1.948   1_455 S
O1235  Zn1280  1.936   .     S
O1236  Zn1283  1.936   .     S
O1237  Zn1710  1.936   .     S
O1238  Zn1277  1.936   .     S
O1239  Zn413   1.936   1_565 S
O1240  Zn1706  1.936   .     S
O1241  Zn1279  1.936   .     S
O1242  Zn1269  1.936   .     S
O1243  Zn421   1.936   1_565 S
O1244  Zn1282  1.936   .     S
O1245  Zn1276  1.950   .     S
O1245  C121    1.281   1_565 A
O1246  Zn1711  1.936   .     S
O1247  Zn424   1.936   1_565 S
O1248  Zn1281  1.936   .     S
O1256  Zn1275  1.950   .     S
O1259  C73     1.417   1_565 S
O1260  C1360   1.412   1_455 S
O1264  C1373   1.412   .     S
O1266  Zn1270  1.950   .     S
O1267  Zn1284  1.950   .     S
O1267  C1408   1.281   .     A
O1268  Zn1272  1.950   .     S
Zn1271 O356    1.948   1_565 S
Zn1274 O1651   1.948   .     S
Zn1276 O345    1.948   1_565 S
Zn1278 O1668   1.936   1_455 S
Zn1279 O1659   1.936   1_455 S
Zn1282 O1665   1.936   1_455 S
Zn1283 O1674   1.936   1_455 S
Zn1284 O1662   1.948   .     S
C1285  C1363   1.399   .     A
C1285  C1288   1.397   .     A
C1285  H1501   1.084   .     S
C1286  C1298   1.397   .     A
C1286  H1502   1.083   .     S
C1286  C1384   1.399   .     A
C1287  C1390   1.412   .     A
C1287  C1447   1.397   .     A
C1287  C1322   1.415   .     S
C1288  C1391   1.409   .     A
C1288  C1318   1.415   .     A
C1289  C892    1.415   1_655 A
C1289  C1381   1.397   .     A
C1289  C1393   1.409   .     A
C1290  C1394   1.408   .     A
C1290  C1392   1.397   .     A
C1290  C1321   1.414   .     S
C1291  C1403   1.397   .     A
C1291  C1395   1.412   .     A
C1291  C466    1.415   1_565 A
C1292  C1319   1.397   .     A
C1292  C1396   1.408   .     A
C1292  C1323   1.414   .     A
C1293  C1330   1.397   .     A
C1293  C1397   1.412   .     A
C1293  C468    1.415   1_565 S
C1294  C1398   1.409   .     A
C1294  C1341   1.397   .     A
C1294  C1325   1.415   .     S
C1295  C1399   1.409   .     A
C1295  C1352   1.397   .     A
C1295  C898    1.415   1_655 A
C1296  C1458   1.397   .     A
C1296  C1400   1.408   .     A
C1296  C467    1.414   1_565 S
C1297  H1513   1.084   .     S
C1297  C1299   1.397   .     A
C1297  C957    1.399   1_655 A
C1298  C1401   1.412   .     A
C1298  C1324   1.415   .     A
C1299  C1402   1.409   .     A
C1299  C897    1.415   1_655 A
C1300  C1404   1.409   .     A
C1300  C1308   1.397   .     A
C1300  C1326   1.415   .     S
C1301  C1448   1.404   .     A
C1301  C1450   1.404   .     A
C1301  C1420   1.454   .     S
C1302  C1421   1.454   .     S
C1302  C1449   1.404   .     A
C1302  C1446   1.404   .     A
C1303  C1413   1.454   .     S
C1303  C1445   1.404   .     A
C1303  C1452   1.404   .     A
C1304  C1444   1.404   .     A
C1304  C1451   1.404   .     A
C1304  C1415   1.454   .     S
C1305  C1454   1.404   .     A
C1305  C1443   1.404   .     A
C1305  C1416   1.454   .     S
C1306  C1417   1.454   .     S
C1306  C1442   1.404   .     A
C1306  C1453   1.404   .     A
C1307  C1418   1.454   .     S
C1307  C1441   1.404   .     A
C1307  C1456   1.404   .     A
C1308  H1524   1.084   .     S
C1308  C1386   1.399   .     S
C1309  C1455   1.404   .     A
C1309  C1440   1.404   .     A
C1309  C1419   1.454   .     S
C1310  C1439   1.404   .     A
C1310  C1429   1.454   .     S
C1310  C1459   1.404   .     A
C1311  C1430   1.454   .     S
C1311  C1438   1.404   .     A
C1311  C1457   1.404   .     A
C1312  C1437   1.404   .     A
C1312  C1461   1.404   .     A
C1312  C1422   1.454   .     S
C1313  C1435   1.404   .     A
C1313  C1423   1.454   .     S
C1313  C1460   1.404   .     A
C1314  C1434   1.404   .     A
C1314  C1463   1.404   .     A
C1314  C1424   1.454   .     S
C1315  C1462   1.404   .     A
C1315  C1433   1.404   .     A
C1315  C1426   1.454   .     S
C1316  C1465   1.404   .     A
C1316  C1432   1.404   .     A
C1316  C1427   1.454   .     S
C1317  C1431   1.404   .     A
C1317  C1464   1.404   .     A
C1317  C1428   1.454   .     S
C1318  C1320   1.403   .     S
C1319  H1534   1.083   .     S
C1319  C1383   1.399   .     A
C1320  C1467   1.415   .     S
C1321  C1322   1.403   .     A
C1323  C1324   1.403   1_556 S
C1324  C1323   1.403   1_554 S
C1325  C1326   1.403   1_556 S
C1326  C1325   1.403   1_554 S
C1327  C1328   1.528   .     S
C1327  O1677   1.412   .     S
C1327  H1538   1.115   .     S
C1327  H1539   1.114   .     S
C1328  H1540   1.112   .     S
C1328  H1542   1.112   .     S
C1328  C1329   1.526   .     S
C1329  H1545   1.111   .     S
C1329  H1544   1.110   .     S
C1329  H1543   1.110   .     S
C1330  H1535   1.083   .     S
C1330  C528    1.399   1_565 S
C1331  O1678   1.413   .     S
C1331  H1546   1.114   .     S
C1331  H1547   1.116   .     S
C1331  C1332   1.528   .     S
C1332  H1549   1.112   .     S
C1332  C1333   1.526   .     S
C1332  H1548   1.112   .     S
C1333  H1550   1.110   .     S
C1333  H1551   1.111   .     S
C1333  H1553   1.111   .     S
C1334  H1554   1.116   .     S
C1334  H1555   1.113   .     S
C1334  C1335   1.527   .     S
C1334  O1679   1.412   .     S
C1335  C1336   1.527   .     S
C1335  H1556   1.112   .     S
C1335  H1557   1.112   .     S
C1336  H1559   1.110   .     S
C1336  H1558   1.111   .     S
C1336  H1560   1.111   .     S
C1337  H1562   1.116   .     S
C1337  O1680   1.417   .     S
C1337  H1561   1.111   .     S
C1337  C1338   1.533   .     S
C1338  C1339   1.527   .     S
C1338  H1565   1.111   .     S
C1338  H1564   1.112   .     S
C1339  H1567   1.110   .     S
C1339  H1568   1.111   .     S
C1339  H1566   1.111   .     S
C1340  H1570   1.114   .     S
C1340  C1342   1.528   .     S
C1340  O1681   1.412   .     S
C1340  H1569   1.115   .     S
C1341  H1536   1.084   .     S
C1341  C1385   1.399   .     S
C1342  H1572   1.112   .     S
C1342  C1343   1.526   .     S
C1342  H1571   1.112   .     S
C1343  H1575   1.110   .     S
C1343  H1573   1.110   .     S
C1343  H1576   1.111   .     S
C1344  H1577   1.114   .     S
C1344  C1345   1.528   .     S
C1344  H1578   1.116   .     S
C1344  O1682   1.413   .     S
C1345  H1580   1.112   .     S
C1345  C1346   1.526   .     S
C1345  H1579   1.112   .     S
C1346  H1583   1.111   .     S
C1346  H1581   1.111   .     S
C1346  H1582   1.111   .     S
C1347  H1584   1.116   .     S
C1347  O1683   1.412   .     S
C1347  C1348   1.527   .     S
C1347  H1586   1.113   .     S
C1348  C1349   1.527   .     S
C1348  H1588   1.112   .     S
C1348  H1587   1.112   .     S
C1349  H1591   1.111   .     S
C1349  H1590   1.110   .     S
C1349  H1589   1.111   .     S
C1350  H1592   1.111   .     S
C1350  H1593   1.116   .     S
C1350  C1351   1.533   .     S
C1350  O1685   1.417   .     S
C1351  H1594   1.112   .     S
C1351  C1353   1.527   .     S
C1351  H1595   1.111   .     S
C1352  H1537   1.084   .     S
C1352  C958    1.399   1_655 A
C1353  H1599   1.111   .     S
C1353  H1597   1.111   .     S
C1353  H1598   1.110   .     S
C1354  H1601   1.113   .     S
C1354  O1686   1.412   .     S
C1354  H1600   1.116   .     S
C1354  C1355   1.527   .     S
C1355  H1602   1.112   .     S
C1355  C1356   1.527   .     S
C1355  H1603   1.112   .     S
C1356  H1604   1.111   .     S
C1356  H1605   1.110   .     S
C1356  H1606   1.111   .     S
C1357  C1358   1.533   .     S
C1357  H1609   1.116   .     S
C1357  H1608   1.111   .     S
C1358  H1610   1.112   .     S
C1358  C1359   1.527   .     S
C1358  H1611   1.111   1_554 S
C1359  H1613   1.110   .     S
C1359  H1612   1.111   .     S
C1359  H1614   1.111   .     S
C1360  H1615   1.115   .     S
C1360  H1616   1.114   .     S
C1360  C1361   1.528   .     S
C1360  O1260   1.412   1_655 S
C1361  C1362   1.526   .     S
C1361  H1189   1.112   1_655 S
C1361  H1191   1.112   1_655 S
C1362  H1621   1.110   .     S
C1362  H1622   1.111   .     S
C1362  H1620   1.110   .     S
C1363  C1407   1.462   .     S
C1364  H1624   1.116   .     S
C1364  H1623   1.114   .     S
C1364  C1365   1.528   .     S
C1364  O1689   1.413   .     S
C1365  H1625   1.112   .     S
C1365  H1626   1.112   .     S
C1365  C1366   1.526   .     S
C1366  H1628   1.111   .     S
C1366  H1503   1.111   .     S
C1366  H1627   1.111   .     S
C1367  H1505   1.113   .     S
C1367  C1368   1.527   .     S
C1367  O1690   1.412   .     S
C1367  H1504   1.116   .     S
C1368  H1507   1.112   .     S
C1368  H1506   1.112   .     S
C1368  C1369   1.527   .     S
C1369  H1508   1.111   .     S
C1369  H1509   1.110   .     S
C1369  H1510   1.111   .     S
C1370  H1511   1.111   .     S
C1370  C1371   1.533   .     S
C1370  H1512   1.116   .     S
C1370  O835    1.417   1_565 S
C1371  C1372   1.527   .     S
C1371  H1514   1.112   .     S
C1371  H1515   1.111   1_554 S
C1372  H1516   1.111   .     S
C1372  H1517   1.110   .     S
C1372  H1518   1.111   .     S
C1373  H1520   1.114   .     S
C1373  C1375   1.528   .     S
C1373  H1519   1.115   .     S
C1374  C1408   1.462   .     S
C1374  C1425   1.399   .     S
C1375  C1376   1.526   .     S
C1376  H1523   1.110   .     S
C1376  H1525   1.110   .     S
C1376  H1526   1.111   .     S
C1377  H1528   1.116   .     S
C1377  O1693   1.413   .     S
C1377  H1527   1.114   .     S
C1377  C1378   1.528   .     S
C1378  H1529   1.112   .     S
C1378  C1379   1.526   .     S
C1378  H1530   1.112   .     S
C1379  H1531   1.111   .     S
C1379  H1532   1.111   .     S
C1379  H1533   1.111   .     S
C1380  C1405   1.462   .     S
C1380  C1392   1.399   .     S
C1381  C946    1.399   1_655 A
C1381  H1541   1.084   .     S
C1382  C1406   1.462   .     S
C1382  C1447   1.399   .     A
C1383  C1411   1.462   .     S
C1384  C1412   1.462   .     S
C1385  C1409   1.462   .     S
C1386  C1410   1.462   .     S
C1387  O1677   1.385   .     S
C1387  C1393   1.405   .     A
C1387  C1466   1.409   .     A
C1388  C1467   1.409   .     A
C1388  C1391   1.405   .     A
C1388  O1678   1.384   .     S
C1389  C1468   1.408   .     A
C1389  O1679   1.384   .     S
C1389  C1395   1.402   .     A
C1390  O1680   1.386   .     S
C1390  C1394   1.402   .     A
C1391  O1681   1.385   .     S
C1392  H1552   1.083   .     S
C1393  O1682   1.384   .     S
C1394  O1683   1.384   .     S
C1395  O1685   1.386   .     S
C1396  O1686   1.384   .     S
C1396  C1401   1.402   1_556 S
C1397  O1687   1.386   .     S
C1397  C1400   1.402   1_554 S
C1398  O1688   1.385   .     S
C1398  C1404   1.405   1_556 S
C1399  O1689   1.384   .     S
C1399  C1402   1.405   1_554 S
C1400  O1690   1.384   .     S
C1400  C1397   1.402   1_556 S
C1401  O1691   1.386   .     S
C1401  C1396   1.402   1_554 S
C1402  O1692   1.385   .     S
C1402  C1399   1.405   1_556 S
C1403  H1563   1.083   .     S
C1403  C526    1.399   1_565 S
C1404  O1693   1.384   .     S
C1404  C1398   1.405   1_554 S
C1405  O1696   1.281   .     S
C1406  O1684   1.281   .     A
C1407  O1694   1.281   .     A
C1408  O1632   1.281   .     S
C1409  O1633   1.281   .     S
C1409  O1637   1.281   .     S
C1410  O1638   1.281   .     A
C1410  O1634   1.281   .     A
C1411  O1635   1.281   .     S
C1411  O1639   1.281   .     S
C1412  O1636   1.281   .     A
C1412  O1641   1.281   .     A
C1413  O1670   1.281   .     A
C1413  O1642   1.281   .     A
C1414  C1466   1.397   .     A
C1414  H1574   1.084   .     S
C1414  C935    1.399   1_655 S
C1415  O1671   1.281   .     A
C1415  O1643   1.281   .     A
C1416  O1644   1.281   .     A
C1416  O1668   1.281   .     A
C1417  O1669   1.281   .     A
C1417  O1645   1.281   .     A
C1418  O1675   1.281   .     A
C1418  O1646   1.281   .     A
C1419  O1676   1.281   .     A
C1419  O1647   1.281   .     A
C1420  O1672   1.281   .     A
C1420  O1648   1.281   .     A
C1421  O1674   1.281   .     A
C1421  O1649   1.281   .     A
C1422  O1650   1.281   .     A
C1422  O1661   1.281   .     A
C1423  O1663   1.281   .     A
C1423  O1652   1.281   .     A
C1424  O1659   1.281   .     A
C1424  O1653   1.281   .     A
C1425  H1585   1.084   .     S
C1425  C1467   1.397   .     A
C1426  O1654   1.281   .     A
C1426  O1660   1.281   .     A
C1427  O1655   1.281   .     A
C1427  O1666   1.281   .     A
C1428  O1667   1.281   .     A
C1428  O1656   1.281   .     A
C1429  O1664   1.281   .     A
C1429  O1657   1.281   .     A
C1430  O1665   1.281   .     A
C1430  O1658   1.281   .     A
C1431  C1448   1.386   .     A
C1431  F1469   1.359   .     S
C1432  C1446   1.386   .     A
C1432  F1480   1.359   .     S
C1433  C1445   1.386   .     A
C1433  F1491   1.359   .     S
C1434  F1495   1.359   .     S
C1434  C1444   1.386   .     A
C1435  F1496   1.359   .     S
C1435  C1443   1.386   .     A
C1436  C524    1.399   1_565 A
C1436  H1596   1.084   .     S
C1436  C1468   1.397   .     A
C1437  F1497   1.359   .     S
C1437  C1442   1.386   .     A
C1438  F1498   1.359   .     S
C1438  C1441   1.386   .     A
C1439  C1440   1.386   .     A
C1439  F1499   1.359   .     S
C1440  F1500   1.359   .     S
C1441  F1470   1.359   .     S
C1442  F1471   1.359   .     S
C1443  F1472   1.359   .     S
C1444  F1473   1.359   .     S
C1445  F1474   1.359   .     S
C1446  F1475   1.359   .     S
C1447  H1607   1.083   .     S
C1448  F1476   1.359   .     S
C1449  F1477   1.359   .     S
C1449  C1465   1.386   .     A
C1450  F1478   1.359   .     S
C1450  C1464   1.386   .     A
C1451  F1479   1.359   .     S
C1451  C1463   1.386   .     A
C1452  F1481   1.359   .     S
C1452  C1462   1.386   .     A
C1453  C1461   1.386   .     A
C1453  F1482   1.359   .     S
C1454  C1460   1.386   .     A
C1454  F1483   1.359   .     S
C1455  C1459   1.386   .     A
C1455  F1484   1.359   .     S
C1456  F1485   1.359   .     S
C1456  C1457   1.386   .     A
C1457  F1486   1.359   .     S
C1458  H1618   1.084   .     S
C1458  C527    1.399   1_565 S
C1459  F1487   1.359   .     S
C1460  F1488   1.359   .     S
C1461  F1489   1.359   .     S
C1462  F1490   1.359   .     S
C1463  F1492   1.359   .     S
C1464  F1493   1.359   .     S
C1465  F1494   1.359   .     S
C1466  C890    1.415   1_655 S
C1468  C465    1.414   1_565 A
H1515  C1371   1.111   1_556 S
H1521  C947    1.112   1_655 S
H1522  C947    1.112   1_655 S
H1611  C1358   1.111   1_556 S
O1629  Zn1700  1.948   .     S
O1629  Zn1697  1.948   .     S
O1629  Zn1708  1.948   .     S
O1630  Zn1699  1.950   .     S
O1630  C550    1.281   1_565 S
O1631  Zn1702  1.950   .     S
O1631  C979    1.281   1_655 S
O1632  Zn1701  1.950   .     S
O1633  Zn1711  1.950   .     S
O1634  Zn1710  1.950   .     S
O1635  Zn1705  1.950   .     S
O1636  Zn1697  1.950   .     S
O1637  Zn1707  1.950   .     S
O1638  Zn1706  1.950   .     S
O1639  Zn1709  1.950   .     S
O1640  Zn1709  1.948   .     S
O1640  Zn1703  1.948   .     S
O1640  Zn1705  1.948   .     S
O1641  Zn1708  1.950   .     S
O1642  Zn1700  1.936   .     S
O1643  Zn1699  1.936   .     S
O1644  Zn1702  1.936   .     S
O1645  Zn1701  1.936   .     S
O1646  Zn1704  1.936   .     S
O1647  Zn1703  1.936   .     S
O1648  Zn1698  1.936   .     S
O1649  Zn1712  1.936   .     S
O1650  Zn1699  1.936   .     S
O1651  Zn1706  1.948   .     S
O1651  Zn1710  1.948   .     S
O1651  Zn1698  1.948   .     S
O1652  Zn1700  1.936   .     S
O1653  Zn1712  1.936   .     S
O1654  Zn1698  1.936   .     S
O1655  Zn1703  1.936   .     S
O1656  Zn1704  1.936   .     S
O1657  Zn1701  1.936   .     S
O1658  Zn1702  1.936   .     S
O1659  Zn1279  1.936   1_655 S
O1660  Zn1706  1.936   .     S
O1661  Zn853   1.936   1_565 S
O1662  Zn1701  1.948   .     S
O1662  Zn1711  1.948   .     S
O1662  Zn1707  1.948   .     S
O1663  Zn1708  1.936   .     S
O1664  Zn1711  1.936   .     S
O1665  Zn1282  1.936   1_655 S
O1666  Zn1705  1.936   .     S
O1667  Zn841   1.936   1_565 S
O1668  Zn1278  1.936   1_655 S
O1669  Zn1707  1.936   .     S
O1670  Zn1697  1.936   .     S
O1671  Zn849   1.936   1_565 S
O1672  Zn1710  1.936   .     S
O1673  Zn1704  1.950   .     S
O1673  C549    1.281   1_565 A
O1674  Zn1283  1.936   1_655 S
O1675  Zn852   1.936   1_565 S
O1676  Zn1709  1.936   .     S
O1684  Zn1703  1.950   .     S
O1687  C501    1.417   1_565 S
O1692  C945    1.412   1_655 S
O1694  Zn1698  1.950   .     S
O1695  Zn1712  1.950   .     S
O1695  C980    1.281   1_655 A
O1696  Zn1700  1.950   .     S
Zn1699 O784    1.948   1_565 S
Zn1702 O1223   1.948   1_655 S
Zn1704 O773    1.948   1_565 S
Zn1712 O1234   1.948   1_655 S
