data_str_m1_o10_o16_pcu_sym.155
_audit_creation_date              2020-01-03
_audit_creation_method            'Materials Studio'
_symmetry_space_group_name_H-M    'P1'
_symmetry_Int_Tables_number       1
_symmetry_cell_setting            triclinic
loop_
_symmetry_equiv_pos_as_xyz
  x,y,z
_cell_length_a                    32.5989
_cell_length_b                    32.5930
_cell_length_c                    31.0456
_cell_angle_alpha                 96.3176
_cell_angle_beta                  74.4751
_cell_angle_gamma                 97.8616
loop_
_atom_site_label
_atom_site_type_symbol
_atom_site_fract_x
_atom_site_fract_y
_atom_site_fract_z
_atom_site_U_iso_or_equiv
_atom_site_adp_type
_atom_site_occupancy
C1     C     0.05294   0.15995   0.26028   0.00000  Uiso   1.00
C2     C     0.16733   0.15867   0.06031   0.00000  Uiso   1.00
C3     C     0.23191   0.12707   0.05607   0.00000  Uiso   1.00
C4     C     0.28075   0.17378   0.24021   0.00000  Uiso   1.00
C5     C     0.13830   0.18980   0.42017   0.00000  Uiso   1.00
C6     C     0.32672   0.17474   0.23563   0.00000  Uiso   1.00
C7     C     0.00716   0.15809   0.26657   0.00000  Uiso   1.00
C8     C     0.17839   0.32232   0.23703   0.00000  Uiso   1.00
C9     C     0.15074   0.01225   0.26621   0.00000  Uiso   1.00
C10    C     0.15666   0.05611   0.25996   0.00000  Uiso   1.00
C11    C     0.17629   0.27792   0.24044   0.00000  Uiso   1.00
C12    C     0.07877   0.18668   0.48729   0.00000  Uiso   1.00
C13    C     0.18542   0.14837   0.12950   0.00000  Uiso   1.00
C14    C     0.14931   0.18543   0.37083   0.00000  Uiso   1.00
C15    C     0.24483   0.13041   0.00952   0.00000  Uiso   1.00
C16    C     0.19379   0.14234   0.08108   0.00000  Uiso   1.00
C17    C     0.09578   0.19555   0.44238   0.00000  Uiso   1.00
C18    C     0.29336   0.13358   0.07999   0.00000  Uiso   1.00
C19    C     0.32665   0.11823   0.32789   0.00000  Uiso   1.00
C20    C     0.08828   0.02067   0.32352   0.00000  Uiso   1.00
C21    C     0.27697   0.07671   0.46763   0.00000  Uiso   1.00
C22    C     0.01726   0.21961   0.49800   0.00000  Uiso   1.00
C23    C     0.10476   0.17095   0.00925   0.00000  Uiso   1.00
C24    C     0.03057   0.23215   0.20250   0.00000  Uiso   1.00
C25    C     0.14952   0.17076   0.48998   0.00000  Uiso   1.00
C26    C     0.16640   0.18039   0.44458   0.00000  Uiso   1.00
C27    C     0.17762   0.15865   0.01327   0.00000  Uiso   1.00
C28    C     0.21915   0.14902   0.48884   0.00000  Uiso   1.00
C29    C     0.23553   0.16062   0.44504   0.00000  Uiso   1.00
C30    C     0.21064   0.17897   0.42446   0.00000  Uiso   1.00
F31    F     0.13604   0.18062   0.08676   0.00000  Uiso   1.00
F32    F     0.08454   0.15190   0.04722   0.00000  Uiso   1.00
F33    F     0.23065   0.19636   0.38540   0.00000  Uiso   1.00
H34    H     0.20278   0.00298   0.20971   0.00000  Uiso   1.00
H35    H     0.07178   0.02812   0.29873   0.00000  Uiso   1.00
H36    H     0.10102   0.04948   0.34057   0.00000  Uiso   1.00
H37    H     0.06400   0.00341   0.34952   0.00000  Uiso   1.00
H38    H     0.30821   0.06680   0.44784   0.00000  Uiso   1.00
H39    H     0.25551   0.07372   0.44468   0.00000  Uiso   1.00
H40    H     0.26376   0.05547   0.49501   0.00000  Uiso   1.00
H41    H     0.00747   0.21116   0.46625   0.00000  Uiso   1.00
H42    H     0.03901   0.24924   0.49615   0.00000  Uiso   1.00
H43    H     0.32109   0.22493   0.02472   0.00000  Uiso   1.00
H44    H     0.04414   0.24204   0.23181   0.00000  Uiso   1.00
H45    H     0.26859   0.15757   0.42730   0.00000  Uiso   1.00
H46    H     0.00133   0.24753   0.20586   0.00000  Uiso   1.00
H47    H     0.05476   0.24298   0.17222   0.00000  Uiso   1.00
H48    H     0.07468   0.20265   0.42328   0.00000  Uiso   1.00
H49    H     0.30321   0.12616   0.10954   0.00000  Uiso   1.00
H50    H     0.28955   0.16739   0.08431   0.00000  Uiso   1.00
H51    H     0.31947   0.12662   0.04991   0.00000  Uiso   1.00
H52    H     0.02017   0.13230   0.34240   0.00000  Uiso   1.00
H53    H     0.00279   0.09104   0.30394   0.00000  Uiso   1.00
H54    H     0.30000   0.10664   0.35588   0.00000  Uiso   1.00
O55    O     0.16667   0.16667   0.25000   0.00000  Uiso   1.00
O56    O     0.15451   0.12637   0.15458   0.00000  Uiso   1.00
O57    O     0.12940   0.20391   0.34968   0.00000  Uiso   1.00
O58    O     0.20824   0.17759   0.14606   0.00000  Uiso   1.00
O59    O     0.17451   0.15880   0.34968   0.00000  Uiso   1.00
O60    O     0.25538   0.10789   0.07763   0.00000  Uiso   1.00
O61    O     0.31219   0.14819   0.30758   0.00000  Uiso   1.00
O62    O     0.12111   0.32860   0.30326   0.00000  Uiso   1.00
O63    O     0.28386   0.11814   0.48499   0.00000  Uiso   1.00
O64    O     0.03547   0.18659   0.00905   0.00000  Uiso   1.00
O65    O     0.02220   0.18855   0.19695   0.00000  Uiso   1.00
O66    O     0.17930   0.08019   0.28213   0.00000  Uiso   1.00
O67    O     0.14632   0.26085   0.27013   0.00000  Uiso   1.00
O68    O     0.07412   0.13291   0.23413   0.00000  Uiso   1.00
O69    O     0.26693   0.19272   0.21360   0.00000  Uiso   1.00
O70    O     0.07071   0.18878   0.28213   0.00000  Uiso   1.00
O71    O     0.25491   0.15226   0.27013   0.00000  Uiso   1.00
O72    O     0.13760   0.06944   0.23413   0.00000  Uiso   1.00
O73    O     0.20345   0.25620   0.21360   0.00000  Uiso   1.00
Zn74   Zn    0.19338   0.13994   0.28734   0.00000  Uiso   1.00
Zn75   Zn    0.13379   0.12458   0.21875   0.00000  Uiso   1.00
Zn76   Zn    0.21056   0.19775   0.20657   0.00000  Uiso   1.00
Zn77   Zn    0.12893   0.20439   0.28733   0.00000  Uiso   1.00
C78    C     0.38628   0.15995   0.26028   0.00000  Uiso   1.00
C79    C     0.50066   0.15867   0.06031   0.00000  Uiso   1.00
C80    C     0.56524   0.12707   0.05607   0.00000  Uiso   1.00
C81    C     0.61409   0.17378   0.24021   0.00000  Uiso   1.00
C82    C     0.47163   0.18980   0.42017   0.00000  Uiso   1.00
C83    C     0.66006   0.17474   0.23563   0.00000  Uiso   1.00
C84    C     0.34050   0.15809   0.26657   0.00000  Uiso   1.00
C85    C     0.51172   0.32232   0.23703   0.00000  Uiso   1.00
C86    C     0.48407   0.01225   0.26621   0.00000  Uiso   1.00
C87    C     0.48999   0.05611   0.25996   0.00000  Uiso   1.00
C88    C     0.50963   0.27792   0.24044   0.00000  Uiso   1.00
C89    C     0.41211   0.18668   0.48729   0.00000  Uiso   1.00
C90    C     0.51875   0.14837   0.12950   0.00000  Uiso   1.00
C91    C     0.48264   0.18543   0.37083   0.00000  Uiso   1.00
C92    C     0.57816   0.13041   0.00952   0.00000  Uiso   1.00
C93    C     0.52713   0.14234   0.08108   0.00000  Uiso   1.00
C94    C     0.42911   0.19555   0.44238   0.00000  Uiso   1.00
C95    C     0.62670   0.13358   0.07999   0.00000  Uiso   1.00
C96    C     0.65999   0.11823   0.32789   0.00000  Uiso   1.00
C97    C     0.42161   0.02067   0.32352   0.00000  Uiso   1.00
C98    C     0.61030   0.07671   0.46763   0.00000  Uiso   1.00
C99    C     0.35060   0.21961   0.49800   0.00000  Uiso   1.00
C100   C     0.43809   0.17095   0.00925   0.00000  Uiso   1.00
C101   C     0.36390   0.23215   0.20250   0.00000  Uiso   1.00
C102   C     0.48286   0.17076   0.48998   0.00000  Uiso   1.00
C103   C     0.49973   0.18039   0.44458   0.00000  Uiso   1.00
C104   C     0.51096   0.15865   0.01327   0.00000  Uiso   1.00
C105   C     0.55249   0.14902   0.48884   0.00000  Uiso   1.00
C106   C     0.56886   0.16062   0.44504   0.00000  Uiso   1.00
C107   C     0.54397   0.17897   0.42446   0.00000  Uiso   1.00
F108   F     0.46937   0.18062   0.08676   0.00000  Uiso   1.00
F109   F     0.41788   0.15190   0.04722   0.00000  Uiso   1.00
F110   F     0.56398   0.19636   0.38540   0.00000  Uiso   1.00
H111   H     0.53611   0.00298   0.20971   0.00000  Uiso   1.00
H112   H     0.40511   0.02812   0.29873   0.00000  Uiso   1.00
H113   H     0.43435   0.04948   0.34057   0.00000  Uiso   1.00
H114   H     0.39733   0.00341   0.34952   0.00000  Uiso   1.00
H115   H     0.64155   0.06680   0.44784   0.00000  Uiso   1.00
H116   H     0.58885   0.07372   0.44468   0.00000  Uiso   1.00
H117   H     0.59710   0.05547   0.49501   0.00000  Uiso   1.00
H118   H     0.34080   0.21116   0.46625   0.00000  Uiso   1.00
H119   H     0.37234   0.24924   0.49615   0.00000  Uiso   1.00
H120   H     0.65442   0.22493   0.02472   0.00000  Uiso   1.00
H121   H     0.37747   0.24204   0.23181   0.00000  Uiso   1.00
H122   H     0.60192   0.15757   0.42730   0.00000  Uiso   1.00
H123   H     0.33467   0.24753   0.20586   0.00000  Uiso   1.00
H124   H     0.38810   0.24298   0.17222   0.00000  Uiso   1.00
H125   H     0.40802   0.20265   0.42328   0.00000  Uiso   1.00
H126   H     0.63654   0.12616   0.10954   0.00000  Uiso   1.00
H127   H     0.62288   0.16739   0.08431   0.00000  Uiso   1.00
H128   H     0.65280   0.12662   0.04991   0.00000  Uiso   1.00
H129   H     0.35351   0.13230   0.34240   0.00000  Uiso   1.00
H130   H     0.33612   0.09104   0.30394   0.00000  Uiso   1.00
H131   H     0.63333   0.10664   0.35588   0.00000  Uiso   1.00
O132   O     0.50000   0.16667   0.25000   0.00000  Uiso   1.00
O133   O     0.48784   0.12637   0.15458   0.00000  Uiso   1.00
O134   O     0.46274   0.20391   0.34968   0.00000  Uiso   1.00
O135   O     0.54157   0.17759   0.14606   0.00000  Uiso   1.00
O136   O     0.50785   0.15880   0.34968   0.00000  Uiso   1.00
O137   O     0.58871   0.10789   0.07763   0.00000  Uiso   1.00
O138   O     0.64552   0.14819   0.30758   0.00000  Uiso   1.00
O139   O     0.45444   0.32860   0.30326   0.00000  Uiso   1.00
O140   O     0.61719   0.11814   0.48499   0.00000  Uiso   1.00
O141   O     0.36880   0.18659   0.00905   0.00000  Uiso   1.00
O142   O     0.35553   0.18855   0.19695   0.00000  Uiso   1.00
O143   O     0.51264   0.08019   0.28213   0.00000  Uiso   1.00
O144   O     0.47965   0.26085   0.27013   0.00000  Uiso   1.00
O145   O     0.40745   0.13291   0.23413   0.00000  Uiso   1.00
O146   O     0.60026   0.19272   0.21360   0.00000  Uiso   1.00
O147   O     0.40405   0.18878   0.28213   0.00000  Uiso   1.00
O148   O     0.58824   0.15226   0.27013   0.00000  Uiso   1.00
O149   O     0.47093   0.06944   0.23413   0.00000  Uiso   1.00
O150   O     0.53678   0.25620   0.21360   0.00000  Uiso   1.00
Zn151  Zn    0.52672   0.13994   0.28734   0.00000  Uiso   1.00
Zn152  Zn    0.46713   0.12458   0.21875   0.00000  Uiso   1.00
Zn153  Zn    0.54389   0.19775   0.20657   0.00000  Uiso   1.00
Zn154  Zn    0.46226   0.20439   0.28733   0.00000  Uiso   1.00
C155   C     0.71961   0.15995   0.26028   0.00000  Uiso   1.00
C156   C     0.83400   0.15867   0.06031   0.00000  Uiso   1.00
C157   C     0.89858   0.12707   0.05607   0.00000  Uiso   1.00
C158   C     0.94742   0.17378   0.24021   0.00000  Uiso   1.00
C159   C     0.80496   0.18980   0.42017   0.00000  Uiso   1.00
C160   C     0.99339   0.17474   0.23563   0.00000  Uiso   1.00
C161   C     0.67383   0.15809   0.26657   0.00000  Uiso   1.00
C162   C     0.84505   0.32232   0.23703   0.00000  Uiso   1.00
C163   C     0.81740   0.01225   0.26621   0.00000  Uiso   1.00
C164   C     0.82332   0.05611   0.25996   0.00000  Uiso   1.00
C165   C     0.84296   0.27792   0.24044   0.00000  Uiso   1.00
C166   C     0.74544   0.18668   0.48729   0.00000  Uiso   1.00
C167   C     0.85209   0.14837   0.12950   0.00000  Uiso   1.00
C168   C     0.81597   0.18543   0.37083   0.00000  Uiso   1.00
C169   C     0.91149   0.13041   0.00952   0.00000  Uiso   1.00
C170   C     0.86046   0.14234   0.08108   0.00000  Uiso   1.00
C171   C     0.76245   0.19555   0.44238   0.00000  Uiso   1.00
C172   C     0.96003   0.13358   0.07999   0.00000  Uiso   1.00
C173   C     0.99332   0.11823   0.32789   0.00000  Uiso   1.00
C174   C     0.75494   0.02067   0.32352   0.00000  Uiso   1.00
C175   C     0.94364   0.07671   0.46763   0.00000  Uiso   1.00
C176   C     0.68393   0.21961   0.49800   0.00000  Uiso   1.00
C177   C     0.77143   0.17095   0.00925   0.00000  Uiso   1.00
C178   C     0.69724   0.23215   0.20250   0.00000  Uiso   1.00
C179   C     0.81619   0.17076   0.48998   0.00000  Uiso   1.00
C180   C     0.83306   0.18039   0.44458   0.00000  Uiso   1.00
C181   C     0.84429   0.15865   0.01327   0.00000  Uiso   1.00
C182   C     0.88582   0.14902   0.48884   0.00000  Uiso   1.00
C183   C     0.90220   0.16062   0.44504   0.00000  Uiso   1.00
C184   C     0.87730   0.17897   0.42446   0.00000  Uiso   1.00
F185   F     0.80270   0.18062   0.08676   0.00000  Uiso   1.00
F186   F     0.75121   0.15190   0.04722   0.00000  Uiso   1.00
F187   F     0.89731   0.19636   0.38540   0.00000  Uiso   1.00
H188   H     0.86945   0.00298   0.20971   0.00000  Uiso   1.00
H189   H     0.73844   0.02812   0.29873   0.00000  Uiso   1.00
H190   H     0.76768   0.04948   0.34057   0.00000  Uiso   1.00
H191   H     0.73067   0.00341   0.34952   0.00000  Uiso   1.00
H192   H     0.97488   0.06680   0.44784   0.00000  Uiso   1.00
H193   H     0.92218   0.07372   0.44468   0.00000  Uiso   1.00
H194   H     0.93043   0.05547   0.49501   0.00000  Uiso   1.00
H195   H     0.67414   0.21116   0.46625   0.00000  Uiso   1.00
H196   H     0.70568   0.24924   0.49615   0.00000  Uiso   1.00
H197   H     0.98775   0.22493   0.02472   0.00000  Uiso   1.00
H198   H     0.71080   0.24204   0.23181   0.00000  Uiso   1.00
H199   H     0.93525   0.15757   0.42730   0.00000  Uiso   1.00
H200   H     0.66800   0.24753   0.20586   0.00000  Uiso   1.00
H201   H     0.72143   0.24298   0.17222   0.00000  Uiso   1.00
H202   H     0.74135   0.20265   0.42328   0.00000  Uiso   1.00
H203   H     0.96988   0.12616   0.10954   0.00000  Uiso   1.00
H204   H     0.95621   0.16739   0.08431   0.00000  Uiso   1.00
H205   H     0.98614   0.12662   0.04991   0.00000  Uiso   1.00
H206   H     0.68684   0.13230   0.34240   0.00000  Uiso   1.00
H207   H     0.66946   0.09104   0.30394   0.00000  Uiso   1.00
H208   H     0.96667   0.10664   0.35588   0.00000  Uiso   1.00
O209   O     0.83333   0.16667   0.25000   0.00000  Uiso   1.00
O210   O     0.82118   0.12637   0.15458   0.00000  Uiso   1.00
O211   O     0.79607   0.20391   0.34968   0.00000  Uiso   1.00
O212   O     0.87491   0.17759   0.14606   0.00000  Uiso   1.00
O213   O     0.84118   0.15880   0.34968   0.00000  Uiso   1.00
O214   O     0.92205   0.10789   0.07763   0.00000  Uiso   1.00
O215   O     0.97885   0.14819   0.30758   0.00000  Uiso   1.00
O216   O     0.78777   0.32860   0.30326   0.00000  Uiso   1.00
O217   O     0.95053   0.11814   0.48499   0.00000  Uiso   1.00
O218   O     0.70214   0.18659   0.00905   0.00000  Uiso   1.00
O219   O     0.68887   0.18855   0.19695   0.00000  Uiso   1.00
O220   O     0.84597   0.08019   0.28213   0.00000  Uiso   1.00
O221   O     0.81298   0.26085   0.27013   0.00000  Uiso   1.00
O222   O     0.74078   0.13291   0.23413   0.00000  Uiso   1.00
O223   O     0.93360   0.19272   0.21360   0.00000  Uiso   1.00
O224   O     0.73738   0.18878   0.28213   0.00000  Uiso   1.00
O225   O     0.92158   0.15226   0.27013   0.00000  Uiso   1.00
O226   O     0.80426   0.06944   0.23413   0.00000  Uiso   1.00
O227   O     0.87012   0.25620   0.21360   0.00000  Uiso   1.00
Zn228  Zn    0.86005   0.13994   0.28734   0.00000  Uiso   1.00
Zn229  Zn    0.80046   0.12458   0.21875   0.00000  Uiso   1.00
Zn230  Zn    0.87723   0.19775   0.20657   0.00000  Uiso   1.00
Zn231  Zn    0.79560   0.20439   0.28733   0.00000  Uiso   1.00
C232   C     0.05294   0.49328   0.26028   0.00000  Uiso   1.00
C233   C     0.16733   0.49200   0.06031   0.00000  Uiso   1.00
C234   C     0.23191   0.46041   0.05607   0.00000  Uiso   1.00
C235   C     0.28075   0.50711   0.24021   0.00000  Uiso   1.00
C236   C     0.13830   0.52314   0.42017   0.00000  Uiso   1.00
C237   C     0.32672   0.50807   0.23563   0.00000  Uiso   1.00
C238   C     0.00716   0.49142   0.26657   0.00000  Uiso   1.00
C239   C     0.17839   0.65565   0.23703   0.00000  Uiso   1.00
C240   C     0.15074   0.34559   0.26621   0.00000  Uiso   1.00
C241   C     0.15666   0.38944   0.25996   0.00000  Uiso   1.00
C242   C     0.17629   0.61126   0.24044   0.00000  Uiso   1.00
C243   C     0.07877   0.52001   0.48729   0.00000  Uiso   1.00
C244   C     0.18542   0.48170   0.12950   0.00000  Uiso   1.00
C245   C     0.14931   0.51876   0.37083   0.00000  Uiso   1.00
C246   C     0.24483   0.46375   0.00952   0.00000  Uiso   1.00
C247   C     0.19379   0.47567   0.08108   0.00000  Uiso   1.00
C248   C     0.09578   0.52888   0.44238   0.00000  Uiso   1.00
C249   C     0.29336   0.46691   0.07999   0.00000  Uiso   1.00
C250   C     0.32665   0.45156   0.32789   0.00000  Uiso   1.00
C251   C     0.08828   0.35400   0.32352   0.00000  Uiso   1.00
C252   C     0.27697   0.41004   0.46763   0.00000  Uiso   1.00
C253   C     0.01726   0.55295   0.49800   0.00000  Uiso   1.00
C254   C     0.10476   0.50429   0.00925   0.00000  Uiso   1.00
C255   C     0.03057   0.56548   0.20250   0.00000  Uiso   1.00
C256   C     0.14952   0.50409   0.48998   0.00000  Uiso   1.00
C257   C     0.16640   0.51372   0.44458   0.00000  Uiso   1.00
C258   C     0.17762   0.49198   0.01327   0.00000  Uiso   1.00
C259   C     0.21915   0.48236   0.48884   0.00000  Uiso   1.00
C260   C     0.23553   0.49395   0.44504   0.00000  Uiso   1.00
C261   C     0.21064   0.51231   0.42446   0.00000  Uiso   1.00
F262   F     0.13604   0.51395   0.08676   0.00000  Uiso   1.00
F263   F     0.08454   0.48524   0.04722   0.00000  Uiso   1.00
F264   F     0.23065   0.52969   0.38540   0.00000  Uiso   1.00
H265   H     0.20278   0.33631   0.20971   0.00000  Uiso   1.00
H266   H     0.07178   0.36145   0.29873   0.00000  Uiso   1.00
H267   H     0.10102   0.38282   0.34057   0.00000  Uiso   1.00
H268   H     0.06400   0.33675   0.34952   0.00000  Uiso   1.00
H269   H     0.30821   0.40013   0.44784   0.00000  Uiso   1.00
H270   H     0.25551   0.40705   0.44468   0.00000  Uiso   1.00
H271   H     0.26376   0.38880   0.49501   0.00000  Uiso   1.00
H272   H     0.00747   0.54449   0.46625   0.00000  Uiso   1.00
H273   H     0.03901   0.58257   0.49615   0.00000  Uiso   1.00
H274   H     0.32109   0.55827   0.02472   0.00000  Uiso   1.00
H275   H     0.04414   0.57537   0.23181   0.00000  Uiso   1.00
H276   H     0.26859   0.49090   0.42730   0.00000  Uiso   1.00
H277   H     0.00133   0.58087   0.20586   0.00000  Uiso   1.00
H278   H     0.05476   0.57631   0.17222   0.00000  Uiso   1.00
H279   H     0.07468   0.53599   0.42328   0.00000  Uiso   1.00
H280   H     0.30321   0.45949   0.10954   0.00000  Uiso   1.00
H281   H     0.28955   0.50072   0.08431   0.00000  Uiso   1.00
H282   H     0.31947   0.45996   0.04991   0.00000  Uiso   1.00
H283   H     0.02017   0.46563   0.34240   0.00000  Uiso   1.00
H284   H     0.00279   0.42438   0.30394   0.00000  Uiso   1.00
H285   H     0.30000   0.43997   0.35588   0.00000  Uiso   1.00
O286   O     0.16667   0.50000   0.25000   0.00000  Uiso   1.00
O287   O     0.15451   0.45970   0.15458   0.00000  Uiso   1.00
O288   O     0.12940   0.53724   0.34968   0.00000  Uiso   1.00
O289   O     0.20824   0.51092   0.14606   0.00000  Uiso   1.00
O290   O     0.17451   0.49213   0.34968   0.00000  Uiso   1.00
O291   O     0.25538   0.44122   0.07763   0.00000  Uiso   1.00
O292   O     0.31219   0.48152   0.30758   0.00000  Uiso   1.00
O293   O     0.12111   0.66193   0.30326   0.00000  Uiso   1.00
O294   O     0.28386   0.45147   0.48499   0.00000  Uiso   1.00
O295   O     0.03547   0.51992   0.00905   0.00000  Uiso   1.00
O296   O     0.02220   0.52188   0.19695   0.00000  Uiso   1.00
O297   O     0.17930   0.41352   0.28213   0.00000  Uiso   1.00
O298   O     0.14632   0.59418   0.27013   0.00000  Uiso   1.00
O299   O     0.07412   0.46625   0.23413   0.00000  Uiso   1.00
O300   O     0.26693   0.52605   0.21360   0.00000  Uiso   1.00
O301   O     0.07071   0.52211   0.28213   0.00000  Uiso   1.00
O302   O     0.25491   0.48559   0.27013   0.00000  Uiso   1.00
O303   O     0.13760   0.40277   0.23413   0.00000  Uiso   1.00
O304   O     0.20345   0.58953   0.21360   0.00000  Uiso   1.00
Zn305  Zn    0.19338   0.47327   0.28734   0.00000  Uiso   1.00
Zn306  Zn    0.13379   0.45791   0.21875   0.00000  Uiso   1.00
Zn307  Zn    0.21056   0.53109   0.20657   0.00000  Uiso   1.00
Zn308  Zn    0.12893   0.53773   0.28733   0.00000  Uiso   1.00
C309   C     0.38628   0.49328   0.26028   0.00000  Uiso   1.00
C310   C     0.50066   0.49200   0.06031   0.00000  Uiso   1.00
C311   C     0.56524   0.46041   0.05607   0.00000  Uiso   1.00
C312   C     0.61409   0.50711   0.24021   0.00000  Uiso   1.00
C313   C     0.47163   0.52314   0.42017   0.00000  Uiso   1.00
C314   C     0.66006   0.50807   0.23563   0.00000  Uiso   1.00
C315   C     0.34050   0.49142   0.26657   0.00000  Uiso   1.00
C316   C     0.51172   0.65565   0.23703   0.00000  Uiso   1.00
C317   C     0.48407   0.34559   0.26621   0.00000  Uiso   1.00
C318   C     0.48999   0.38944   0.25996   0.00000  Uiso   1.00
C319   C     0.50963   0.61126   0.24044   0.00000  Uiso   1.00
C320   C     0.41211   0.52001   0.48729   0.00000  Uiso   1.00
C321   C     0.51875   0.48170   0.12950   0.00000  Uiso   1.00
C322   C     0.48264   0.51876   0.37083   0.00000  Uiso   1.00
C323   C     0.57816   0.46375   0.00952   0.00000  Uiso   1.00
C324   C     0.52713   0.47567   0.08108   0.00000  Uiso   1.00
C325   C     0.42911   0.52888   0.44238   0.00000  Uiso   1.00
C326   C     0.62670   0.46691   0.07999   0.00000  Uiso   1.00
C327   C     0.65999   0.45156   0.32789   0.00000  Uiso   1.00
C328   C     0.42161   0.35400   0.32352   0.00000  Uiso   1.00
C329   C     0.61030   0.41004   0.46763   0.00000  Uiso   1.00
C330   C     0.35060   0.55295   0.49800   0.00000  Uiso   1.00
C331   C     0.43809   0.50429   0.00925   0.00000  Uiso   1.00
C332   C     0.36390   0.56548   0.20250   0.00000  Uiso   1.00
C333   C     0.48286   0.50409   0.48998   0.00000  Uiso   1.00
C334   C     0.49973   0.51372   0.44458   0.00000  Uiso   1.00
C335   C     0.51096   0.49198   0.01327   0.00000  Uiso   1.00
C336   C     0.55249   0.48236   0.48884   0.00000  Uiso   1.00
C337   C     0.56886   0.49395   0.44504   0.00000  Uiso   1.00
C338   C     0.54397   0.51231   0.42446   0.00000  Uiso   1.00
F339   F     0.46937   0.51395   0.08676   0.00000  Uiso   1.00
F340   F     0.41788   0.48524   0.04722   0.00000  Uiso   1.00
F341   F     0.56398   0.52969   0.38540   0.00000  Uiso   1.00
H342   H     0.53611   0.33631   0.20971   0.00000  Uiso   1.00
H343   H     0.40511   0.36145   0.29873   0.00000  Uiso   1.00
H344   H     0.43435   0.38282   0.34057   0.00000  Uiso   1.00
H345   H     0.39733   0.33675   0.34952   0.00000  Uiso   1.00
H346   H     0.64155   0.40013   0.44784   0.00000  Uiso   1.00
H347   H     0.58885   0.40705   0.44468   0.00000  Uiso   1.00
H348   H     0.59710   0.38880   0.49501   0.00000  Uiso   1.00
H349   H     0.34080   0.54449   0.46625   0.00000  Uiso   1.00
H350   H     0.37234   0.58257   0.49615   0.00000  Uiso   1.00
H351   H     0.65442   0.55827   0.02472   0.00000  Uiso   1.00
H352   H     0.37747   0.57537   0.23181   0.00000  Uiso   1.00
H353   H     0.60192   0.49090   0.42730   0.00000  Uiso   1.00
H354   H     0.33467   0.58087   0.20586   0.00000  Uiso   1.00
H355   H     0.38810   0.57631   0.17222   0.00000  Uiso   1.00
H356   H     0.40802   0.53599   0.42328   0.00000  Uiso   1.00
H357   H     0.63654   0.45949   0.10954   0.00000  Uiso   1.00
H358   H     0.62288   0.50072   0.08431   0.00000  Uiso   1.00
H359   H     0.65280   0.45996   0.04991   0.00000  Uiso   1.00
H360   H     0.35351   0.46563   0.34240   0.00000  Uiso   1.00
H361   H     0.33612   0.42438   0.30394   0.00000  Uiso   1.00
H362   H     0.63333   0.43997   0.35588   0.00000  Uiso   1.00
O363   O     0.50000   0.50000   0.25000   0.00000  Uiso   1.00
O364   O     0.48784   0.45970   0.15458   0.00000  Uiso   1.00
O365   O     0.46274   0.53724   0.34968   0.00000  Uiso   1.00
O366   O     0.54157   0.51092   0.14606   0.00000  Uiso   1.00
O367   O     0.50785   0.49213   0.34968   0.00000  Uiso   1.00
O368   O     0.58871   0.44122   0.07763   0.00000  Uiso   1.00
O369   O     0.64552   0.48152   0.30758   0.00000  Uiso   1.00
O370   O     0.45444   0.66193   0.30326   0.00000  Uiso   1.00
O371   O     0.61719   0.45147   0.48499   0.00000  Uiso   1.00
O372   O     0.36880   0.51992   0.00905   0.00000  Uiso   1.00
O373   O     0.35553   0.52188   0.19695   0.00000  Uiso   1.00
O374   O     0.51264   0.41352   0.28213   0.00000  Uiso   1.00
O375   O     0.47965   0.59418   0.27013   0.00000  Uiso   1.00
O376   O     0.40745   0.46625   0.23413   0.00000  Uiso   1.00
O377   O     0.60026   0.52605   0.21360   0.00000  Uiso   1.00
O378   O     0.40405   0.52211   0.28213   0.00000  Uiso   1.00
O379   O     0.58824   0.48559   0.27013   0.00000  Uiso   1.00
O380   O     0.47093   0.40277   0.23413   0.00000  Uiso   1.00
O381   O     0.53678   0.58953   0.21360   0.00000  Uiso   1.00
Zn382  Zn    0.52672   0.47327   0.28734   0.00000  Uiso   1.00
Zn383  Zn    0.46713   0.45791   0.21875   0.00000  Uiso   1.00
Zn384  Zn    0.54389   0.53109   0.20657   0.00000  Uiso   1.00
Zn385  Zn    0.46226   0.53773   0.28733   0.00000  Uiso   1.00
C386   C     0.71961   0.49328   0.26028   0.00000  Uiso   1.00
C387   C     0.83400   0.49200   0.06031   0.00000  Uiso   1.00
C388   C     0.89858   0.46041   0.05607   0.00000  Uiso   1.00
C389   C     0.94742   0.50711   0.24021   0.00000  Uiso   1.00
C390   C     0.80496   0.52314   0.42017   0.00000  Uiso   1.00
C391   C     0.99339   0.50807   0.23563   0.00000  Uiso   1.00
C392   C     0.67383   0.49142   0.26657   0.00000  Uiso   1.00
C393   C     0.84505   0.65565   0.23703   0.00000  Uiso   1.00
C394   C     0.81740   0.34559   0.26621   0.00000  Uiso   1.00
C395   C     0.82332   0.38944   0.25996   0.00000  Uiso   1.00
C396   C     0.84296   0.61126   0.24044   0.00000  Uiso   1.00
C397   C     0.74544   0.52001   0.48729   0.00000  Uiso   1.00
C398   C     0.85209   0.48170   0.12950   0.00000  Uiso   1.00
C399   C     0.81597   0.51876   0.37083   0.00000  Uiso   1.00
C400   C     0.91149   0.46375   0.00952   0.00000  Uiso   1.00
C401   C     0.86046   0.47567   0.08108   0.00000  Uiso   1.00
C402   C     0.76245   0.52888   0.44238   0.00000  Uiso   1.00
C403   C     0.96003   0.46691   0.07999   0.00000  Uiso   1.00
C404   C     0.99332   0.45156   0.32789   0.00000  Uiso   1.00
C405   C     0.75494   0.35400   0.32352   0.00000  Uiso   1.00
C406   C     0.94364   0.41004   0.46763   0.00000  Uiso   1.00
C407   C     0.68393   0.55295   0.49800   0.00000  Uiso   1.00
C408   C     0.77143   0.50429   0.00925   0.00000  Uiso   1.00
C409   C     0.69724   0.56548   0.20250   0.00000  Uiso   1.00
C410   C     0.81619   0.50409   0.48998   0.00000  Uiso   1.00
C411   C     0.83306   0.51372   0.44458   0.00000  Uiso   1.00
C412   C     0.84429   0.49198   0.01327   0.00000  Uiso   1.00
C413   C     0.88582   0.48236   0.48884   0.00000  Uiso   1.00
C414   C     0.90220   0.49395   0.44504   0.00000  Uiso   1.00
C415   C     0.87730   0.51231   0.42446   0.00000  Uiso   1.00
F416   F     0.80270   0.51395   0.08676   0.00000  Uiso   1.00
F417   F     0.75121   0.48524   0.04722   0.00000  Uiso   1.00
F418   F     0.89731   0.52969   0.38540   0.00000  Uiso   1.00
H419   H     0.86945   0.33631   0.20971   0.00000  Uiso   1.00
H420   H     0.73844   0.36145   0.29873   0.00000  Uiso   1.00
H421   H     0.76768   0.38282   0.34057   0.00000  Uiso   1.00
H422   H     0.73067   0.33675   0.34952   0.00000  Uiso   1.00
H423   H     0.97488   0.40013   0.44784   0.00000  Uiso   1.00
H424   H     0.92218   0.40705   0.44468   0.00000  Uiso   1.00
H425   H     0.93043   0.38880   0.49501   0.00000  Uiso   1.00
H426   H     0.67414   0.54449   0.46625   0.00000  Uiso   1.00
H427   H     0.70568   0.58257   0.49615   0.00000  Uiso   1.00
H428   H     0.98775   0.55827   0.02472   0.00000  Uiso   1.00
H429   H     0.71080   0.57537   0.23181   0.00000  Uiso   1.00
H430   H     0.93525   0.49090   0.42730   0.00000  Uiso   1.00
H431   H     0.66800   0.58087   0.20586   0.00000  Uiso   1.00
H432   H     0.72143   0.57631   0.17222   0.00000  Uiso   1.00
H433   H     0.74135   0.53599   0.42328   0.00000  Uiso   1.00
H434   H     0.96988   0.45949   0.10954   0.00000  Uiso   1.00
H435   H     0.95621   0.50072   0.08431   0.00000  Uiso   1.00
H436   H     0.98614   0.45996   0.04991   0.00000  Uiso   1.00
H437   H     0.68684   0.46563   0.34240   0.00000  Uiso   1.00
H438   H     0.66946   0.42438   0.30394   0.00000  Uiso   1.00
H439   H     0.96667   0.43997   0.35588   0.00000  Uiso   1.00
O440   O     0.83333   0.50000   0.25000   0.00000  Uiso   1.00
O441   O     0.82118   0.45970   0.15458   0.00000  Uiso   1.00
O442   O     0.79607   0.53724   0.34968   0.00000  Uiso   1.00
O443   O     0.87491   0.51092   0.14606   0.00000  Uiso   1.00
O444   O     0.84118   0.49213   0.34968   0.00000  Uiso   1.00
O445   O     0.92205   0.44122   0.07763   0.00000  Uiso   1.00
O446   O     0.97885   0.48152   0.30758   0.00000  Uiso   1.00
O447   O     0.78777   0.66193   0.30326   0.00000  Uiso   1.00
O448   O     0.95053   0.45147   0.48499   0.00000  Uiso   1.00
O449   O     0.70214   0.51992   0.00905   0.00000  Uiso   1.00
O450   O     0.68887   0.52188   0.19695   0.00000  Uiso   1.00
O451   O     0.84597   0.41352   0.28213   0.00000  Uiso   1.00
O452   O     0.81298   0.59418   0.27013   0.00000  Uiso   1.00
O453   O     0.74078   0.46625   0.23413   0.00000  Uiso   1.00
O454   O     0.93360   0.52605   0.21360   0.00000  Uiso   1.00
O455   O     0.73738   0.52211   0.28213   0.00000  Uiso   1.00
O456   O     0.92158   0.48559   0.27013   0.00000  Uiso   1.00
O457   O     0.80426   0.40277   0.23413   0.00000  Uiso   1.00
O458   O     0.87012   0.58953   0.21360   0.00000  Uiso   1.00
Zn459  Zn    0.86005   0.47327   0.28734   0.00000  Uiso   1.00
Zn460  Zn    0.80046   0.45791   0.21875   0.00000  Uiso   1.00
Zn461  Zn    0.87723   0.53109   0.20657   0.00000  Uiso   1.00
Zn462  Zn    0.79560   0.53773   0.28733   0.00000  Uiso   1.00
C463   C     0.05294   0.82661   0.26028   0.00000  Uiso   1.00
C464   C     0.16733   0.82534   0.06031   0.00000  Uiso   1.00
C465   C     0.23191   0.79374   0.05607   0.00000  Uiso   1.00
C466   C     0.28075   0.84044   0.24021   0.00000  Uiso   1.00
C467   C     0.13830   0.85647   0.42017   0.00000  Uiso   1.00
C468   C     0.32672   0.84140   0.23563   0.00000  Uiso   1.00
C469   C     0.00716   0.82476   0.26657   0.00000  Uiso   1.00
C470   C     0.17839   0.98898   0.23703   0.00000  Uiso   1.00
C471   C     0.15074   0.67892   0.26621   0.00000  Uiso   1.00
C472   C     0.15666   0.72278   0.25996   0.00000  Uiso   1.00
C473   C     0.17629   0.94459   0.24044   0.00000  Uiso   1.00
C474   C     0.07877   0.85334   0.48729   0.00000  Uiso   1.00
C475   C     0.18542   0.81503   0.12950   0.00000  Uiso   1.00
C476   C     0.14931   0.85209   0.37083   0.00000  Uiso   1.00
C477   C     0.24483   0.79708   0.00952   0.00000  Uiso   1.00
C478   C     0.19379   0.80901   0.08108   0.00000  Uiso   1.00
C479   C     0.09578   0.86221   0.44238   0.00000  Uiso   1.00
C480   C     0.29336   0.80024   0.07999   0.00000  Uiso   1.00
C481   C     0.32665   0.78489   0.32789   0.00000  Uiso   1.00
C482   C     0.08828   0.68733   0.32352   0.00000  Uiso   1.00
C483   C     0.27697   0.74338   0.46763   0.00000  Uiso   1.00
C484   C     0.01726   0.88628   0.49800   0.00000  Uiso   1.00
C485   C     0.10476   0.83762   0.00925   0.00000  Uiso   1.00
C486   C     0.03057   0.89881   0.20250   0.00000  Uiso   1.00
C487   C     0.14952   0.83743   0.48998   0.00000  Uiso   1.00
C488   C     0.16640   0.84705   0.44458   0.00000  Uiso   1.00
C489   C     0.17762   0.82532   0.01327   0.00000  Uiso   1.00
C490   C     0.21915   0.81569   0.48884   0.00000  Uiso   1.00
C491   C     0.23553   0.82728   0.44504   0.00000  Uiso   1.00
C492   C     0.21064   0.84564   0.42446   0.00000  Uiso   1.00
F493   F     0.13604   0.84728   0.08676   0.00000  Uiso   1.00
F494   F     0.08454   0.81857   0.04722   0.00000  Uiso   1.00
F495   F     0.23065   0.86303   0.38540   0.00000  Uiso   1.00
H496   H     0.20278   0.66964   0.20971   0.00000  Uiso   1.00
H497   H     0.07178   0.69479   0.29873   0.00000  Uiso   1.00
H498   H     0.10102   0.71615   0.34057   0.00000  Uiso   1.00
H499   H     0.06400   0.67008   0.34952   0.00000  Uiso   1.00
H500   H     0.30821   0.73346   0.44784   0.00000  Uiso   1.00
H501   H     0.25551   0.74039   0.44468   0.00000  Uiso   1.00
H502   H     0.26376   0.72214   0.49501   0.00000  Uiso   1.00
H503   H     0.00747   0.87783   0.46625   0.00000  Uiso   1.00
H504   H     0.03901   0.91591   0.49615   0.00000  Uiso   1.00
H505   H     0.32109   0.89160   0.02472   0.00000  Uiso   1.00
H506   H     0.04414   0.90871   0.23181   0.00000  Uiso   1.00
H507   H     0.26859   0.82424   0.42730   0.00000  Uiso   1.00
H508   H     0.00133   0.91420   0.20586   0.00000  Uiso   1.00
H509   H     0.05476   0.90964   0.17222   0.00000  Uiso   1.00
H510   H     0.07468   0.86932   0.42328   0.00000  Uiso   1.00
H511   H     0.30321   0.79283   0.10954   0.00000  Uiso   1.00
H512   H     0.28955   0.83406   0.08431   0.00000  Uiso   1.00
H513   H     0.31947   0.79329   0.04991   0.00000  Uiso   1.00
H514   H     0.02017   0.79897   0.34240   0.00000  Uiso   1.00
H515   H     0.00279   0.75771   0.30394   0.00000  Uiso   1.00
H516   H     0.30000   0.77331   0.35588   0.00000  Uiso   1.00
O517   O     0.16667   0.83333   0.25000   0.00000  Uiso   1.00
O518   O     0.15451   0.79304   0.15458   0.00000  Uiso   1.00
O519   O     0.12940   0.87058   0.34968   0.00000  Uiso   1.00
O520   O     0.20824   0.84425   0.14606   0.00000  Uiso   1.00
O521   O     0.17451   0.82546   0.34968   0.00000  Uiso   1.00
O522   O     0.25538   0.77455   0.07763   0.00000  Uiso   1.00
O523   O     0.31219   0.81486   0.30758   0.00000  Uiso   1.00
O524   O     0.12111   0.99527   0.30326   0.00000  Uiso   1.00
O525   O     0.28386   0.78481   0.48499   0.00000  Uiso   1.00
O526   O     0.03547   0.85326   0.00905   0.00000  Uiso   1.00
O527   O     0.02220   0.85521   0.19695   0.00000  Uiso   1.00
O528   O     0.17930   0.74686   0.28213   0.00000  Uiso   1.00
O529   O     0.14632   0.92751   0.27013   0.00000  Uiso   1.00
O530   O     0.07412   0.79958   0.23413   0.00000  Uiso   1.00
O531   O     0.26693   0.85939   0.21360   0.00000  Uiso   1.00
O532   O     0.07071   0.85544   0.28213   0.00000  Uiso   1.00
O533   O     0.25491   0.81892   0.27013   0.00000  Uiso   1.00
O534   O     0.13760   0.73610   0.23413   0.00000  Uiso   1.00
O535   O     0.20345   0.92286   0.21360   0.00000  Uiso   1.00
Zn536  Zn    0.19338   0.80661   0.28734   0.00000  Uiso   1.00
Zn537  Zn    0.13379   0.79124   0.21875   0.00000  Uiso   1.00
Zn538  Zn    0.21056   0.86442   0.20657   0.00000  Uiso   1.00
Zn539  Zn    0.12893   0.87106   0.28733   0.00000  Uiso   1.00
C540   C     0.38628   0.82661   0.26028   0.00000  Uiso   1.00
C541   C     0.50066   0.82534   0.06031   0.00000  Uiso   1.00
C542   C     0.56524   0.79374   0.05607   0.00000  Uiso   1.00
C543   C     0.61409   0.84044   0.24021   0.00000  Uiso   1.00
C544   C     0.47163   0.85647   0.42017   0.00000  Uiso   1.00
C545   C     0.66006   0.84140   0.23563   0.00000  Uiso   1.00
C546   C     0.34050   0.82476   0.26657   0.00000  Uiso   1.00
C547   C     0.51172   0.98898   0.23703   0.00000  Uiso   1.00
C548   C     0.48407   0.67892   0.26621   0.00000  Uiso   1.00
C549   C     0.48999   0.72278   0.25996   0.00000  Uiso   1.00
C550   C     0.50963   0.94459   0.24044   0.00000  Uiso   1.00
C551   C     0.41211   0.85334   0.48729   0.00000  Uiso   1.00
C552   C     0.51875   0.81503   0.12950   0.00000  Uiso   1.00
C553   C     0.48264   0.85209   0.37083   0.00000  Uiso   1.00
C554   C     0.57816   0.79708   0.00952   0.00000  Uiso   1.00
C555   C     0.52713   0.80901   0.08108   0.00000  Uiso   1.00
C556   C     0.42911   0.86221   0.44238   0.00000  Uiso   1.00
C557   C     0.62670   0.80024   0.07999   0.00000  Uiso   1.00
C558   C     0.65999   0.78489   0.32789   0.00000  Uiso   1.00
C559   C     0.42161   0.68733   0.32352   0.00000  Uiso   1.00
C560   C     0.61030   0.74338   0.46763   0.00000  Uiso   1.00
C561   C     0.35060   0.88628   0.49800   0.00000  Uiso   1.00
C562   C     0.43809   0.83762   0.00925   0.00000  Uiso   1.00
C563   C     0.36390   0.89881   0.20250   0.00000  Uiso   1.00
C564   C     0.48286   0.83743   0.48998   0.00000  Uiso   1.00
C565   C     0.49973   0.84705   0.44458   0.00000  Uiso   1.00
C566   C     0.51096   0.82532   0.01327   0.00000  Uiso   1.00
C567   C     0.55249   0.81569   0.48884   0.00000  Uiso   1.00
C568   C     0.56886   0.82728   0.44504   0.00000  Uiso   1.00
C569   C     0.54397   0.84564   0.42446   0.00000  Uiso   1.00
F570   F     0.46937   0.84728   0.08676   0.00000  Uiso   1.00
F571   F     0.41788   0.81857   0.04722   0.00000  Uiso   1.00
F572   F     0.56398   0.86303   0.38540   0.00000  Uiso   1.00
H573   H     0.53611   0.66964   0.20971   0.00000  Uiso   1.00
H574   H     0.40511   0.69479   0.29873   0.00000  Uiso   1.00
H575   H     0.43435   0.71615   0.34057   0.00000  Uiso   1.00
H576   H     0.39733   0.67008   0.34952   0.00000  Uiso   1.00
H577   H     0.64155   0.73346   0.44784   0.00000  Uiso   1.00
H578   H     0.58885   0.74039   0.44468   0.00000  Uiso   1.00
H579   H     0.59710   0.72214   0.49501   0.00000  Uiso   1.00
H580   H     0.34080   0.87783   0.46625   0.00000  Uiso   1.00
H581   H     0.37234   0.91591   0.49615   0.00000  Uiso   1.00
H582   H     0.65442   0.89160   0.02472   0.00000  Uiso   1.00
H583   H     0.37747   0.90871   0.23181   0.00000  Uiso   1.00
H584   H     0.60192   0.82424   0.42730   0.00000  Uiso   1.00
H585   H     0.33467   0.91420   0.20586   0.00000  Uiso   1.00
H586   H     0.38810   0.90964   0.17222   0.00000  Uiso   1.00
H587   H     0.40802   0.86932   0.42328   0.00000  Uiso   1.00
H588   H     0.63654   0.79283   0.10954   0.00000  Uiso   1.00
H589   H     0.62288   0.83406   0.08431   0.00000  Uiso   1.00
H590   H     0.65280   0.79329   0.04991   0.00000  Uiso   1.00
H591   H     0.35351   0.79897   0.34240   0.00000  Uiso   1.00
H592   H     0.33612   0.75771   0.30394   0.00000  Uiso   1.00
H593   H     0.63333   0.77331   0.35588   0.00000  Uiso   1.00
O594   O     0.50000   0.83333   0.25000   0.00000  Uiso   1.00
O595   O     0.48784   0.79304   0.15458   0.00000  Uiso   1.00
O596   O     0.46274   0.87058   0.34968   0.00000  Uiso   1.00
O597   O     0.54157   0.84425   0.14606   0.00000  Uiso   1.00
O598   O     0.50785   0.82546   0.34968   0.00000  Uiso   1.00
O599   O     0.58871   0.77455   0.07763   0.00000  Uiso   1.00
O600   O     0.64552   0.81486   0.30758   0.00000  Uiso   1.00
O601   O     0.45444   0.99527   0.30326   0.00000  Uiso   1.00
O602   O     0.61719   0.78481   0.48499   0.00000  Uiso   1.00
O603   O     0.36880   0.85326   0.00905   0.00000  Uiso   1.00
O604   O     0.35553   0.85521   0.19695   0.00000  Uiso   1.00
O605   O     0.51264   0.74686   0.28213   0.00000  Uiso   1.00
O606   O     0.47965   0.92751   0.27013   0.00000  Uiso   1.00
O607   O     0.40745   0.79958   0.23413   0.00000  Uiso   1.00
O608   O     0.60026   0.85939   0.21360   0.00000  Uiso   1.00
O609   O     0.40405   0.85544   0.28213   0.00000  Uiso   1.00
O610   O     0.58824   0.81892   0.27013   0.00000  Uiso   1.00
O611   O     0.47093   0.73610   0.23413   0.00000  Uiso   1.00
O612   O     0.53678   0.92286   0.21360   0.00000  Uiso   1.00
Zn613  Zn    0.52672   0.80661   0.28734   0.00000  Uiso   1.00
Zn614  Zn    0.46713   0.79124   0.21875   0.00000  Uiso   1.00
Zn615  Zn    0.54389   0.86442   0.20657   0.00000  Uiso   1.00
Zn616  Zn    0.46226   0.87106   0.28733   0.00000  Uiso   1.00
C617   C     0.71961   0.82661   0.26028   0.00000  Uiso   1.00
C618   C     0.83400   0.82534   0.06031   0.00000  Uiso   1.00
C619   C     0.89858   0.79374   0.05607   0.00000  Uiso   1.00
C620   C     0.94742   0.84044   0.24021   0.00000  Uiso   1.00
C621   C     0.80496   0.85647   0.42017   0.00000  Uiso   1.00
C622   C     0.99339   0.84140   0.23563   0.00000  Uiso   1.00
C623   C     0.67383   0.82476   0.26657   0.00000  Uiso   1.00
C624   C     0.84505   0.98898   0.23703   0.00000  Uiso   1.00
C625   C     0.81740   0.67892   0.26621   0.00000  Uiso   1.00
C626   C     0.82332   0.72278   0.25996   0.00000  Uiso   1.00
C627   C     0.84296   0.94459   0.24044   0.00000  Uiso   1.00
C628   C     0.74544   0.85334   0.48729   0.00000  Uiso   1.00
C629   C     0.85209   0.81503   0.12950   0.00000  Uiso   1.00
C630   C     0.81597   0.85209   0.37083   0.00000  Uiso   1.00
C631   C     0.91149   0.79708   0.00952   0.00000  Uiso   1.00
C632   C     0.86046   0.80901   0.08108   0.00000  Uiso   1.00
C633   C     0.76245   0.86221   0.44238   0.00000  Uiso   1.00
C634   C     0.96003   0.80024   0.07999   0.00000  Uiso   1.00
C635   C     0.99332   0.78489   0.32789   0.00000  Uiso   1.00
C636   C     0.75494   0.68733   0.32352   0.00000  Uiso   1.00
C637   C     0.94364   0.74338   0.46763   0.00000  Uiso   1.00
C638   C     0.68393   0.88628   0.49800   0.00000  Uiso   1.00
C639   C     0.77143   0.83762   0.00925   0.00000  Uiso   1.00
C640   C     0.69724   0.89881   0.20250   0.00000  Uiso   1.00
C641   C     0.81619   0.83743   0.48998   0.00000  Uiso   1.00
C642   C     0.83306   0.84705   0.44458   0.00000  Uiso   1.00
C643   C     0.84429   0.82532   0.01327   0.00000  Uiso   1.00
C644   C     0.88582   0.81569   0.48884   0.00000  Uiso   1.00
C645   C     0.90220   0.82728   0.44504   0.00000  Uiso   1.00
C646   C     0.87730   0.84564   0.42446   0.00000  Uiso   1.00
F647   F     0.80270   0.84728   0.08676   0.00000  Uiso   1.00
F648   F     0.75121   0.81857   0.04722   0.00000  Uiso   1.00
F649   F     0.89731   0.86303   0.38540   0.00000  Uiso   1.00
H650   H     0.86945   0.66964   0.20971   0.00000  Uiso   1.00
H651   H     0.73844   0.69479   0.29873   0.00000  Uiso   1.00
H652   H     0.76768   0.71615   0.34057   0.00000  Uiso   1.00
H653   H     0.73067   0.67008   0.34952   0.00000  Uiso   1.00
H654   H     0.97488   0.73346   0.44784   0.00000  Uiso   1.00
H655   H     0.92218   0.74039   0.44468   0.00000  Uiso   1.00
H656   H     0.93043   0.72214   0.49501   0.00000  Uiso   1.00
H657   H     0.67414   0.87783   0.46625   0.00000  Uiso   1.00
H658   H     0.70568   0.91591   0.49615   0.00000  Uiso   1.00
H659   H     0.98775   0.89160   0.02472   0.00000  Uiso   1.00
H660   H     0.71080   0.90871   0.23181   0.00000  Uiso   1.00
H661   H     0.93525   0.82424   0.42730   0.00000  Uiso   1.00
H662   H     0.66800   0.91420   0.20586   0.00000  Uiso   1.00
H663   H     0.72143   0.90964   0.17222   0.00000  Uiso   1.00
H664   H     0.74135   0.86932   0.42328   0.00000  Uiso   1.00
H665   H     0.96988   0.79283   0.10954   0.00000  Uiso   1.00
H666   H     0.95621   0.83406   0.08431   0.00000  Uiso   1.00
H667   H     0.98614   0.79329   0.04991   0.00000  Uiso   1.00
H668   H     0.68684   0.79897   0.34240   0.00000  Uiso   1.00
H669   H     0.66946   0.75771   0.30394   0.00000  Uiso   1.00
H670   H     0.96667   0.77331   0.35588   0.00000  Uiso   1.00
O671   O     0.83333   0.83333   0.25000   0.00000  Uiso   1.00
O672   O     0.82118   0.79304   0.15458   0.00000  Uiso   1.00
O673   O     0.79607   0.87058   0.34968   0.00000  Uiso   1.00
O674   O     0.87491   0.84425   0.14606   0.00000  Uiso   1.00
O675   O     0.84118   0.82546   0.34968   0.00000  Uiso   1.00
O676   O     0.92205   0.77455   0.07763   0.00000  Uiso   1.00
O677   O     0.97885   0.81486   0.30758   0.00000  Uiso   1.00
O678   O     0.78777   0.99527   0.30326   0.00000  Uiso   1.00
O679   O     0.95053   0.78481   0.48499   0.00000  Uiso   1.00
O680   O     0.70214   0.85326   0.00905   0.00000  Uiso   1.00
O681   O     0.68887   0.85521   0.19695   0.00000  Uiso   1.00
O682   O     0.84597   0.74686   0.28213   0.00000  Uiso   1.00
O683   O     0.81298   0.92751   0.27013   0.00000  Uiso   1.00
O684   O     0.74078   0.79958   0.23413   0.00000  Uiso   1.00
O685   O     0.93360   0.85939   0.21360   0.00000  Uiso   1.00
O686   O     0.73738   0.85544   0.28213   0.00000  Uiso   1.00
O687   O     0.92158   0.81892   0.27013   0.00000  Uiso   1.00
O688   O     0.80426   0.73610   0.23413   0.00000  Uiso   1.00
O689   O     0.87012   0.92286   0.21360   0.00000  Uiso   1.00
Zn690  Zn    0.86005   0.80661   0.28734   0.00000  Uiso   1.00
Zn691  Zn    0.80046   0.79124   0.21875   0.00000  Uiso   1.00
Zn692  Zn    0.87723   0.86442   0.20657   0.00000  Uiso   1.00
Zn693  Zn    0.79560   0.87106   0.28733   0.00000  Uiso   1.00
C694   C     0.05294   0.15995   0.76028   0.00000  Uiso   1.00
C695   C     0.16733   0.15867   0.56031   0.00000  Uiso   1.00
C696   C     0.23191   0.12707   0.55607   0.00000  Uiso   1.00
C697   C     0.28075   0.17378   0.74021   0.00000  Uiso   1.00
C698   C     0.13830   0.18980   0.92017   0.00000  Uiso   1.00
C699   C     0.32672   0.17474   0.73563   0.00000  Uiso   1.00
C700   C     0.00716   0.15809   0.76657   0.00000  Uiso   1.00
C701   C     0.17839   0.32232   0.73703   0.00000  Uiso   1.00
C702   C     0.15074   0.01225   0.76621   0.00000  Uiso   1.00
C703   C     0.15666   0.05611   0.75996   0.00000  Uiso   1.00
C704   C     0.17629   0.27792   0.74044   0.00000  Uiso   1.00
C705   C     0.07877   0.18668   0.98729   0.00000  Uiso   1.00
C706   C     0.18542   0.14837   0.62950   0.00000  Uiso   1.00
C707   C     0.14931   0.18543   0.87083   0.00000  Uiso   1.00
C708   C     0.24483   0.13041   0.50952   0.00000  Uiso   1.00
C709   C     0.19379   0.14234   0.58108   0.00000  Uiso   1.00
C710   C     0.09578   0.19555   0.94238   0.00000  Uiso   1.00
C711   C     0.29336   0.13358   0.57999   0.00000  Uiso   1.00
C712   C     0.32665   0.11823   0.82789   0.00000  Uiso   1.00
C713   C     0.08828   0.02067   0.82352   0.00000  Uiso   1.00
C714   C     0.27697   0.07671   0.96763   0.00000  Uiso   1.00
C715   C     0.01726   0.21961   0.99800   0.00000  Uiso   1.00
C716   C     0.10476   0.17095   0.50925   0.00000  Uiso   1.00
C717   C     0.03057   0.23215   0.70250   0.00000  Uiso   1.00
C718   C     0.14952   0.17076   0.98998   0.00000  Uiso   1.00
C719   C     0.16640   0.18039   0.94458   0.00000  Uiso   1.00
C720   C     0.17762   0.15865   0.51327   0.00000  Uiso   1.00
C721   C     0.21915   0.14902   0.98884   0.00000  Uiso   1.00
C722   C     0.23553   0.16062   0.94504   0.00000  Uiso   1.00
C723   C     0.21064   0.17897   0.92446   0.00000  Uiso   1.00
F724   F     0.13604   0.18062   0.58676   0.00000  Uiso   1.00
F725   F     0.08454   0.15190   0.54722   0.00000  Uiso   1.00
F726   F     0.23065   0.19636   0.88540   0.00000  Uiso   1.00
H727   H     0.20278   0.00298   0.70971   0.00000  Uiso   1.00
H728   H     0.07178   0.02812   0.79873   0.00000  Uiso   1.00
H729   H     0.10102   0.04948   0.84057   0.00000  Uiso   1.00
H730   H     0.06400   0.00341   0.84952   0.00000  Uiso   1.00
H731   H     0.30821   0.06680   0.94784   0.00000  Uiso   1.00
H732   H     0.25551   0.07372   0.94468   0.00000  Uiso   1.00
H733   H     0.26376   0.05547   0.99501   0.00000  Uiso   1.00
H734   H     0.00747   0.21116   0.96625   0.00000  Uiso   1.00
H735   H     0.03901   0.24924   0.99615   0.00000  Uiso   1.00
H736   H     0.32109   0.22493   0.52472   0.00000  Uiso   1.00
H737   H     0.04414   0.24204   0.73181   0.00000  Uiso   1.00
H738   H     0.26859   0.15757   0.92730   0.00000  Uiso   1.00
H739   H     0.00133   0.24753   0.70586   0.00000  Uiso   1.00
H740   H     0.05476   0.24298   0.67222   0.00000  Uiso   1.00
H741   H     0.07468   0.20265   0.92328   0.00000  Uiso   1.00
H742   H     0.30321   0.12616   0.60954   0.00000  Uiso   1.00
H743   H     0.28955   0.16739   0.58431   0.00000  Uiso   1.00
H744   H     0.31947   0.12662   0.54991   0.00000  Uiso   1.00
H745   H     0.02017   0.13230   0.84240   0.00000  Uiso   1.00
H746   H     0.00279   0.09104   0.80394   0.00000  Uiso   1.00
H747   H     0.30000   0.10664   0.85588   0.00000  Uiso   1.00
O748   O     0.16667   0.16667   0.75000   0.00000  Uiso   1.00
O749   O     0.15451   0.12637   0.65458   0.00000  Uiso   1.00
O750   O     0.12940   0.20391   0.84968   0.00000  Uiso   1.00
O751   O     0.20824   0.17759   0.64606   0.00000  Uiso   1.00
O752   O     0.17451   0.15880   0.84968   0.00000  Uiso   1.00
O753   O     0.25538   0.10789   0.57763   0.00000  Uiso   1.00
O754   O     0.31219   0.14819   0.80758   0.00000  Uiso   1.00
O755   O     0.12111   0.32860   0.80326   0.00000  Uiso   1.00
O756   O     0.28386   0.11814   0.98499   0.00000  Uiso   1.00
O757   O     0.03547   0.18659   0.50905   0.00000  Uiso   1.00
O758   O     0.02220   0.18855   0.69695   0.00000  Uiso   1.00
O759   O     0.17930   0.08019   0.78213   0.00000  Uiso   1.00
O760   O     0.14632   0.26085   0.77013   0.00000  Uiso   1.00
O761   O     0.07412   0.13291   0.73413   0.00000  Uiso   1.00
O762   O     0.26693   0.19272   0.71360   0.00000  Uiso   1.00
O763   O     0.07071   0.18878   0.78213   0.00000  Uiso   1.00
O764   O     0.25491   0.15226   0.77013   0.00000  Uiso   1.00
O765   O     0.13760   0.06944   0.73413   0.00000  Uiso   1.00
O766   O     0.20345   0.25620   0.71360   0.00000  Uiso   1.00
Zn767  Zn    0.19338   0.13994   0.78734   0.00000  Uiso   1.00
Zn768  Zn    0.13379   0.12458   0.71875   0.00000  Uiso   1.00
Zn769  Zn    0.21056   0.19775   0.70657   0.00000  Uiso   1.00
Zn770  Zn    0.12893   0.20439   0.78733   0.00000  Uiso   1.00
C771   C     0.38628   0.15995   0.76028   0.00000  Uiso   1.00
C772   C     0.50066   0.15867   0.56031   0.00000  Uiso   1.00
C773   C     0.56524   0.12707   0.55607   0.00000  Uiso   1.00
C774   C     0.61409   0.17378   0.74021   0.00000  Uiso   1.00
C775   C     0.47163   0.18980   0.92017   0.00000  Uiso   1.00
C776   C     0.66006   0.17474   0.73563   0.00000  Uiso   1.00
C777   C     0.34050   0.15809   0.76657   0.00000  Uiso   1.00
C778   C     0.51172   0.32232   0.73703   0.00000  Uiso   1.00
C779   C     0.48407   0.01225   0.76621   0.00000  Uiso   1.00
C780   C     0.48999   0.05611   0.75996   0.00000  Uiso   1.00
C781   C     0.50963   0.27792   0.74044   0.00000  Uiso   1.00
C782   C     0.41211   0.18668   0.98729   0.00000  Uiso   1.00
C783   C     0.51875   0.14837   0.62950   0.00000  Uiso   1.00
C784   C     0.48264   0.18543   0.87083   0.00000  Uiso   1.00
C785   C     0.57816   0.13041   0.50952   0.00000  Uiso   1.00
C786   C     0.52713   0.14234   0.58108   0.00000  Uiso   1.00
C787   C     0.42911   0.19555   0.94238   0.00000  Uiso   1.00
C788   C     0.62670   0.13358   0.57999   0.00000  Uiso   1.00
C789   C     0.65999   0.11823   0.82789   0.00000  Uiso   1.00
C790   C     0.42161   0.02067   0.82352   0.00000  Uiso   1.00
C791   C     0.61030   0.07671   0.96763   0.00000  Uiso   1.00
C792   C     0.35060   0.21961   0.99800   0.00000  Uiso   1.00
C793   C     0.43809   0.17095   0.50925   0.00000  Uiso   1.00
C794   C     0.36390   0.23215   0.70250   0.00000  Uiso   1.00
C795   C     0.48286   0.17076   0.98998   0.00000  Uiso   1.00
C796   C     0.49973   0.18039   0.94458   0.00000  Uiso   1.00
C797   C     0.51096   0.15865   0.51327   0.00000  Uiso   1.00
C798   C     0.55249   0.14902   0.98884   0.00000  Uiso   1.00
C799   C     0.56886   0.16062   0.94504   0.00000  Uiso   1.00
C800   C     0.54397   0.17897   0.92446   0.00000  Uiso   1.00
F801   F     0.46937   0.18062   0.58676   0.00000  Uiso   1.00
F802   F     0.41788   0.15190   0.54722   0.00000  Uiso   1.00
F803   F     0.56398   0.19636   0.88540   0.00000  Uiso   1.00
H804   H     0.53611   0.00298   0.70971   0.00000  Uiso   1.00
H805   H     0.40511   0.02812   0.79873   0.00000  Uiso   1.00
H806   H     0.43435   0.04948   0.84057   0.00000  Uiso   1.00
H807   H     0.39733   0.00341   0.84952   0.00000  Uiso   1.00
H808   H     0.64155   0.06680   0.94784   0.00000  Uiso   1.00
H809   H     0.58885   0.07372   0.94468   0.00000  Uiso   1.00
H810   H     0.59710   0.05547   0.99501   0.00000  Uiso   1.00
H811   H     0.34080   0.21116   0.96625   0.00000  Uiso   1.00
H812   H     0.37234   0.24924   0.99615   0.00000  Uiso   1.00
H813   H     0.65442   0.22493   0.52472   0.00000  Uiso   1.00
H814   H     0.37747   0.24204   0.73181   0.00000  Uiso   1.00
H815   H     0.60192   0.15757   0.92730   0.00000  Uiso   1.00
H816   H     0.33467   0.24753   0.70586   0.00000  Uiso   1.00
H817   H     0.38810   0.24298   0.67222   0.00000  Uiso   1.00
H818   H     0.40802   0.20265   0.92328   0.00000  Uiso   1.00
H819   H     0.63654   0.12616   0.60954   0.00000  Uiso   1.00
H820   H     0.62288   0.16739   0.58431   0.00000  Uiso   1.00
H821   H     0.65280   0.12662   0.54991   0.00000  Uiso   1.00
H822   H     0.35351   0.13230   0.84240   0.00000  Uiso   1.00
H823   H     0.33612   0.09104   0.80394   0.00000  Uiso   1.00
H824   H     0.63333   0.10664   0.85588   0.00000  Uiso   1.00
O825   O     0.50000   0.16667   0.75000   0.00000  Uiso   1.00
O826   O     0.48784   0.12637   0.65458   0.00000  Uiso   1.00
O827   O     0.46274   0.20391   0.84968   0.00000  Uiso   1.00
O828   O     0.54157   0.17759   0.64606   0.00000  Uiso   1.00
O829   O     0.50785   0.15880   0.84968   0.00000  Uiso   1.00
O830   O     0.58871   0.10789   0.57763   0.00000  Uiso   1.00
O831   O     0.64552   0.14819   0.80758   0.00000  Uiso   1.00
O832   O     0.45444   0.32860   0.80326   0.00000  Uiso   1.00
O833   O     0.61719   0.11814   0.98499   0.00000  Uiso   1.00
O834   O     0.36880   0.18659   0.50905   0.00000  Uiso   1.00
O835   O     0.35553   0.18855   0.69695   0.00000  Uiso   1.00
O836   O     0.51264   0.08019   0.78213   0.00000  Uiso   1.00
O837   O     0.47965   0.26085   0.77013   0.00000  Uiso   1.00
O838   O     0.40745   0.13291   0.73413   0.00000  Uiso   1.00
O839   O     0.60026   0.19272   0.71360   0.00000  Uiso   1.00
O840   O     0.40405   0.18878   0.78213   0.00000  Uiso   1.00
O841   O     0.58824   0.15226   0.77013   0.00000  Uiso   1.00
O842   O     0.47093   0.06944   0.73413   0.00000  Uiso   1.00
O843   O     0.53678   0.25620   0.71360   0.00000  Uiso   1.00
Zn844  Zn    0.52672   0.13994   0.78734   0.00000  Uiso   1.00
Zn845  Zn    0.46713   0.12458   0.71875   0.00000  Uiso   1.00
Zn846  Zn    0.54389   0.19775   0.70657   0.00000  Uiso   1.00
Zn847  Zn    0.46226   0.20439   0.78733   0.00000  Uiso   1.00
C848   C     0.71961   0.15995   0.76028   0.00000  Uiso   1.00
C849   C     0.83400   0.15867   0.56031   0.00000  Uiso   1.00
C850   C     0.89858   0.12707   0.55607   0.00000  Uiso   1.00
C851   C     0.94742   0.17378   0.74021   0.00000  Uiso   1.00
C852   C     0.80496   0.18980   0.92017   0.00000  Uiso   1.00
C853   C     0.99339   0.17474   0.73563   0.00000  Uiso   1.00
C854   C     0.67383   0.15809   0.76657   0.00000  Uiso   1.00
C855   C     0.84505   0.32232   0.73703   0.00000  Uiso   1.00
C856   C     0.81740   0.01225   0.76621   0.00000  Uiso   1.00
C857   C     0.82332   0.05611   0.75996   0.00000  Uiso   1.00
C858   C     0.84296   0.27792   0.74044   0.00000  Uiso   1.00
C859   C     0.74544   0.18668   0.98729   0.00000  Uiso   1.00
C860   C     0.85209   0.14837   0.62950   0.00000  Uiso   1.00
C861   C     0.81597   0.18543   0.87083   0.00000  Uiso   1.00
C862   C     0.91149   0.13041   0.50952   0.00000  Uiso   1.00
C863   C     0.86046   0.14234   0.58108   0.00000  Uiso   1.00
C864   C     0.76245   0.19555   0.94238   0.00000  Uiso   1.00
C865   C     0.96003   0.13358   0.57999   0.00000  Uiso   1.00
C866   C     0.99332   0.11823   0.82789   0.00000  Uiso   1.00
C867   C     0.75494   0.02067   0.82352   0.00000  Uiso   1.00
C868   C     0.94364   0.07671   0.96763   0.00000  Uiso   1.00
C869   C     0.68393   0.21961   0.99800   0.00000  Uiso   1.00
C870   C     0.77143   0.17095   0.50925   0.00000  Uiso   1.00
C871   C     0.69724   0.23215   0.70250   0.00000  Uiso   1.00
C872   C     0.81619   0.17076   0.98998   0.00000  Uiso   1.00
C873   C     0.83306   0.18039   0.94458   0.00000  Uiso   1.00
C874   C     0.84429   0.15865   0.51327   0.00000  Uiso   1.00
C875   C     0.88582   0.14902   0.98884   0.00000  Uiso   1.00
C876   C     0.90220   0.16062   0.94504   0.00000  Uiso   1.00
C877   C     0.87730   0.17897   0.92446   0.00000  Uiso   1.00
F878   F     0.80270   0.18062   0.58676   0.00000  Uiso   1.00
F879   F     0.75121   0.15190   0.54722   0.00000  Uiso   1.00
F880   F     0.89731   0.19636   0.88540   0.00000  Uiso   1.00
H881   H     0.86945   0.00298   0.70971   0.00000  Uiso   1.00
H882   H     0.73844   0.02812   0.79873   0.00000  Uiso   1.00
H883   H     0.76768   0.04948   0.84057   0.00000  Uiso   1.00
H884   H     0.73067   0.00341   0.84952   0.00000  Uiso   1.00
H885   H     0.97488   0.06680   0.94784   0.00000  Uiso   1.00
H886   H     0.92218   0.07372   0.94468   0.00000  Uiso   1.00
H887   H     0.93043   0.05547   0.99501   0.00000  Uiso   1.00
H888   H     0.67414   0.21116   0.96625   0.00000  Uiso   1.00
H889   H     0.70568   0.24924   0.99615   0.00000  Uiso   1.00
H890   H     0.98775   0.22493   0.52472   0.00000  Uiso   1.00
H891   H     0.71080   0.24204   0.73181   0.00000  Uiso   1.00
H892   H     0.93525   0.15757   0.92730   0.00000  Uiso   1.00
H893   H     0.66800   0.24753   0.70586   0.00000  Uiso   1.00
H894   H     0.72143   0.24298   0.67222   0.00000  Uiso   1.00
H895   H     0.74135   0.20265   0.92328   0.00000  Uiso   1.00
H896   H     0.96988   0.12616   0.60954   0.00000  Uiso   1.00
H897   H     0.95621   0.16739   0.58431   0.00000  Uiso   1.00
H898   H     0.98614   0.12662   0.54991   0.00000  Uiso   1.00
H899   H     0.68684   0.13230   0.84240   0.00000  Uiso   1.00
H900   H     0.66946   0.09104   0.80394   0.00000  Uiso   1.00
H901   H     0.96667   0.10664   0.85588   0.00000  Uiso   1.00
O902   O     0.83333   0.16667   0.75000   0.00000  Uiso   1.00
O903   O     0.82118   0.12637   0.65458   0.00000  Uiso   1.00
O904   O     0.79607   0.20391   0.84968   0.00000  Uiso   1.00
O905   O     0.87491   0.17759   0.64606   0.00000  Uiso   1.00
O906   O     0.84118   0.15880   0.84968   0.00000  Uiso   1.00
O907   O     0.92205   0.10789   0.57763   0.00000  Uiso   1.00
O908   O     0.97885   0.14819   0.80758   0.00000  Uiso   1.00
O909   O     0.78777   0.32860   0.80326   0.00000  Uiso   1.00
O910   O     0.95053   0.11814   0.98499   0.00000  Uiso   1.00
O911   O     0.70214   0.18659   0.50905   0.00000  Uiso   1.00
O912   O     0.68887   0.18855   0.69695   0.00000  Uiso   1.00
O913   O     0.84597   0.08019   0.78213   0.00000  Uiso   1.00
O914   O     0.81298   0.26085   0.77013   0.00000  Uiso   1.00
O915   O     0.74078   0.13291   0.73413   0.00000  Uiso   1.00
O916   O     0.93360   0.19272   0.71360   0.00000  Uiso   1.00
O917   O     0.73738   0.18878   0.78213   0.00000  Uiso   1.00
O918   O     0.92158   0.15226   0.77013   0.00000  Uiso   1.00
O919   O     0.80426   0.06944   0.73413   0.00000  Uiso   1.00
O920   O     0.87012   0.25620   0.71360   0.00000  Uiso   1.00
Zn921  Zn    0.86005   0.13994   0.78734   0.00000  Uiso   1.00
Zn922  Zn    0.80046   0.12458   0.71875   0.00000  Uiso   1.00
Zn923  Zn    0.87723   0.19775   0.70657   0.00000  Uiso   1.00
Zn924  Zn    0.79560   0.20439   0.78733   0.00000  Uiso   1.00
C925   C     0.05294   0.49328   0.76028   0.00000  Uiso   1.00
C926   C     0.16733   0.49200   0.56031   0.00000  Uiso   1.00
C927   C     0.23191   0.46041   0.55607   0.00000  Uiso   1.00
C928   C     0.28075   0.50711   0.74021   0.00000  Uiso   1.00
C929   C     0.13830   0.52314   0.92017   0.00000  Uiso   1.00
C930   C     0.32672   0.50807   0.73563   0.00000  Uiso   1.00
C931   C     0.00716   0.49142   0.76657   0.00000  Uiso   1.00
C932   C     0.17839   0.65565   0.73703   0.00000  Uiso   1.00
C933   C     0.15074   0.34559   0.76621   0.00000  Uiso   1.00
C934   C     0.15666   0.38944   0.75996   0.00000  Uiso   1.00
C935   C     0.17629   0.61126   0.74044   0.00000  Uiso   1.00
C936   C     0.07877   0.52001   0.98729   0.00000  Uiso   1.00
C937   C     0.18542   0.48170   0.62950   0.00000  Uiso   1.00
C938   C     0.14931   0.51876   0.87083   0.00000  Uiso   1.00
C939   C     0.24483   0.46375   0.50952   0.00000  Uiso   1.00
C940   C     0.19379   0.47567   0.58108   0.00000  Uiso   1.00
C941   C     0.09578   0.52888   0.94238   0.00000  Uiso   1.00
C942   C     0.29336   0.46691   0.57999   0.00000  Uiso   1.00
C943   C     0.32665   0.45156   0.82789   0.00000  Uiso   1.00
C944   C     0.08828   0.35400   0.82352   0.00000  Uiso   1.00
C945   C     0.27697   0.41004   0.96763   0.00000  Uiso   1.00
C946   C     0.01726   0.55295   0.99800   0.00000  Uiso   1.00
C947   C     0.10476   0.50429   0.50925   0.00000  Uiso   1.00
C948   C     0.03057   0.56548   0.70250   0.00000  Uiso   1.00
C949   C     0.14952   0.50409   0.98998   0.00000  Uiso   1.00
C950   C     0.16640   0.51372   0.94458   0.00000  Uiso   1.00
C951   C     0.17762   0.49198   0.51327   0.00000  Uiso   1.00
C952   C     0.21915   0.48236   0.98884   0.00000  Uiso   1.00
C953   C     0.23553   0.49395   0.94504   0.00000  Uiso   1.00
C954   C     0.21064   0.51231   0.92446   0.00000  Uiso   1.00
F955   F     0.13604   0.51395   0.58676   0.00000  Uiso   1.00
F956   F     0.08454   0.48524   0.54722   0.00000  Uiso   1.00
F957   F     0.23065   0.52969   0.88540   0.00000  Uiso   1.00
H958   H     0.20278   0.33631   0.70971   0.00000  Uiso   1.00
H959   H     0.07178   0.36145   0.79873   0.00000  Uiso   1.00
H960   H     0.10102   0.38282   0.84057   0.00000  Uiso   1.00
H961   H     0.06400   0.33675   0.84952   0.00000  Uiso   1.00
H962   H     0.30821   0.40013   0.94784   0.00000  Uiso   1.00
H963   H     0.25551   0.40705   0.94468   0.00000  Uiso   1.00
H964   H     0.26376   0.38880   0.99501   0.00000  Uiso   1.00
H965   H     0.00747   0.54449   0.96625   0.00000  Uiso   1.00
H966   H     0.03901   0.58257   0.99615   0.00000  Uiso   1.00
H967   H     0.32109   0.55827   0.52472   0.00000  Uiso   1.00
H968   H     0.04414   0.57537   0.73181   0.00000  Uiso   1.00
H969   H     0.26859   0.49090   0.92730   0.00000  Uiso   1.00
H970   H     0.00133   0.58087   0.70586   0.00000  Uiso   1.00
H971   H     0.05476   0.57631   0.67222   0.00000  Uiso   1.00
H972   H     0.07468   0.53599   0.92328   0.00000  Uiso   1.00
H973   H     0.30321   0.45949   0.60954   0.00000  Uiso   1.00
H974   H     0.28955   0.50072   0.58431   0.00000  Uiso   1.00
H975   H     0.31947   0.45996   0.54991   0.00000  Uiso   1.00
H976   H     0.02017   0.46563   0.84240   0.00000  Uiso   1.00
H977   H     0.00279   0.42438   0.80394   0.00000  Uiso   1.00
H978   H     0.30000   0.43997   0.85588   0.00000  Uiso   1.00
O979   O     0.16667   0.50000   0.75000   0.00000  Uiso   1.00
O980   O     0.15451   0.45970   0.65458   0.00000  Uiso   1.00
O981   O     0.12940   0.53724   0.84968   0.00000  Uiso   1.00
O982   O     0.20824   0.51092   0.64606   0.00000  Uiso   1.00
O983   O     0.17451   0.49213   0.84968   0.00000  Uiso   1.00
O984   O     0.25538   0.44122   0.57763   0.00000  Uiso   1.00
O985   O     0.31219   0.48152   0.80758   0.00000  Uiso   1.00
O986   O     0.12111   0.66193   0.80326   0.00000  Uiso   1.00
O987   O     0.28386   0.45147   0.98499   0.00000  Uiso   1.00
O988   O     0.03547   0.51992   0.50905   0.00000  Uiso   1.00
O989   O     0.02220   0.52188   0.69695   0.00000  Uiso   1.00
O990   O     0.17930   0.41352   0.78213   0.00000  Uiso   1.00
O991   O     0.14632   0.59418   0.77013   0.00000  Uiso   1.00
O992   O     0.07412   0.46625   0.73413   0.00000  Uiso   1.00
O993   O     0.26693   0.52605   0.71360   0.00000  Uiso   1.00
O994   O     0.07071   0.52211   0.78213   0.00000  Uiso   1.00
O995   O     0.25491   0.48559   0.77013   0.00000  Uiso   1.00
O996   O     0.13760   0.40277   0.73413   0.00000  Uiso   1.00
O997   O     0.20345   0.58953   0.71360   0.00000  Uiso   1.00
Zn998  Zn    0.19338   0.47327   0.78734   0.00000  Uiso   1.00
Zn999  Zn    0.13379   0.45791   0.71875   0.00000  Uiso   1.00
Zn1000 Zn    0.21056   0.53109   0.70657   0.00000  Uiso   1.00
Zn1001 Zn    0.12893   0.53773   0.78733   0.00000  Uiso   1.00
C1002  C     0.38628   0.49328   0.76028   0.00000  Uiso   1.00
C1003  C     0.50066   0.49200   0.56031   0.00000  Uiso   1.00
C1004  C     0.56524   0.46041   0.55607   0.00000  Uiso   1.00
C1005  C     0.61409   0.50711   0.74021   0.00000  Uiso   1.00
C1006  C     0.47163   0.52314   0.92017   0.00000  Uiso   1.00
C1007  C     0.66006   0.50807   0.73563   0.00000  Uiso   1.00
C1008  C     0.34050   0.49142   0.76657   0.00000  Uiso   1.00
C1009  C     0.51172   0.65565   0.73703   0.00000  Uiso   1.00
C1010  C     0.48407   0.34559   0.76621   0.00000  Uiso   1.00
C1011  C     0.48999   0.38944   0.75996   0.00000  Uiso   1.00
C1012  C     0.50963   0.61126   0.74044   0.00000  Uiso   1.00
C1013  C     0.41211   0.52001   0.98729   0.00000  Uiso   1.00
C1014  C     0.51875   0.48170   0.62950   0.00000  Uiso   1.00
C1015  C     0.48264   0.51876   0.87083   0.00000  Uiso   1.00
C1016  C     0.57816   0.46375   0.50952   0.00000  Uiso   1.00
C1017  C     0.52713   0.47567   0.58108   0.00000  Uiso   1.00
C1018  C     0.42911   0.52888   0.94238   0.00000  Uiso   1.00
C1019  C     0.62670   0.46691   0.57999   0.00000  Uiso   1.00
C1020  C     0.65999   0.45156   0.82789   0.00000  Uiso   1.00
C1021  C     0.42161   0.35400   0.82352   0.00000  Uiso   1.00
C1022  C     0.61030   0.41004   0.96763   0.00000  Uiso   1.00
C1023  C     0.35060   0.55295   0.99800   0.00000  Uiso   1.00
C1024  C     0.43809   0.50429   0.50925   0.00000  Uiso   1.00
C1025  C     0.36390   0.56548   0.70250   0.00000  Uiso   1.00
C1026  C     0.48286   0.50409   0.98998   0.00000  Uiso   1.00
C1027  C     0.49973   0.51372   0.94458   0.00000  Uiso   1.00
C1028  C     0.51096   0.49198   0.51327   0.00000  Uiso   1.00
C1029  C     0.55249   0.48236   0.98884   0.00000  Uiso   1.00
C1030  C     0.56886   0.49395   0.94504   0.00000  Uiso   1.00
C1031  C     0.54397   0.51231   0.92446   0.00000  Uiso   1.00
F1032  F     0.46937   0.51395   0.58676   0.00000  Uiso   1.00
F1033  F     0.41788   0.48524   0.54722   0.00000  Uiso   1.00
F1034  F     0.56398   0.52969   0.88540   0.00000  Uiso   1.00
H1035  H     0.53611   0.33631   0.70971   0.00000  Uiso   1.00
H1036  H     0.40511   0.36145   0.79873   0.00000  Uiso   1.00
H1037  H     0.43435   0.38282   0.84057   0.00000  Uiso   1.00
H1038  H     0.39733   0.33675   0.84952   0.00000  Uiso   1.00
H1039  H     0.64155   0.40013   0.94784   0.00000  Uiso   1.00
H1040  H     0.58885   0.40705   0.94468   0.00000  Uiso   1.00
H1041  H     0.59710   0.38880   0.99501   0.00000  Uiso   1.00
H1042  H     0.34080   0.54449   0.96625   0.00000  Uiso   1.00
H1043  H     0.37234   0.58257   0.99615   0.00000  Uiso   1.00
H1044  H     0.65442   0.55827   0.52472   0.00000  Uiso   1.00
H1045  H     0.37747   0.57537   0.73181   0.00000  Uiso   1.00
H1046  H     0.60192   0.49090   0.92730   0.00000  Uiso   1.00
H1047  H     0.33467   0.58087   0.70586   0.00000  Uiso   1.00
H1048  H     0.38810   0.57631   0.67222   0.00000  Uiso   1.00
H1049  H     0.40802   0.53599   0.92328   0.00000  Uiso   1.00
H1050  H     0.63654   0.45949   0.60954   0.00000  Uiso   1.00
H1051  H     0.62288   0.50072   0.58431   0.00000  Uiso   1.00
H1052  H     0.65280   0.45996   0.54991   0.00000  Uiso   1.00
H1053  H     0.35351   0.46563   0.84240   0.00000  Uiso   1.00
H1054  H     0.33612   0.42438   0.80394   0.00000  Uiso   1.00
H1055  H     0.63333   0.43997   0.85588   0.00000  Uiso   1.00
O1056  O     0.50000   0.50000   0.75000   0.00000  Uiso   1.00
O1057  O     0.48784   0.45970   0.65458   0.00000  Uiso   1.00
O1058  O     0.46274   0.53724   0.84968   0.00000  Uiso   1.00
O1059  O     0.54157   0.51092   0.64606   0.00000  Uiso   1.00
O1060  O     0.50785   0.49213   0.84968   0.00000  Uiso   1.00
O1061  O     0.58871   0.44122   0.57763   0.00000  Uiso   1.00
O1062  O     0.64552   0.48152   0.80758   0.00000  Uiso   1.00
O1063  O     0.45444   0.66193   0.80326   0.00000  Uiso   1.00
O1064  O     0.61719   0.45147   0.98499   0.00000  Uiso   1.00
O1065  O     0.36880   0.51992   0.50905   0.00000  Uiso   1.00
O1066  O     0.35553   0.52188   0.69695   0.00000  Uiso   1.00
O1067  O     0.51264   0.41352   0.78213   0.00000  Uiso   1.00
O1068  O     0.47965   0.59418   0.77013   0.00000  Uiso   1.00
O1069  O     0.40745   0.46625   0.73413   0.00000  Uiso   1.00
O1070  O     0.60026   0.52605   0.71360   0.00000  Uiso   1.00
O1071  O     0.40405   0.52211   0.78213   0.00000  Uiso   1.00
O1072  O     0.58824   0.48559   0.77013   0.00000  Uiso   1.00
O1073  O     0.47093   0.40277   0.73413   0.00000  Uiso   1.00
O1074  O     0.53678   0.58953   0.71360   0.00000  Uiso   1.00
Zn1075 Zn    0.52672   0.47327   0.78734   0.00000  Uiso   1.00
Zn1076 Zn    0.46713   0.45791   0.71875   0.00000  Uiso   1.00
Zn1077 Zn    0.54389   0.53109   0.70657   0.00000  Uiso   1.00
Zn1078 Zn    0.46226   0.53773   0.78733   0.00000  Uiso   1.00
C1079  C     0.71961   0.49328   0.76028   0.00000  Uiso   1.00
C1080  C     0.83400   0.49200   0.56031   0.00000  Uiso   1.00
C1081  C     0.89858   0.46041   0.55607   0.00000  Uiso   1.00
C1082  C     0.94742   0.50711   0.74021   0.00000  Uiso   1.00
C1083  C     0.80496   0.52314   0.92017   0.00000  Uiso   1.00
C1084  C     0.99339   0.50807   0.73563   0.00000  Uiso   1.00
C1085  C     0.67383   0.49142   0.76657   0.00000  Uiso   1.00
C1086  C     0.84505   0.65565   0.73703   0.00000  Uiso   1.00
C1087  C     0.81740   0.34559   0.76621   0.00000  Uiso   1.00
C1088  C     0.82332   0.38944   0.75996   0.00000  Uiso   1.00
C1089  C     0.84296   0.61126   0.74044   0.00000  Uiso   1.00
C1090  C     0.74544   0.52001   0.98729   0.00000  Uiso   1.00
C1091  C     0.85209   0.48170   0.62950   0.00000  Uiso   1.00
C1092  C     0.81597   0.51876   0.87083   0.00000  Uiso   1.00
C1093  C     0.91149   0.46375   0.50952   0.00000  Uiso   1.00
C1094  C     0.86046   0.47567   0.58108   0.00000  Uiso   1.00
C1095  C     0.76245   0.52888   0.94238   0.00000  Uiso   1.00
C1096  C     0.96003   0.46691   0.57999   0.00000  Uiso   1.00
C1097  C     0.99332   0.45156   0.82789   0.00000  Uiso   1.00
C1098  C     0.75494   0.35400   0.82352   0.00000  Uiso   1.00
C1099  C     0.94364   0.41004   0.96763   0.00000  Uiso   1.00
C1100  C     0.68393   0.55295   0.99800   0.00000  Uiso   1.00
C1101  C     0.77143   0.50429   0.50925   0.00000  Uiso   1.00
C1102  C     0.69724   0.56548   0.70250   0.00000  Uiso   1.00
C1103  C     0.81619   0.50409   0.98998   0.00000  Uiso   1.00
C1104  C     0.83306   0.51372   0.94458   0.00000  Uiso   1.00
C1105  C     0.84429   0.49198   0.51327   0.00000  Uiso   1.00
C1106  C     0.88582   0.48236   0.98884   0.00000  Uiso   1.00
C1107  C     0.90220   0.49395   0.94504   0.00000  Uiso   1.00
C1108  C     0.87730   0.51231   0.92446   0.00000  Uiso   1.00
F1109  F     0.80270   0.51395   0.58676   0.00000  Uiso   1.00
F1110  F     0.75121   0.48524   0.54722   0.00000  Uiso   1.00
F1111  F     0.89731   0.52969   0.88540   0.00000  Uiso   1.00
H1112  H     0.86945   0.33631   0.70971   0.00000  Uiso   1.00
H1113  H     0.73844   0.36145   0.79873   0.00000  Uiso   1.00
H1114  H     0.76768   0.38282   0.84057   0.00000  Uiso   1.00
H1115  H     0.73067   0.33675   0.84952   0.00000  Uiso   1.00
H1116  H     0.97488   0.40013   0.94784   0.00000  Uiso   1.00
H1117  H     0.92218   0.40705   0.94468   0.00000  Uiso   1.00
H1118  H     0.93043   0.38880   0.99501   0.00000  Uiso   1.00
H1119  H     0.67414   0.54449   0.96625   0.00000  Uiso   1.00
H1120  H     0.70568   0.58257   0.99615   0.00000  Uiso   1.00
H1121  H     0.98775   0.55827   0.52472   0.00000  Uiso   1.00
H1122  H     0.71080   0.57537   0.73181   0.00000  Uiso   1.00
H1123  H     0.93525   0.49090   0.92730   0.00000  Uiso   1.00
H1124  H     0.66800   0.58087   0.70586   0.00000  Uiso   1.00
H1125  H     0.72143   0.57631   0.67222   0.00000  Uiso   1.00
H1126  H     0.74135   0.53599   0.92328   0.00000  Uiso   1.00
H1127  H     0.96988   0.45949   0.60954   0.00000  Uiso   1.00
H1128  H     0.95621   0.50072   0.58431   0.00000  Uiso   1.00
H1129  H     0.98614   0.45996   0.54991   0.00000  Uiso   1.00
H1130  H     0.68684   0.46563   0.84240   0.00000  Uiso   1.00
H1131  H     0.66946   0.42438   0.80394   0.00000  Uiso   1.00
H1132  H     0.96667   0.43997   0.85588   0.00000  Uiso   1.00
O1133  O     0.83333   0.50000   0.75000   0.00000  Uiso   1.00
O1134  O     0.82118   0.45970   0.65458   0.00000  Uiso   1.00
O1135  O     0.79607   0.53724   0.84968   0.00000  Uiso   1.00
O1136  O     0.87491   0.51092   0.64606   0.00000  Uiso   1.00
O1137  O     0.84118   0.49213   0.84968   0.00000  Uiso   1.00
O1138  O     0.92205   0.44122   0.57763   0.00000  Uiso   1.00
O1139  O     0.97885   0.48152   0.80758   0.00000  Uiso   1.00
O1140  O     0.78777   0.66193   0.80326   0.00000  Uiso   1.00
O1141  O     0.95053   0.45147   0.98499   0.00000  Uiso   1.00
O1142  O     0.70214   0.51992   0.50905   0.00000  Uiso   1.00
O1143  O     0.68887   0.52188   0.69695   0.00000  Uiso   1.00
O1144  O     0.84597   0.41352   0.78213   0.00000  Uiso   1.00
O1145  O     0.81298   0.59418   0.77013   0.00000  Uiso   1.00
O1146  O     0.74078   0.46625   0.73413   0.00000  Uiso   1.00
O1147  O     0.93360   0.52605   0.71360   0.00000  Uiso   1.00
O1148  O     0.73738   0.52211   0.78213   0.00000  Uiso   1.00
O1149  O     0.92158   0.48559   0.77013   0.00000  Uiso   1.00
O1150  O     0.80426   0.40277   0.73413   0.00000  Uiso   1.00
O1151  O     0.87012   0.58953   0.71360   0.00000  Uiso   1.00
Zn1152 Zn    0.86005   0.47327   0.78734   0.00000  Uiso   1.00
Zn1153 Zn    0.80046   0.45791   0.71875   0.00000  Uiso   1.00
Zn1154 Zn    0.87723   0.53109   0.70657   0.00000  Uiso   1.00
Zn1155 Zn    0.79560   0.53773   0.78733   0.00000  Uiso   1.00
C1156  C     0.05294   0.82661   0.76028   0.00000  Uiso   1.00
C1157  C     0.16733   0.82534   0.56031   0.00000  Uiso   1.00
C1158  C     0.23191   0.79374   0.55607   0.00000  Uiso   1.00
C1159  C     0.28075   0.84044   0.74021   0.00000  Uiso   1.00
C1160  C     0.13830   0.85647   0.92017   0.00000  Uiso   1.00
C1161  C     0.32672   0.84140   0.73563   0.00000  Uiso   1.00
C1162  C     0.00716   0.82476   0.76657   0.00000  Uiso   1.00
C1163  C     0.17839   0.98898   0.73703   0.00000  Uiso   1.00
C1164  C     0.15074   0.67892   0.76621   0.00000  Uiso   1.00
C1165  C     0.15666   0.72278   0.75996   0.00000  Uiso   1.00
C1166  C     0.17629   0.94459   0.74044   0.00000  Uiso   1.00
C1167  C     0.07877   0.85334   0.98729   0.00000  Uiso   1.00
C1168  C     0.18542   0.81503   0.62950   0.00000  Uiso   1.00
C1169  C     0.14931   0.85209   0.87083   0.00000  Uiso   1.00
C1170  C     0.24483   0.79708   0.50952   0.00000  Uiso   1.00
C1171  C     0.19379   0.80901   0.58108   0.00000  Uiso   1.00
C1172  C     0.09578   0.86221   0.94238   0.00000  Uiso   1.00
C1173  C     0.29336   0.80024   0.57999   0.00000  Uiso   1.00
C1174  C     0.32665   0.78489   0.82789   0.00000  Uiso   1.00
C1175  C     0.08828   0.68733   0.82352   0.00000  Uiso   1.00
C1176  C     0.27697   0.74338   0.96763   0.00000  Uiso   1.00
C1177  C     0.01726   0.88628   0.99800   0.00000  Uiso   1.00
C1178  C     0.10476   0.83762   0.50925   0.00000  Uiso   1.00
C1179  C     0.03057   0.89881   0.70250   0.00000  Uiso   1.00
C1180  C     0.14952   0.83743   0.98998   0.00000  Uiso   1.00
C1181  C     0.16640   0.84705   0.94458   0.00000  Uiso   1.00
C1182  C     0.17762   0.82532   0.51327   0.00000  Uiso   1.00
C1183  C     0.21915   0.81569   0.98884   0.00000  Uiso   1.00
C1184  C     0.23553   0.82728   0.94504   0.00000  Uiso   1.00
C1185  C     0.21064   0.84564   0.92446   0.00000  Uiso   1.00
F1186  F     0.13604   0.84728   0.58676   0.00000  Uiso   1.00
F1187  F     0.08454   0.81857   0.54722   0.00000  Uiso   1.00
F1188  F     0.23065   0.86303   0.88540   0.00000  Uiso   1.00
H1189  H     0.20278   0.66964   0.70971   0.00000  Uiso   1.00
H1190  H     0.07178   0.69479   0.79873   0.00000  Uiso   1.00
H1191  H     0.10102   0.71615   0.84057   0.00000  Uiso   1.00
H1192  H     0.06400   0.67008   0.84952   0.00000  Uiso   1.00
H1193  H     0.30821   0.73346   0.94784   0.00000  Uiso   1.00
H1194  H     0.25551   0.74039   0.94468   0.00000  Uiso   1.00
H1195  H     0.26376   0.72214   0.99501   0.00000  Uiso   1.00
H1196  H     0.00747   0.87783   0.96625   0.00000  Uiso   1.00
H1197  H     0.03901   0.91591   0.99615   0.00000  Uiso   1.00
H1198  H     0.32109   0.89160   0.52472   0.00000  Uiso   1.00
H1199  H     0.04414   0.90871   0.73181   0.00000  Uiso   1.00
H1200  H     0.26859   0.82424   0.92730   0.00000  Uiso   1.00
H1201  H     0.00133   0.91420   0.70586   0.00000  Uiso   1.00
H1202  H     0.05476   0.90964   0.67222   0.00000  Uiso   1.00
H1203  H     0.07468   0.86932   0.92328   0.00000  Uiso   1.00
H1204  H     0.30321   0.79283   0.60954   0.00000  Uiso   1.00
H1205  H     0.28955   0.83406   0.58431   0.00000  Uiso   1.00
H1206  H     0.31947   0.79329   0.54991   0.00000  Uiso   1.00
H1207  H     0.02017   0.79897   0.84240   0.00000  Uiso   1.00
H1208  H     0.00279   0.75771   0.80394   0.00000  Uiso   1.00
H1209  H     0.30000   0.77331   0.85588   0.00000  Uiso   1.00
O1210  O     0.16667   0.83333   0.75000   0.00000  Uiso   1.00
O1211  O     0.15451   0.79304   0.65458   0.00000  Uiso   1.00
O1212  O     0.12940   0.87058   0.84968   0.00000  Uiso   1.00
O1213  O     0.20824   0.84425   0.64606   0.00000  Uiso   1.00
O1214  O     0.17451   0.82546   0.84968   0.00000  Uiso   1.00
O1215  O     0.25538   0.77455   0.57763   0.00000  Uiso   1.00
O1216  O     0.31219   0.81486   0.80758   0.00000  Uiso   1.00
O1217  O     0.12111   0.99527   0.80326   0.00000  Uiso   1.00
O1218  O     0.28386   0.78481   0.98499   0.00000  Uiso   1.00
O1219  O     0.03547   0.85326   0.50905   0.00000  Uiso   1.00
O1220  O     0.02220   0.85521   0.69695   0.00000  Uiso   1.00
O1221  O     0.17930   0.74686   0.78213   0.00000  Uiso   1.00
O1222  O     0.14632   0.92751   0.77013   0.00000  Uiso   1.00
O1223  O     0.07412   0.79958   0.73413   0.00000  Uiso   1.00
O1224  O     0.26693   0.85939   0.71360   0.00000  Uiso   1.00
O1225  O     0.07071   0.85544   0.78213   0.00000  Uiso   1.00
O1226  O     0.25491   0.81892   0.77013   0.00000  Uiso   1.00
O1227  O     0.13760   0.73610   0.73413   0.00000  Uiso   1.00
O1228  O     0.20345   0.92286   0.71360   0.00000  Uiso   1.00
Zn1229 Zn    0.19338   0.80661   0.78734   0.00000  Uiso   1.00
Zn1230 Zn    0.13379   0.79124   0.71875   0.00000  Uiso   1.00
Zn1231 Zn    0.21056   0.86442   0.70657   0.00000  Uiso   1.00
Zn1232 Zn    0.12893   0.87106   0.78733   0.00000  Uiso   1.00
C1233  C     0.38628   0.82661   0.76028   0.00000  Uiso   1.00
C1234  C     0.50066   0.82534   0.56031   0.00000  Uiso   1.00
C1235  C     0.56524   0.79374   0.55607   0.00000  Uiso   1.00
C1236  C     0.61409   0.84044   0.74021   0.00000  Uiso   1.00
C1237  C     0.47163   0.85647   0.92017   0.00000  Uiso   1.00
C1238  C     0.66006   0.84140   0.73563   0.00000  Uiso   1.00
C1239  C     0.34050   0.82476   0.76657   0.00000  Uiso   1.00
C1240  C     0.51172   0.98898   0.73703   0.00000  Uiso   1.00
C1241  C     0.48407   0.67892   0.76621   0.00000  Uiso   1.00
C1242  C     0.48999   0.72278   0.75996   0.00000  Uiso   1.00
C1243  C     0.50963   0.94459   0.74044   0.00000  Uiso   1.00
C1244  C     0.41211   0.85334   0.98729   0.00000  Uiso   1.00
C1245  C     0.51875   0.81503   0.62950   0.00000  Uiso   1.00
C1246  C     0.48264   0.85209   0.87083   0.00000  Uiso   1.00
C1247  C     0.57816   0.79708   0.50952   0.00000  Uiso   1.00
C1248  C     0.52713   0.80901   0.58108   0.00000  Uiso   1.00
C1249  C     0.42911   0.86221   0.94238   0.00000  Uiso   1.00
C1250  C     0.62670   0.80024   0.57999   0.00000  Uiso   1.00
C1251  C     0.65999   0.78489   0.82789   0.00000  Uiso   1.00
C1252  C     0.42161   0.68733   0.82352   0.00000  Uiso   1.00
C1253  C     0.61030   0.74338   0.96763   0.00000  Uiso   1.00
C1254  C     0.35060   0.88628   0.99800   0.00000  Uiso   1.00
C1255  C     0.43809   0.83762   0.50925   0.00000  Uiso   1.00
C1256  C     0.36390   0.89881   0.70250   0.00000  Uiso   1.00
C1257  C     0.48286   0.83743   0.98998   0.00000  Uiso   1.00
C1258  C     0.49973   0.84705   0.94458   0.00000  Uiso   1.00
C1259  C     0.51096   0.82532   0.51327   0.00000  Uiso   1.00
C1260  C     0.55249   0.81569   0.98884   0.00000  Uiso   1.00
C1261  C     0.56886   0.82728   0.94504   0.00000  Uiso   1.00
C1262  C     0.54397   0.84564   0.92446   0.00000  Uiso   1.00
F1263  F     0.46937   0.84728   0.58676   0.00000  Uiso   1.00
F1264  F     0.41788   0.81857   0.54722   0.00000  Uiso   1.00
F1265  F     0.56398   0.86303   0.88540   0.00000  Uiso   1.00
H1266  H     0.53611   0.66964   0.70971   0.00000  Uiso   1.00
H1267  H     0.40511   0.69479   0.79873   0.00000  Uiso   1.00
H1268  H     0.43435   0.71615   0.84057   0.00000  Uiso   1.00
H1269  H     0.39733   0.67008   0.84952   0.00000  Uiso   1.00
H1270  H     0.64155   0.73346   0.94784   0.00000  Uiso   1.00
H1271  H     0.58885   0.74039   0.94468   0.00000  Uiso   1.00
H1272  H     0.59710   0.72214   0.99501   0.00000  Uiso   1.00
H1273  H     0.34080   0.87783   0.96625   0.00000  Uiso   1.00
H1274  H     0.37234   0.91591   0.99615   0.00000  Uiso   1.00
H1275  H     0.65442   0.89160   0.52472   0.00000  Uiso   1.00
H1276  H     0.37747   0.90871   0.73181   0.00000  Uiso   1.00
H1277  H     0.60192   0.82424   0.92730   0.00000  Uiso   1.00
H1278  H     0.33467   0.91420   0.70586   0.00000  Uiso   1.00
H1279  H     0.38810   0.90964   0.67222   0.00000  Uiso   1.00
H1280  H     0.40802   0.86932   0.92328   0.00000  Uiso   1.00
H1281  H     0.63654   0.79283   0.60954   0.00000  Uiso   1.00
H1282  H     0.62288   0.83406   0.58431   0.00000  Uiso   1.00
H1283  H     0.65280   0.79329   0.54991   0.00000  Uiso   1.00
H1284  H     0.35351   0.79897   0.84240   0.00000  Uiso   1.00
H1285  H     0.33612   0.75771   0.80394   0.00000  Uiso   1.00
H1286  H     0.63333   0.77331   0.85588   0.00000  Uiso   1.00
O1287  O     0.50000   0.83333   0.75000   0.00000  Uiso   1.00
O1288  O     0.48784   0.79304   0.65458   0.00000  Uiso   1.00
O1289  O     0.46274   0.87058   0.84968   0.00000  Uiso   1.00
O1290  O     0.54157   0.84425   0.64606   0.00000  Uiso   1.00
O1291  O     0.50785   0.82546   0.84968   0.00000  Uiso   1.00
O1292  O     0.58871   0.77455   0.57763   0.00000  Uiso   1.00
O1293  O     0.64552   0.81486   0.80758   0.00000  Uiso   1.00
O1294  O     0.45444   0.99527   0.80326   0.00000  Uiso   1.00
O1295  O     0.61719   0.78481   0.98499   0.00000  Uiso   1.00
O1296  O     0.36880   0.85326   0.50905   0.00000  Uiso   1.00
O1297  O     0.35553   0.85521   0.69695   0.00000  Uiso   1.00
O1298  O     0.51264   0.74686   0.78213   0.00000  Uiso   1.00
O1299  O     0.47965   0.92751   0.77013   0.00000  Uiso   1.00
O1300  O     0.40745   0.79958   0.73413   0.00000  Uiso   1.00
O1301  O     0.60026   0.85939   0.71360   0.00000  Uiso   1.00
O1302  O     0.40405   0.85544   0.78213   0.00000  Uiso   1.00
O1303  O     0.58824   0.81892   0.77013   0.00000  Uiso   1.00
O1304  O     0.47093   0.73610   0.73413   0.00000  Uiso   1.00
O1305  O     0.53678   0.92286   0.71360   0.00000  Uiso   1.00
Zn1306 Zn    0.52672   0.80661   0.78734   0.00000  Uiso   1.00
Zn1307 Zn    0.46713   0.79124   0.71875   0.00000  Uiso   1.00
Zn1308 Zn    0.54389   0.86442   0.70657   0.00000  Uiso   1.00
Zn1309 Zn    0.46226   0.87106   0.78733   0.00000  Uiso   1.00
C1310  C     0.71961   0.82661   0.76028   0.00000  Uiso   1.00
C1311  C     0.83400   0.82534   0.56031   0.00000  Uiso   1.00
C1312  C     0.89858   0.79374   0.55607   0.00000  Uiso   1.00
C1313  C     0.94742   0.84044   0.74021   0.00000  Uiso   1.00
C1314  C     0.80496   0.85647   0.92017   0.00000  Uiso   1.00
C1315  C     0.99339   0.84140   0.73563   0.00000  Uiso   1.00
C1316  C     0.67383   0.82476   0.76657   0.00000  Uiso   1.00
C1317  C     0.84505   0.98898   0.73703   0.00000  Uiso   1.00
C1318  C     0.81740   0.67892   0.76621   0.00000  Uiso   1.00
C1319  C     0.82332   0.72278   0.75996   0.00000  Uiso   1.00
C1320  C     0.84296   0.94459   0.74044   0.00000  Uiso   1.00
C1321  C     0.74544   0.85334   0.98729   0.00000  Uiso   1.00
C1322  C     0.85209   0.81503   0.62950   0.00000  Uiso   1.00
C1323  C     0.81597   0.85209   0.87083   0.00000  Uiso   1.00
C1324  C     0.91149   0.79708   0.50952   0.00000  Uiso   1.00
C1325  C     0.86046   0.80901   0.58108   0.00000  Uiso   1.00
C1326  C     0.76245   0.86221   0.94238   0.00000  Uiso   1.00
C1327  C     0.96003   0.80024   0.57999   0.00000  Uiso   1.00
C1328  C     0.99332   0.78489   0.82789   0.00000  Uiso   1.00
C1329  C     0.75494   0.68733   0.82352   0.00000  Uiso   1.00
C1330  C     0.94364   0.74338   0.96763   0.00000  Uiso   1.00
C1331  C     0.68393   0.88628   0.99800   0.00000  Uiso   1.00
C1332  C     0.77143   0.83762   0.50925   0.00000  Uiso   1.00
C1333  C     0.69724   0.89881   0.70250   0.00000  Uiso   1.00
C1334  C     0.81619   0.83743   0.98998   0.00000  Uiso   1.00
C1335  C     0.83306   0.84705   0.94458   0.00000  Uiso   1.00
C1336  C     0.84429   0.82532   0.51327   0.00000  Uiso   1.00
C1337  C     0.88582   0.81569   0.98884   0.00000  Uiso   1.00
C1338  C     0.90220   0.82728   0.94504   0.00000  Uiso   1.00
C1339  C     0.87730   0.84564   0.92446   0.00000  Uiso   1.00
F1340  F     0.80270   0.84728   0.58676   0.00000  Uiso   1.00
F1341  F     0.75121   0.81857   0.54722   0.00000  Uiso   1.00
F1342  F     0.89731   0.86303   0.88540   0.00000  Uiso   1.00
H1343  H     0.86945   0.66964   0.70971   0.00000  Uiso   1.00
H1344  H     0.73844   0.69479   0.79873   0.00000  Uiso   1.00
H1345  H     0.76768   0.71615   0.84057   0.00000  Uiso   1.00
H1346  H     0.73067   0.67008   0.84952   0.00000  Uiso   1.00
H1347  H     0.97488   0.73346   0.94784   0.00000  Uiso   1.00
H1348  H     0.92218   0.74039   0.94468   0.00000  Uiso   1.00
H1349  H     0.93043   0.72214   0.99501   0.00000  Uiso   1.00
H1350  H     0.67414   0.87783   0.96625   0.00000  Uiso   1.00
H1351  H     0.70568   0.91591   0.99615   0.00000  Uiso   1.00
H1352  H     0.98775   0.89160   0.52472   0.00000  Uiso   1.00
H1353  H     0.71080   0.90871   0.73181   0.00000  Uiso   1.00
H1354  H     0.93525   0.82424   0.92730   0.00000  Uiso   1.00
H1355  H     0.66800   0.91420   0.70586   0.00000  Uiso   1.00
H1356  H     0.72143   0.90964   0.67222   0.00000  Uiso   1.00
H1357  H     0.74135   0.86932   0.92328   0.00000  Uiso   1.00
H1358  H     0.96988   0.79283   0.60954   0.00000  Uiso   1.00
H1359  H     0.95621   0.83406   0.58431   0.00000  Uiso   1.00
H1360  H     0.98614   0.79329   0.54991   0.00000  Uiso   1.00
H1361  H     0.68684   0.79897   0.84240   0.00000  Uiso   1.00
H1362  H     0.66946   0.75771   0.80394   0.00000  Uiso   1.00
H1363  H     0.96667   0.77331   0.85588   0.00000  Uiso   1.00
O1364  O     0.83333   0.83333   0.75000   0.00000  Uiso   1.00
O1365  O     0.82118   0.79304   0.65458   0.00000  Uiso   1.00
O1366  O     0.79607   0.87058   0.84968   0.00000  Uiso   1.00
O1367  O     0.87491   0.84425   0.64606   0.00000  Uiso   1.00
O1368  O     0.84118   0.82546   0.84968   0.00000  Uiso   1.00
O1369  O     0.92205   0.77455   0.57763   0.00000  Uiso   1.00
O1370  O     0.97885   0.81486   0.80758   0.00000  Uiso   1.00
O1371  O     0.78777   0.99527   0.80326   0.00000  Uiso   1.00
O1372  O     0.95053   0.78481   0.98499   0.00000  Uiso   1.00
O1373  O     0.70214   0.85326   0.50905   0.00000  Uiso   1.00
O1374  O     0.68887   0.85521   0.69695   0.00000  Uiso   1.00
O1375  O     0.84597   0.74686   0.78213   0.00000  Uiso   1.00
O1376  O     0.81298   0.92751   0.77013   0.00000  Uiso   1.00
O1377  O     0.74078   0.79958   0.73413   0.00000  Uiso   1.00
O1378  O     0.93360   0.85939   0.71360   0.00000  Uiso   1.00
O1379  O     0.73738   0.85544   0.78213   0.00000  Uiso   1.00
O1380  O     0.92158   0.81892   0.77013   0.00000  Uiso   1.00
O1381  O     0.80426   0.73610   0.73413   0.00000  Uiso   1.00
O1382  O     0.87012   0.92286   0.71360   0.00000  Uiso   1.00
Zn1383 Zn    0.86005   0.80661   0.78734   0.00000  Uiso   1.00
Zn1384 Zn    0.80046   0.79124   0.71875   0.00000  Uiso   1.00
Zn1385 Zn    0.87723   0.86442   0.70657   0.00000  Uiso   1.00
Zn1386 Zn    0.79560   0.87106   0.78733   0.00000  Uiso   1.00
loop_
_geom_bond_atom_site_label_1
_geom_bond_atom_site_label_2
_geom_bond_distance
_geom_bond_site_symmetry_2
_ccdc_geom_bond_type
C1     O68     1.273   .     A
C1     C7      1.446   .     S
C1     O70     1.265   .     A
C2     C27     1.408   .     A
C2     C16     1.394   .     A
C2     F31     1.360   .     S
C3     O60     1.386   .     S
C3     C15     1.405   .     A
C3     C16     1.401   .     A
C4     O69     1.286   .     A
C4     C6      1.463   .     S
C4     O71     1.276   .     A
C5     C17     1.401   .     A
C5     C14     1.472   .     S
C5     C26     1.417   .     A
C6     C84     1.353   .     S
C6     O142    1.388   .     S
C7     C160    1.353   1_455 S
C7     O215    1.399   1_455 S
C8     C11     1.453   .     S
C8     C240    1.344   .     S
C8     H265    1.088   .     S
C9     C10     1.444   .     S
C9     C470    1.344   1_545 S
C9     O524    1.401   1_545 S
C10    O66     1.277   .     A
C10    O72     1.279   .     A
C11    O67     1.264   .     A
C11    O73     1.275   .     A
C12    C17     1.402   .     A
C12    C716    1.396   .     S
C12    O757    1.392   .     S
C13    O56     1.281   .     A
C13    O58     1.276   .     A
C13    C16     1.450   .     S
C14    O59     1.281   .     A
C14    O57     1.280   .     A
C15    C721    1.412   1_554 S
C15    O756    1.383   1_554 S
C17    H48     1.082   .     S
C18    H51     1.108   .     S
C18    O60     1.411   .     S
C18    H50     1.115   .     S
C18    H49     1.109   .     S
C19    H54     1.109   .     S
C19    O61     1.412   .     S
C19    H129    1.112   .     S
C19    H130    1.114   .     S
C20    H35     1.113   .     S
C20    H37     1.109   .     S
C20    H36     1.112   .     S
C20    O524    1.412   1_545 S
C21    H38     1.109   .     S
C21    H39     1.113   .     S
C21    H40     1.113   .     S
C21    O63     1.409   .     S
C22    H41     1.111   .     S
C22    H42     1.114   .     S
C22    H890    1.109   1_455 S
C22    O757    1.412   .     S
C23    F32     1.357   .     S
C23    C705    1.396   1_554 S
C23    C718    1.422   1_554 S
C24    O65     1.410   .     S
C24    H44     1.113   .     S
C24    H47     1.109   .     S
C24    H46     1.112   .     S
C25    C26     1.422   .     A
C25    C716    1.422   .     S
C25    C720    1.426   .     S
C26    C30     1.415   .     A
C27    C718    1.426   1_554 S
C27    C721    1.421   1_554 S
C28    C29     1.395   .     A
C28    C708    1.412   .     S
C28    C720    1.421   .     S
C29    H45     1.084   .     S
C29    C30     1.385   .     A
C30    F33     1.358   .     S
H34    C470    1.088   1_545 S
H43    C792    1.109   1_554 S
H52    C173    1.112   1_455 S
H53    C173    1.114   1_455 S
O55    Zn75    1.958   .     S
O55    Zn74    1.957   .     S
O55    Zn76    1.940   .     S
O55    Zn77    1.925   .     S
O56    Zn75    1.929   .     S
O57    Zn77    1.942   .     S
O58    Zn76    1.938   .     S
O59    Zn74    1.925   .     S
O61    C84     1.399   .     S
O62    C251    1.412   .     S
O62    C240    1.401   .     S
O63    C708    1.383   .     S
O64    C705    1.392   1_554 S
O64    C715    1.412   1_554 S
O65    C160    1.388   1_455 S
O66    Zn74    1.938   .     S
O67    Zn77    1.939   .     S
O68    Zn75    1.925   .     S
O69    Zn76    1.938   .     S
O70    Zn77    1.941   .     S
O71    Zn74    1.929   .     S
O72    Zn75    1.938   .     S
O73    Zn76    1.932   .     S
C78    O145    1.273   .     A
C78    C84     1.446   .     S
C78    O147    1.265   .     A
C79    C104    1.408   .     A
C79    C93     1.394   .     A
C79    F108    1.360   .     S
C80    O137    1.386   .     S
C80    C92     1.405   .     A
C80    C93     1.401   .     A
C81    O146    1.286   .     A
C81    C83     1.463   .     S
C81    O148    1.276   .     A
C82    C94     1.401   .     A
C82    C91     1.472   .     S
C82    C103    1.417   .     A
C83    C161    1.353   .     S
C83    O219    1.388   .     S
C85    C88     1.453   .     S
C85    C317    1.344   .     S
C85    H342    1.088   .     S
C86    C87     1.444   .     S
C86    C547    1.344   1_545 S
C86    O601    1.401   1_545 S
C87    O143    1.277   .     A
C87    O149    1.279   .     A
C88    O144    1.264   .     A
C88    O150    1.275   .     A
C89    C94     1.402   .     A
C89    C793    1.396   .     S
C89    O834    1.392   .     S
C90    O133    1.281   .     A
C90    O135    1.276   .     A
C90    C93     1.450   .     S
C91    O136    1.281   .     A
C91    O134    1.280   .     A
C92    C798    1.412   1_554 S
C92    O833    1.383   1_554 S
C94    H125    1.082   .     S
C95    H128    1.108   .     S
C95    O137    1.411   .     S
C95    H127    1.115   .     S
C95    H126    1.109   .     S
C96    H131    1.109   .     S
C96    O138    1.412   .     S
C96    H206    1.112   .     S
C96    H207    1.114   .     S
C97    H112    1.113   .     S
C97    H114    1.109   .     S
C97    H113    1.112   .     S
C97    O601    1.412   1_545 S
C98    H115    1.109   .     S
C98    H116    1.113   .     S
C98    H117    1.113   .     S
C98    O140    1.409   .     S
C99    H118    1.111   .     S
C99    H119    1.114   .     S
C99    H736    1.109   .     S
C99    O834    1.412   .     S
C100   F109    1.357   .     S
C100   C782    1.396   1_554 S
C100   C795    1.422   1_554 S
C101   O142    1.410   .     S
C101   H121    1.113   .     S
C101   H124    1.109   .     S
C101   H123    1.112   .     S
C102   C103    1.422   .     A
C102   C793    1.422   .     S
C102   C797    1.426   .     S
C103   C107    1.415   .     A
C104   C795    1.426   1_554 S
C104   C798    1.421   1_554 S
C105   C106    1.395   .     A
C105   C785    1.412   .     S
C105   C797    1.421   .     S
C106   H122    1.084   .     S
C106   C107    1.385   .     A
C107   F110    1.358   .     S
H111   C547    1.088   1_545 S
H120   C869    1.109   1_554 S
O132   Zn152   1.958   .     S
O132   Zn151   1.957   .     S
O132   Zn153   1.940   .     S
O132   Zn154   1.925   .     S
O133   Zn152   1.929   .     S
O134   Zn154   1.942   .     S
O135   Zn153   1.938   .     S
O136   Zn151   1.925   .     S
O138   C161    1.399   .     S
O139   C328    1.412   .     S
O139   C317    1.401   .     S
O140   C785    1.383   .     S
O141   C782    1.392   1_554 S
O141   C792    1.412   1_554 S
O143   Zn151   1.938   .     S
O144   Zn154   1.939   .     S
O145   Zn152   1.925   .     S
O146   Zn153   1.938   .     S
O147   Zn154   1.941   .     S
O148   Zn151   1.929   .     S
O149   Zn152   1.938   .     S
O150   Zn153   1.932   .     S
C155   O222    1.273   .     A
C155   C161    1.446   .     S
C155   O224    1.265   .     A
C156   C181    1.408   .     A
C156   C170    1.394   .     A
C156   F185    1.360   .     S
C157   O214    1.386   .     S
C157   C169    1.405   .     A
C157   C170    1.401   .     A
C158   O223    1.286   .     A
C158   C160    1.463   .     S
C158   O225    1.276   .     A
C159   C171    1.401   .     A
C159   C168    1.472   .     S
C159   C180    1.417   .     A
C160   C7      1.353   1_655 S
C160   O65     1.388   1_655 S
C162   C165    1.453   .     S
C162   C394    1.344   .     S
C162   H419    1.088   .     S
C163   C164    1.444   .     S
C163   C624    1.344   1_545 S
C163   O678    1.401   1_545 S
C164   O220    1.277   .     A
C164   O226    1.279   .     A
C165   O221    1.264   .     A
C165   O227    1.275   .     A
C166   C171    1.402   .     A
C166   C870    1.396   .     S
C166   O911    1.392   .     S
C167   O210    1.281   .     A
C167   O212    1.276   .     A
C167   C170    1.450   .     S
C168   O213    1.281   .     A
C168   O211    1.280   .     A
C169   C875    1.412   1_554 S
C169   O910    1.383   1_554 S
C171   H202    1.082   .     S
C172   H205    1.108   .     S
C172   O214    1.411   .     S
C172   H204    1.115   .     S
C172   H203    1.109   .     S
C173   H208    1.109   .     S
C173   O215    1.412   .     S
C173   H52     1.112   1_655 S
C173   H53     1.114   1_655 S
C174   H189    1.113   .     S
C174   H191    1.109   .     S
C174   H190    1.112   .     S
C174   O678    1.412   1_545 S
C175   H192    1.109   .     S
C175   H193    1.113   .     S
C175   H194    1.113   .     S
C175   O217    1.409   .     S
C176   H195    1.111   .     S
C176   H196    1.114   .     S
C176   H813    1.109   .     S
C176   O911    1.412   .     S
C177   F186    1.357   .     S
C177   C859    1.396   1_554 S
C177   C872    1.422   1_554 S
C178   O219    1.410   .     S
C178   H198    1.113   .     S
C178   H201    1.109   .     S
C178   H200    1.112   .     S
C179   C180    1.422   .     A
C179   C870    1.422   .     S
C179   C874    1.426   .     S
C180   C184    1.415   .     A
C181   C872    1.426   1_554 S
C181   C875    1.421   1_554 S
C182   C183    1.395   .     A
C182   C862    1.412   .     S
C182   C874    1.421   .     S
C183   H199    1.084   .     S
C183   C184    1.385   .     A
C184   F187    1.358   .     S
H188   C624    1.088   1_545 S
H197   C715    1.109   1_654 S
O209   Zn229   1.958   .     S
O209   Zn228   1.957   .     S
O209   Zn230   1.940   .     S
O209   Zn231   1.925   .     S
O210   Zn229   1.929   .     S
O211   Zn231   1.942   .     S
O212   Zn230   1.938   .     S
O213   Zn228   1.925   .     S
O215   C7      1.399   1_655 S
O216   C405    1.412   .     S
O216   C394    1.401   .     S
O217   C862    1.383   .     S
O218   C859    1.392   1_554 S
O218   C869    1.412   1_554 S
O220   Zn228   1.938   .     S
O221   Zn231   1.939   .     S
O222   Zn229   1.925   .     S
O223   Zn230   1.938   .     S
O224   Zn231   1.941   .     S
O225   Zn228   1.929   .     S
O226   Zn229   1.938   .     S
O227   Zn230   1.932   .     S
C232   O299    1.273   .     A
C232   C238    1.446   .     S
C232   O301    1.265   .     A
C233   C258    1.408   .     A
C233   C247    1.394   .     A
C233   F262    1.360   .     S
C234   O291    1.386   .     S
C234   C246    1.405   .     A
C234   C247    1.401   .     A
C235   O300    1.286   .     A
C235   C237    1.463   .     S
C235   O302    1.276   .     A
C236   C248    1.401   .     A
C236   C245    1.472   .     S
C236   C257    1.417   .     A
C237   C315    1.353   .     S
C237   O373    1.388   .     S
C238   C391    1.353   1_455 S
C238   O446    1.399   1_455 S
C239   C242    1.453   .     S
C239   C471    1.344   .     S
C239   H496    1.088   .     S
C240   C241    1.444   .     S
C241   O297    1.277   .     A
C241   O303    1.279   .     A
C242   O298    1.264   .     A
C242   O304    1.275   .     A
C243   C248    1.402   .     A
C243   C947    1.396   .     S
C243   O988    1.392   .     S
C244   O287    1.281   .     A
C244   O289    1.276   .     A
C244   C247    1.450   .     S
C245   O290    1.281   .     A
C245   O288    1.280   .     A
C246   C952    1.412   1_554 S
C246   O987    1.383   1_554 S
C248   H279    1.082   .     S
C249   H282    1.108   .     S
C249   O291    1.411   .     S
C249   H281    1.115   .     S
C249   H280    1.109   .     S
C250   H285    1.109   .     S
C250   O292    1.412   .     S
C250   H360    1.112   .     S
C250   H361    1.114   .     S
C251   H266    1.113   .     S
C251   H268    1.109   .     S
C251   H267    1.112   .     S
C252   H269    1.109   .     S
C252   H270    1.113   .     S
C252   H271    1.113   .     S
C252   O294    1.409   .     S
C253   H272    1.111   .     S
C253   H273    1.114   .     S
C253   H1121   1.109   1_455 S
C253   O988    1.412   .     S
C254   F263    1.357   .     S
C254   C936    1.396   1_554 S
C254   C949    1.422   1_554 S
C255   O296    1.410   .     S
C255   H275    1.113   .     S
C255   H278    1.109   .     S
C255   H277    1.112   .     S
C256   C257    1.422   .     A
C256   C947    1.422   .     S
C256   C951    1.426   .     S
C257   C261    1.415   .     A
C258   C949    1.426   1_554 S
C258   C952    1.421   1_554 S
C259   C260    1.395   .     A
C259   C939    1.412   .     S
C259   C951    1.421   .     S
C260   H276    1.084   .     S
C260   C261    1.385   .     A
C261   F264    1.358   .     S
H274   C1023   1.109   1_554 S
H283   C404    1.112   1_455 S
H284   C404    1.114   1_455 S
O286   Zn306   1.958   .     S
O286   Zn305   1.957   .     S
O286   Zn307   1.940   .     S
O286   Zn308   1.925   .     S
O287   Zn306   1.929   .     S
O288   Zn308   1.942   .     S
O289   Zn307   1.938   .     S
O290   Zn305   1.925   .     S
O292   C315    1.399   .     S
O293   C482    1.412   .     S
O293   C471    1.401   .     S
O294   C939    1.383   .     S
O295   C936    1.392   1_554 S
O295   C946    1.412   1_554 S
O296   C391    1.388   1_455 S
O297   Zn305   1.938   .     S
O298   Zn308   1.939   .     S
O299   Zn306   1.925   .     S
O300   Zn307   1.938   .     S
O301   Zn308   1.941   .     S
O302   Zn305   1.929   .     S
O303   Zn306   1.938   .     S
O304   Zn307   1.932   .     S
C309   O376    1.273   .     A
C309   C315    1.446   .     S
C309   O378    1.265   .     A
C310   C335    1.408   .     A
C310   C324    1.394   .     A
C310   F339    1.360   .     S
C311   O368    1.386   .     S
C311   C323    1.405   .     A
C311   C324    1.401   .     A
C312   O377    1.286   .     A
C312   C314    1.463   .     S
C312   O379    1.276   .     A
C313   C325    1.401   .     A
C313   C322    1.472   .     S
C313   C334    1.417   .     A
C314   C392    1.353   .     S
C314   O450    1.388   .     S
C316   C319    1.453   .     S
C316   C548    1.344   .     S
C316   H573    1.088   .     S
C317   C318    1.444   .     S
C318   O374    1.277   .     A
C318   O380    1.279   .     A
C319   O375    1.264   .     A
C319   O381    1.275   .     A
C320   C325    1.402   .     A
C320   C1024   1.396   .     S
C320   O1065   1.392   .     S
C321   O364    1.281   .     A
C321   O366    1.276   .     A
C321   C324    1.450   .     S
C322   O367    1.281   .     A
C322   O365    1.280   .     A
C323   C1029   1.412   1_554 S
C323   O1064   1.383   1_554 S
C325   H356    1.082   .     S
C326   H359    1.108   .     S
C326   O368    1.411   .     S
C326   H358    1.115   .     S
C326   H357    1.109   .     S
C327   H362    1.109   .     S
C327   O369    1.412   .     S
C327   H437    1.112   .     S
C327   H438    1.114   .     S
C328   H343    1.113   .     S
C328   H345    1.109   .     S
C328   H344    1.112   .     S
C329   H346    1.109   .     S
C329   H347    1.113   .     S
C329   H348    1.113   .     S
C329   O371    1.409   .     S
C330   H349    1.111   .     S
C330   H350    1.114   .     S
C330   H967    1.109   .     S
C330   O1065   1.412   .     S
C331   F340    1.357   .     S
C331   C1013   1.396   1_554 S
C331   C1026   1.422   1_554 S
C332   O373    1.410   .     S
C332   H352    1.113   .     S
C332   H355    1.109   .     S
C332   H354    1.112   .     S
C333   C334    1.422   .     A
C333   C1024   1.422   .     S
C333   C1028   1.426   .     S
C334   C338    1.415   .     A
C335   C1026   1.426   1_554 S
C335   C1029   1.421   1_554 S
C336   C337    1.395   .     A
C336   C1016   1.412   .     S
C336   C1028   1.421   .     S
C337   H353    1.084   .     S
C337   C338    1.385   .     A
C338   F341    1.358   .     S
H351   C1100   1.109   1_554 S
O363   Zn383   1.958   .     S
O363   Zn382   1.957   .     S
O363   Zn384   1.940   .     S
O363   Zn385   1.925   .     S
O364   Zn383   1.929   .     S
O365   Zn385   1.942   .     S
O366   Zn384   1.938   .     S
O367   Zn382   1.925   .     S
O369   C392    1.399   .     S
O370   C559    1.412   .     S
O370   C548    1.401   .     S
O371   C1016   1.383   .     S
O372   C1013   1.392   1_554 S
O372   C1023   1.412   1_554 S
O374   Zn382   1.938   .     S
O375   Zn385   1.939   .     S
O376   Zn383   1.925   .     S
O377   Zn384   1.938   .     S
O378   Zn385   1.941   .     S
O379   Zn382   1.929   .     S
O380   Zn383   1.938   .     S
O381   Zn384   1.932   .     S
C386   O453    1.273   .     A
C386   C392    1.446   .     S
C386   O455    1.265   .     A
C387   C412    1.408   .     A
C387   C401    1.394   .     A
C387   F416    1.360   .     S
C388   O445    1.386   .     S
C388   C400    1.405   .     A
C388   C401    1.401   .     A
C389   O454    1.286   .     A
C389   C391    1.463   .     S
C389   O456    1.276   .     A
C390   C402    1.401   .     A
C390   C399    1.472   .     S
C390   C411    1.417   .     A
C391   C238    1.353   1_655 S
C391   O296    1.388   1_655 S
C393   C396    1.453   .     S
C393   C625    1.344   .     S
C393   H650    1.088   .     S
C394   C395    1.444   .     S
C395   O451    1.277   .     A
C395   O457    1.279   .     A
C396   O452    1.264   .     A
C396   O458    1.275   .     A
C397   C402    1.402   .     A
C397   C1101   1.396   .     S
C397   O1142   1.392   .     S
C398   O441    1.281   .     A
C398   O443    1.276   .     A
C398   C401    1.450   .     S
C399   O444    1.281   .     A
C399   O442    1.280   .     A
C400   C1106   1.412   1_554 S
C400   O1141   1.383   1_554 S
C402   H433    1.082   .     S
C403   H436    1.108   .     S
C403   O445    1.411   .     S
C403   H435    1.115   .     S
C403   H434    1.109   .     S
C404   H439    1.109   .     S
C404   O446    1.412   .     S
C404   H283    1.112   1_655 S
C404   H284    1.114   1_655 S
C405   H420    1.113   .     S
C405   H422    1.109   .     S
C405   H421    1.112   .     S
C406   H423    1.109   .     S
C406   H424    1.113   .     S
C406   H425    1.113   .     S
C406   O448    1.409   .     S
C407   H426    1.111   .     S
C407   H427    1.114   .     S
C407   H1044   1.109   .     S
C407   O1142   1.412   .     S
C408   F417    1.357   .     S
C408   C1090   1.396   1_554 S
C408   C1103   1.422   1_554 S
C409   O450    1.410   .     S
C409   H429    1.113   .     S
C409   H432    1.109   .     S
C409   H431    1.112   .     S
C410   C411    1.422   .     A
C410   C1101   1.422   .     S
C410   C1105   1.426   .     S
C411   C415    1.415   .     A
C412   C1103   1.426   1_554 S
C412   C1106   1.421   1_554 S
C413   C414    1.395   .     A
C413   C1093   1.412   .     S
C413   C1105   1.421   .     S
C414   H430    1.084   .     S
C414   C415    1.385   .     A
C415   F418    1.358   .     S
H428   C946    1.109   1_654 S
O440   Zn460   1.958   .     S
O440   Zn459   1.957   .     S
O440   Zn461   1.940   .     S
O440   Zn462   1.925   .     S
O441   Zn460   1.929   .     S
O442   Zn462   1.942   .     S
O443   Zn461   1.938   .     S
O444   Zn459   1.925   .     S
O446   C238    1.399   1_655 S
O447   C636    1.412   .     S
O447   C625    1.401   .     S
O448   C1093   1.383   .     S
O449   C1090   1.392   1_554 S
O449   C1100   1.412   1_554 S
O451   Zn459   1.938   .     S
O452   Zn462   1.939   .     S
O453   Zn460   1.925   .     S
O454   Zn461   1.938   .     S
O455   Zn462   1.941   .     S
O456   Zn459   1.929   .     S
O457   Zn460   1.938   .     S
O458   Zn461   1.932   .     S
C463   O530    1.273   .     A
C463   C469    1.446   .     S
C463   O532    1.265   .     A
C464   C489    1.408   .     A
C464   C478    1.394   .     A
C464   F493    1.360   .     S
C465   O522    1.386   .     S
C465   C477    1.405   .     A
C465   C478    1.401   .     A
C466   O531    1.286   .     A
C466   C468    1.463   .     S
C466   O533    1.276   .     A
C467   C479    1.401   .     A
C467   C476    1.472   .     S
C467   C488    1.417   .     A
C468   C546    1.353   .     S
C468   O604    1.388   .     S
C469   C622    1.353   1_455 S
C469   O677    1.399   1_455 S
C470   C473    1.453   .     S
C470   C9      1.344   1_565 S
C470   H34     1.088   1_565 S
C471   C472    1.444   .     S
C472   O528    1.277   .     A
C472   O534    1.279   .     A
C473   O529    1.264   .     A
C473   O535    1.275   .     A
C474   C479    1.402   .     A
C474   C1178   1.396   .     S
C474   O1219   1.392   .     S
C475   O518    1.281   .     A
C475   O520    1.276   .     A
C475   C478    1.450   .     S
C476   O521    1.281   .     A
C476   O519    1.280   .     A
C477   C1183   1.412   1_554 S
C477   O1218   1.383   1_554 S
C479   H510    1.082   .     S
C480   H513    1.108   .     S
C480   O522    1.411   .     S
C480   H512    1.115   .     S
C480   H511    1.109   .     S
C481   H516    1.109   .     S
C481   O523    1.412   .     S
C481   H591    1.112   .     S
C481   H592    1.114   .     S
C482   H497    1.113   .     S
C482   H499    1.109   .     S
C482   H498    1.112   .     S
C483   H500    1.109   .     S
C483   H501    1.113   .     S
C483   H502    1.113   .     S
C483   O525    1.409   .     S
C484   H503    1.111   .     S
C484   H504    1.114   .     S
C484   H1352   1.109   1_455 S
C484   O1219   1.412   .     S
C485   F494    1.357   .     S
C485   C1167   1.396   1_554 S
C485   C1180   1.422   1_554 S
C486   O527    1.410   .     S
C486   H506    1.113   .     S
C486   H509    1.109   .     S
C486   H508    1.112   .     S
C487   C488    1.422   .     A
C487   C1178   1.422   .     S
C487   C1182   1.426   .     S
C488   C492    1.415   .     A
C489   C1180   1.426   1_554 S
C489   C1183   1.421   1_554 S
C490   C491    1.395   .     A
C490   C1170   1.412   .     S
C490   C1182   1.421   .     S
C491   H507    1.084   .     S
C491   C492    1.385   .     A
C492   F495    1.358   .     S
H505   C1254   1.109   1_554 S
H514   C635    1.112   1_455 S
H515   C635    1.114   1_455 S
O517   Zn537   1.958   .     S
O517   Zn536   1.957   .     S
O517   Zn538   1.940   .     S
O517   Zn539   1.925   .     S
O518   Zn537   1.929   .     S
O519   Zn539   1.942   .     S
O520   Zn538   1.938   .     S
O521   Zn536   1.925   .     S
O523   C546    1.399   .     S
O524   C20     1.412   1_565 S
O524   C9      1.401   1_565 S
O525   C1170   1.383   .     S
O526   C1167   1.392   1_554 S
O526   C1177   1.412   1_554 S
O527   C622    1.388   1_455 S
O528   Zn536   1.938   .     S
O529   Zn539   1.939   .     S
O530   Zn537   1.925   .     S
O531   Zn538   1.938   .     S
O532   Zn539   1.941   .     S
O533   Zn536   1.929   .     S
O534   Zn537   1.938   .     S
O535   Zn538   1.932   .     S
C540   O607    1.273   .     A
C540   C546    1.446   .     S
C540   O609    1.265   .     A
C541   C566    1.408   .     A
C541   C555    1.394   .     A
C541   F570    1.360   .     S
C542   O599    1.386   .     S
C542   C554    1.405   .     A
C542   C555    1.401   .     A
C543   O608    1.286   .     A
C543   C545    1.463   .     S
C543   O610    1.276   .     A
C544   C556    1.401   .     A
C544   C553    1.472   .     S
C544   C565    1.417   .     A
C545   C623    1.353   .     S
C545   O681    1.388   .     S
C547   C550    1.453   .     S
C547   C86     1.344   1_565 S
C547   H111    1.088   1_565 S
C548   C549    1.444   .     S
C549   O605    1.277   .     A
C549   O611    1.279   .     A
C550   O606    1.264   .     A
C550   O612    1.275   .     A
C551   C556    1.402   .     A
C551   C1255   1.396   .     S
C551   O1296   1.392   .     S
C552   O595    1.281   .     A
C552   O597    1.276   .     A
C552   C555    1.450   .     S
C553   O598    1.281   .     A
C553   O596    1.280   .     A
C554   C1260   1.412   1_554 S
C554   O1295   1.383   1_554 S
C556   H587    1.082   .     S
C557   H590    1.108   .     S
C557   O599    1.411   .     S
C557   H589    1.115   .     S
C557   H588    1.109   .     S
C558   H593    1.109   .     S
C558   O600    1.412   .     S
C558   H668    1.112   .     S
C558   H669    1.114   .     S
C559   H574    1.113   .     S
C559   H576    1.109   .     S
C559   H575    1.112   .     S
C560   H577    1.109   .     S
C560   H578    1.113   .     S
C560   H579    1.113   .     S
C560   O602    1.409   .     S
C561   H580    1.111   .     S
C561   H581    1.114   .     S
C561   H1198   1.109   .     S
C561   O1296   1.412   .     S
C562   F571    1.357   .     S
C562   C1244   1.396   1_554 S
C562   C1257   1.422   1_554 S
C563   O604    1.410   .     S
C563   H583    1.113   .     S
C563   H586    1.109   .     S
C563   H585    1.112   .     S
C564   C565    1.422   .     A
C564   C1255   1.422   .     S
C564   C1259   1.426   .     S
C565   C569    1.415   .     A
C566   C1257   1.426   1_554 S
C566   C1260   1.421   1_554 S
C567   C568    1.395   .     A
C567   C1247   1.412   .     S
C567   C1259   1.421   .     S
C568   H584    1.084   .     S
C568   C569    1.385   .     A
C569   F572    1.358   .     S
H582   C1331   1.109   1_554 S
O594   Zn614   1.958   .     S
O594   Zn613   1.957   .     S
O594   Zn615   1.940   .     S
O594   Zn616   1.925   .     S
O595   Zn614   1.929   .     S
O596   Zn616   1.942   .     S
O597   Zn615   1.938   .     S
O598   Zn613   1.925   .     S
O600   C623    1.399   .     S
O601   C97     1.412   1_565 S
O601   C86     1.401   1_565 S
O602   C1247   1.383   .     S
O603   C1244   1.392   1_554 S
O603   C1254   1.412   1_554 S
O605   Zn613   1.938   .     S
O606   Zn616   1.939   .     S
O607   Zn614   1.925   .     S
O608   Zn615   1.938   .     S
O609   Zn616   1.941   .     S
O610   Zn613   1.929   .     S
O611   Zn614   1.938   .     S
O612   Zn615   1.932   .     S
C617   O684    1.273   .     A
C617   C623    1.446   .     S
C617   O686    1.265   .     A
C618   C643    1.408   .     A
C618   C632    1.394   .     A
C618   F647    1.360   .     S
C619   O676    1.386   .     S
C619   C631    1.405   .     A
C619   C632    1.401   .     A
C620   O685    1.286   .     A
C620   C622    1.463   .     S
C620   O687    1.276   .     A
C621   C633    1.401   .     A
C621   C630    1.472   .     S
C621   C642    1.417   .     A
C622   C469    1.353   1_655 S
C622   O527    1.388   1_655 S
C624   C627    1.453   .     S
C624   C163    1.344   1_565 S
C624   H188    1.088   1_565 S
C625   C626    1.444   .     S
C626   O682    1.277   .     A
C626   O688    1.279   .     A
C627   O683    1.264   .     A
C627   O689    1.275   .     A
C628   C633    1.402   .     A
C628   C1332   1.396   .     S
C628   O1373   1.392   .     S
C629   O672    1.281   .     A
C629   O674    1.276   .     A
C629   C632    1.450   .     S
C630   O675    1.281   .     A
C630   O673    1.280   .     A
C631   C1337   1.412   1_554 S
C631   O1372   1.383   1_554 S
C633   H664    1.082   .     S
C634   H667    1.108   .     S
C634   O676    1.411   .     S
C634   H666    1.115   .     S
C634   H665    1.109   .     S
C635   H670    1.109   .     S
C635   O677    1.412   .     S
C635   H514    1.112   1_655 S
C635   H515    1.114   1_655 S
C636   H651    1.113   .     S
C636   H653    1.109   .     S
C636   H652    1.112   .     S
C637   H654    1.109   .     S
C637   H655    1.113   .     S
C637   H656    1.113   .     S
C637   O679    1.409   .     S
C638   H657    1.111   .     S
C638   H658    1.114   .     S
C638   H1275   1.109   .     S
C638   O1373   1.412   .     S
C639   F648    1.357   .     S
C639   C1321   1.396   1_554 S
C639   C1334   1.422   1_554 S
C640   O681    1.410   .     S
C640   H660    1.113   .     S
C640   H663    1.109   .     S
C640   H662    1.112   .     S
C641   C642    1.422   .     A
C641   C1332   1.422   .     S
C641   C1336   1.426   .     S
C642   C646    1.415   .     A
C643   C1334   1.426   1_554 S
C643   C1337   1.421   1_554 S
C644   C645    1.395   .     A
C644   C1324   1.412   .     S
C644   C1336   1.421   .     S
C645   H661    1.084   .     S
C645   C646    1.385   .     A
C646   F649    1.358   .     S
H659   C1177   1.109   1_654 S
O671   Zn691   1.958   .     S
O671   Zn690   1.957   .     S
O671   Zn692   1.940   .     S
O671   Zn693   1.925   .     S
O672   Zn691   1.929   .     S
O673   Zn693   1.942   .     S
O674   Zn692   1.938   .     S
O675   Zn690   1.925   .     S
O677   C469    1.399   1_655 S
O678   C174    1.412   1_565 S
O678   C163    1.401   1_565 S
O679   C1324   1.383   .     S
O680   C1321   1.392   1_554 S
O680   C1331   1.412   1_554 S
O682   Zn690   1.938   .     S
O683   Zn693   1.939   .     S
O684   Zn691   1.925   .     S
O685   Zn692   1.938   .     S
O686   Zn693   1.941   .     S
O687   Zn690   1.929   .     S
O688   Zn691   1.938   .     S
O689   Zn692   1.932   .     S
C694   O761    1.273   .     A
C694   C700    1.446   .     S
C694   O763    1.265   .     A
C695   C720    1.408   .     A
C695   C709    1.394   .     A
C695   F724    1.360   .     S
C696   O753    1.386   .     S
C696   C708    1.405   .     A
C696   C709    1.401   .     A
C697   O762    1.286   .     A
C697   C699    1.463   .     S
C697   O764    1.276   .     A
C698   C710    1.401   .     A
C698   C707    1.472   .     S
C698   C719    1.417   .     A
C699   C777    1.353   .     S
C699   O835    1.388   .     S
C700   C853    1.353   1_455 S
C700   O908    1.399   1_455 S
C701   C704    1.453   .     S
C701   C933    1.344   .     S
C701   H958    1.088   .     S
C702   C703    1.444   .     S
C702   C1163   1.344   1_545 S
C702   O1217   1.401   1_545 S
C703   O759    1.277   .     A
C703   O765    1.279   .     A
C704   O760    1.264   .     A
C704   O766    1.275   .     A
C705   C710    1.402   .     A
C705   C23     1.396   1_556 S
C705   O64     1.392   1_556 S
C706   O749    1.281   .     A
C706   O751    1.276   .     A
C706   C709    1.450   .     S
C707   O752    1.281   .     A
C707   O750    1.280   .     A
C710   H741    1.082   .     S
C711   H744    1.108   .     S
C711   O753    1.411   .     S
C711   H743    1.115   .     S
C711   H742    1.109   .     S
C712   H747    1.109   .     S
C712   O754    1.412   .     S
C712   H822    1.112   .     S
C712   H823    1.114   .     S
C713   H728    1.113   .     S
C713   H730    1.109   .     S
C713   H729    1.112   .     S
C713   O1217   1.412   1_545 S
C714   H731    1.109   .     S
C714   H732    1.113   .     S
C714   H733    1.113   .     S
C714   O756    1.409   .     S
C715   H734    1.111   .     S
C715   H735    1.114   .     S
C715   H197    1.109   1_456 S
C715   O64     1.412   1_556 S
C716   F725    1.357   .     S
C717   O758    1.410   .     S
C717   H737    1.113   .     S
C717   H740    1.109   .     S
C717   H739    1.112   .     S
C718   C719    1.422   .     A
C718   C23     1.422   1_556 S
C718   C27     1.426   1_556 S
C719   C723    1.415   .     A
C721   C722    1.395   .     A
C721   C15     1.412   1_556 S
C721   C27     1.421   1_556 S
C722   H738    1.084   .     S
C722   C723    1.385   .     A
C723   F726    1.358   .     S
H727   C1163   1.088   1_545 S
H745   C866    1.112   1_455 S
H746   C866    1.114   1_455 S
O748   Zn768   1.958   .     S
O748   Zn767   1.957   .     S
O748   Zn769   1.940   .     S
O748   Zn770   1.925   .     S
O749   Zn768   1.929   .     S
O750   Zn770   1.942   .     S
O751   Zn769   1.938   .     S
O752   Zn767   1.925   .     S
O754   C777    1.399   .     S
O755   C944    1.412   .     S
O755   C933    1.401   .     S
O756   C15     1.383   1_556 S
O758   C853    1.388   1_455 S
O759   Zn767   1.938   .     S
O760   Zn770   1.939   .     S
O761   Zn768   1.925   .     S
O762   Zn769   1.938   .     S
O763   Zn770   1.941   .     S
O764   Zn767   1.929   .     S
O765   Zn768   1.938   .     S
O766   Zn769   1.932   .     S
C771   O838    1.273   .     A
C771   C777    1.446   .     S
C771   O840    1.265   .     A
C772   C797    1.408   .     A
C772   C786    1.394   .     A
C772   F801    1.360   .     S
C773   O830    1.386   .     S
C773   C785    1.405   .     A
C773   C786    1.401   .     A
C774   O839    1.286   .     A
C774   C776    1.463   .     S
C774   O841    1.276   .     A
C775   C787    1.401   .     A
C775   C784    1.472   .     S
C775   C796    1.417   .     A
C776   C854    1.353   .     S
C776   O912    1.388   .     S
C778   C781    1.453   .     S
C778   C1010   1.344   .     S
C778   H1035   1.088   .     S
C779   C780    1.444   .     S
C779   C1240   1.344   1_545 S
C779   O1294   1.401   1_545 S
C780   O836    1.277   .     A
C780   O842    1.279   .     A
C781   O837    1.264   .     A
C781   O843    1.275   .     A
C782   C787    1.402   .     A
C782   C100    1.396   1_556 S
C782   O141    1.392   1_556 S
C783   O826    1.281   .     A
C783   O828    1.276   .     A
C783   C786    1.450   .     S
C784   O829    1.281   .     A
C784   O827    1.280   .     A
C787   H818    1.082   .     S
C788   H821    1.108   .     S
C788   O830    1.411   .     S
C788   H820    1.115   .     S
C788   H819    1.109   .     S
C789   H824    1.109   .     S
C789   O831    1.412   .     S
C789   H899    1.112   .     S
C789   H900    1.114   .     S
C790   H805    1.113   .     S
C790   H807    1.109   .     S
C790   H806    1.112   .     S
C790   O1294   1.412   1_545 S
C791   H808    1.109   .     S
C791   H809    1.113   .     S
C791   H810    1.113   .     S
C791   O833    1.409   .     S
C792   H811    1.111   .     S
C792   H812    1.114   .     S
C792   H43     1.109   1_556 S
C792   O141    1.412   1_556 S
C793   F802    1.357   .     S
C794   O835    1.410   .     S
C794   H814    1.113   .     S
C794   H817    1.109   .     S
C794   H816    1.112   .     S
C795   C796    1.422   .     A
C795   C100    1.422   1_556 S
C795   C104    1.426   1_556 S
C796   C800    1.415   .     A
C798   C799    1.395   .     A
C798   C92     1.412   1_556 S
C798   C104    1.421   1_556 S
C799   H815    1.084   .     S
C799   C800    1.385   .     A
C800   F803    1.358   .     S
H804   C1240   1.088   1_545 S
O825   Zn845   1.958   .     S
O825   Zn844   1.957   .     S
O825   Zn846   1.940   .     S
O825   Zn847   1.925   .     S
O826   Zn845   1.929   .     S
O827   Zn847   1.942   .     S
O828   Zn846   1.938   .     S
O829   Zn844   1.925   .     S
O831   C854    1.399   .     S
O832   C1021   1.412   .     S
O832   C1010   1.401   .     S
O833   C92     1.383   1_556 S
O836   Zn844   1.938   .     S
O837   Zn847   1.939   .     S
O838   Zn845   1.925   .     S
O839   Zn846   1.938   .     S
O840   Zn847   1.941   .     S
O841   Zn844   1.929   .     S
O842   Zn845   1.938   .     S
O843   Zn846   1.932   .     S
C848   O915    1.273   .     A
C848   C854    1.446   .     S
C848   O917    1.265   .     A
C849   C874    1.408   .     A
C849   C863    1.394   .     A
C849   F878    1.360   .     S
C850   O907    1.386   .     S
C850   C862    1.405   .     A
C850   C863    1.401   .     A
C851   O916    1.286   .     A
C851   C853    1.463   .     S
C851   O918    1.276   .     A
C852   C864    1.401   .     A
C852   C861    1.472   .     S
C852   C873    1.417   .     A
C853   C700    1.353   1_655 S
C853   O758    1.388   1_655 S
C855   C858    1.453   .     S
C855   C1087   1.344   .     S
C855   H1112   1.088   .     S
C856   C857    1.444   .     S
C856   C1317   1.344   1_545 S
C856   O1371   1.401   1_545 S
C857   O913    1.277   .     A
C857   O919    1.279   .     A
C858   O914    1.264   .     A
C858   O920    1.275   .     A
C859   C864    1.402   .     A
C859   C177    1.396   1_556 S
C859   O218    1.392   1_556 S
C860   O903    1.281   .     A
C860   O905    1.276   .     A
C860   C863    1.450   .     S
C861   O906    1.281   .     A
C861   O904    1.280   .     A
C864   H895    1.082   .     S
C865   H898    1.108   .     S
C865   O907    1.411   .     S
C865   H897    1.115   .     S
C865   H896    1.109   .     S
C866   H901    1.109   .     S
C866   O908    1.412   .     S
C866   H745    1.112   1_655 S
C866   H746    1.114   1_655 S
C867   H882    1.113   .     S
C867   H884    1.109   .     S
C867   H883    1.112   .     S
C867   O1371   1.412   1_545 S
C868   H885    1.109   .     S
C868   H886    1.113   .     S
C868   H887    1.113   .     S
C868   O910    1.409   .     S
C869   H888    1.111   .     S
C869   H889    1.114   .     S
C869   H120    1.109   1_556 S
C869   O218    1.412   1_556 S
C870   F879    1.357   .     S
C871   O912    1.410   .     S
C871   H891    1.113   .     S
C871   H894    1.109   .     S
C871   H893    1.112   .     S
C872   C873    1.422   .     A
C872   C177    1.422   1_556 S
C872   C181    1.426   1_556 S
C873   C877    1.415   .     A
C875   C876    1.395   .     A
C875   C169    1.412   1_556 S
C875   C181    1.421   1_556 S
C876   H892    1.084   .     S
C876   C877    1.385   .     A
C877   F880    1.358   .     S
H881   C1317   1.088   1_545 S
H890   C22     1.109   1_655 S
O902   Zn922   1.958   .     S
O902   Zn921   1.957   .     S
O902   Zn923   1.940   .     S
O902   Zn924   1.925   .     S
O903   Zn922   1.929   .     S
O904   Zn924   1.942   .     S
O905   Zn923   1.938   .     S
O906   Zn921   1.925   .     S
O908   C700    1.399   1_655 S
O909   C1098   1.412   .     S
O909   C1087   1.401   .     S
O910   C169    1.383   1_556 S
O913   Zn921   1.938   .     S
O914   Zn924   1.939   .     S
O915   Zn922   1.925   .     S
O916   Zn923   1.938   .     S
O917   Zn924   1.941   .     S
O918   Zn921   1.929   .     S
O919   Zn922   1.938   .     S
O920   Zn923   1.932   .     S
C925   O992    1.273   .     A
C925   C931    1.446   .     S
C925   O994    1.265   .     A
C926   C951    1.408   .     A
C926   C940    1.394   .     A
C926   F955    1.360   .     S
C927   O984    1.386   .     S
C927   C939    1.405   .     A
C927   C940    1.401   .     A
C928   O993    1.286   .     A
C928   C930    1.463   .     S
C928   O995    1.276   .     A
C929   C941    1.401   .     A
C929   C938    1.472   .     S
C929   C950    1.417   .     A
C930   C1008   1.353   .     S
C930   O1066   1.388   .     S
C931   C1084   1.353   1_455 S
C931   O1139   1.399   1_455 S
C932   C935    1.453   .     S
C932   C1164   1.344   .     S
C932   H1189   1.088   .     S
C933   C934    1.444   .     S
C934   O990    1.277   .     A
C934   O996    1.279   .     A
C935   O991    1.264   .     A
C935   O997    1.275   .     A
C936   C941    1.402   .     A
C936   C254    1.396   1_556 S
C936   O295    1.392   1_556 S
C937   O980    1.281   .     A
C937   O982    1.276   .     A
C937   C940    1.450   .     S
C938   O983    1.281   .     A
C938   O981    1.280   .     A
C941   H972    1.082   .     S
C942   H975    1.108   .     S
C942   O984    1.411   .     S
C942   H974    1.115   .     S
C942   H973    1.109   .     S
C943   H978    1.109   .     S
C943   O985    1.412   .     S
C943   H1053   1.112   .     S
C943   H1054   1.114   .     S
C944   H959    1.113   .     S
C944   H961    1.109   .     S
C944   H960    1.112   .     S
C945   H962    1.109   .     S
C945   H963    1.113   .     S
C945   H964    1.113   .     S
C945   O987    1.409   .     S
C946   H965    1.111   .     S
C946   H966    1.114   .     S
C946   H428    1.109   1_456 S
C946   O295    1.412   1_556 S
C947   F956    1.357   .     S
C948   O989    1.410   .     S
C948   H968    1.113   .     S
C948   H971    1.109   .     S
C948   H970    1.112   .     S
C949   C950    1.422   .     A
C949   C254    1.422   1_556 S
C949   C258    1.426   1_556 S
C950   C954    1.415   .     A
C952   C953    1.395   .     A
C952   C246    1.412   1_556 S
C952   C258    1.421   1_556 S
C953   H969    1.084   .     S
C953   C954    1.385   .     A
C954   F957    1.358   .     S
H976   C1097   1.112   1_455 S
H977   C1097   1.114   1_455 S
O979   Zn999   1.958   .     S
O979   Zn998   1.957   .     S
O979   Zn1000  1.940   .     S
O979   Zn1001  1.925   .     S
O980   Zn999   1.929   .     S
O981   Zn1001  1.942   .     S
O982   Zn1000  1.938   .     S
O983   Zn998   1.925   .     S
O985   C1008   1.399   .     S
O986   C1175   1.412   .     S
O986   C1164   1.401   .     S
O987   C246    1.383   1_556 S
O989   C1084   1.388   1_455 S
O990   Zn998   1.938   .     S
O991   Zn1001  1.939   .     S
O992   Zn999   1.925   .     S
O993   Zn1000  1.938   .     S
O994   Zn1001  1.941   .     S
O995   Zn998   1.929   .     S
O996   Zn999   1.938   .     S
O997   Zn1000  1.932   .     S
C1002  O1069   1.273   .     A
C1002  C1008   1.446   .     S
C1002  O1071   1.265   .     A
C1003  C1028   1.408   .     A
C1003  C1017   1.394   .     A
C1003  F1032   1.360   .     S
C1004  O1061   1.386   .     S
C1004  C1016   1.405   .     A
C1004  C1017   1.401   .     A
C1005  O1070   1.286   .     A
C1005  C1007   1.463   .     S
C1005  O1072   1.276   .     A
C1006  C1018   1.401   .     A
C1006  C1015   1.472   .     S
C1006  C1027   1.417   .     A
C1007  C1085   1.353   .     S
C1007  O1143   1.388   .     S
C1009  C1012   1.453   .     S
C1009  C1241   1.344   .     S
C1009  H1266   1.088   .     S
C1010  C1011   1.444   .     S
C1011  O1067   1.277   .     A
C1011  O1073   1.279   .     A
C1012  O1068   1.264   .     A
C1012  O1074   1.275   .     A
C1013  C1018   1.402   .     A
C1013  C331    1.396   1_556 S
C1013  O372    1.392   1_556 S
C1014  O1057   1.281   .     A
C1014  O1059   1.276   .     A
C1014  C1017   1.450   .     S
C1015  O1060   1.281   .     A
C1015  O1058   1.280   .     A
C1018  H1049   1.082   .     S
C1019  H1052   1.108   .     S
C1019  O1061   1.411   .     S
C1019  H1051   1.115   .     S
C1019  H1050   1.109   .     S
C1020  H1055   1.109   .     S
C1020  O1062   1.412   .     S
C1020  H1130   1.112   .     S
C1020  H1131   1.114   .     S
C1021  H1036   1.113   .     S
C1021  H1038   1.109   .     S
C1021  H1037   1.112   .     S
C1022  H1039   1.109   .     S
C1022  H1040   1.113   .     S
C1022  H1041   1.113   .     S
C1022  O1064   1.409   .     S
C1023  H1042   1.111   .     S
C1023  H1043   1.114   .     S
C1023  H274    1.109   1_556 S
C1023  O372    1.412   1_556 S
C1024  F1033   1.357   .     S
C1025  O1066   1.410   .     S
C1025  H1045   1.113   .     S
C1025  H1048   1.109   .     S
C1025  H1047   1.112   .     S
C1026  C1027   1.422   .     A
C1026  C331    1.422   1_556 S
C1026  C335    1.426   1_556 S
C1027  C1031   1.415   .     A
C1029  C1030   1.395   .     A
C1029  C323    1.412   1_556 S
C1029  C335    1.421   1_556 S
C1030  H1046   1.084   .     S
C1030  C1031   1.385   .     A
C1031  F1034   1.358   .     S
O1056  Zn1076  1.958   .     S
O1056  Zn1075  1.957   .     S
O1056  Zn1077  1.940   .     S
O1056  Zn1078  1.925   .     S
O1057  Zn1076  1.929   .     S
O1058  Zn1078  1.942   .     S
O1059  Zn1077  1.938   .     S
O1060  Zn1075  1.925   .     S
O1062  C1085   1.399   .     S
O1063  C1252   1.412   .     S
O1063  C1241   1.401   .     S
O1064  C323    1.383   1_556 S
O1067  Zn1075  1.938   .     S
O1068  Zn1078  1.939   .     S
O1069  Zn1076  1.925   .     S
O1070  Zn1077  1.938   .     S
O1071  Zn1078  1.941   .     S
O1072  Zn1075  1.929   .     S
O1073  Zn1076  1.938   .     S
O1074  Zn1077  1.932   .     S
C1079  O1146   1.273   .     A
C1079  C1085   1.446   .     S
C1079  O1148   1.265   .     A
C1080  C1105   1.408   .     A
C1080  C1094   1.394   .     A
C1080  F1109   1.360   .     S
C1081  O1138   1.386   .     S
C1081  C1093   1.405   .     A
C1081  C1094   1.401   .     A
C1082  O1147   1.286   .     A
C1082  C1084   1.463   .     S
C1082  O1149   1.276   .     A
C1083  C1095   1.401   .     A
C1083  C1092   1.472   .     S
C1083  C1104   1.417   .     A
C1084  C931    1.353   1_655 S
C1084  O989    1.388   1_655 S
C1086  C1089   1.453   .     S
C1086  C1318   1.344   .     S
C1086  H1343   1.088   .     S
C1087  C1088   1.444   .     S
C1088  O1144   1.277   .     A
C1088  O1150   1.279   .     A
C1089  O1145   1.264   .     A
C1089  O1151   1.275   .     A
C1090  C1095   1.402   .     A
C1090  C408    1.396   1_556 S
C1090  O449    1.392   1_556 S
C1091  O1134   1.281   .     A
C1091  O1136   1.276   .     A
C1091  C1094   1.450   .     S
C1092  O1137   1.281   .     A
C1092  O1135   1.280   .     A
C1095  H1126   1.082   .     S
C1096  H1129   1.108   .     S
C1096  O1138   1.411   .     S
C1096  H1128   1.115   .     S
C1096  H1127   1.109   .     S
C1097  H1132   1.109   .     S
C1097  O1139   1.412   .     S
C1097  H976    1.112   1_655 S
C1097  H977    1.114   1_655 S
C1098  H1113   1.113   .     S
C1098  H1115   1.109   .     S
C1098  H1114   1.112   .     S
C1099  H1116   1.109   .     S
C1099  H1117   1.113   .     S
C1099  H1118   1.113   .     S
C1099  O1141   1.409   .     S
C1100  H1119   1.111   .     S
C1100  H1120   1.114   .     S
C1100  H351    1.109   1_556 S
C1100  O449    1.412   1_556 S
C1101  F1110   1.357   .     S
C1102  O1143   1.410   .     S
C1102  H1122   1.113   .     S
C1102  H1125   1.109   .     S
C1102  H1124   1.112   .     S
C1103  C1104   1.422   .     A
C1103  C408    1.422   1_556 S
C1103  C412    1.426   1_556 S
C1104  C1108   1.415   .     A
C1106  C1107   1.395   .     A
C1106  C400    1.412   1_556 S
C1106  C412    1.421   1_556 S
C1107  H1123   1.084   .     S
C1107  C1108   1.385   .     A
C1108  F1111   1.358   .     S
H1121  C253    1.109   1_655 S
O1133  Zn1153  1.958   .     S
O1133  Zn1152  1.957   .     S
O1133  Zn1154  1.940   .     S
O1133  Zn1155  1.925   .     S
O1134  Zn1153  1.929   .     S
O1135  Zn1155  1.942   .     S
O1136  Zn1154  1.938   .     S
O1137  Zn1152  1.925   .     S
O1139  C931    1.399   1_655 S
O1140  C1329   1.412   .     S
O1140  C1318   1.401   .     S
O1141  C400    1.383   1_556 S
O1144  Zn1152  1.938   .     S
O1145  Zn1155  1.939   .     S
O1146  Zn1153  1.925   .     S
O1147  Zn1154  1.938   .     S
O1148  Zn1155  1.941   .     S
O1149  Zn1152  1.929   .     S
O1150  Zn1153  1.938   .     S
O1151  Zn1154  1.932   .     S
C1156  O1223   1.273   .     A
C1156  C1162   1.446   .     S
C1156  O1225   1.265   .     A
C1157  C1182   1.408   .     A
C1157  C1171   1.394   .     A
C1157  F1186   1.360   .     S
C1158  O1215   1.386   .     S
C1158  C1170   1.405   .     A
C1158  C1171   1.401   .     A
C1159  O1224   1.286   .     A
C1159  C1161   1.463   .     S
C1159  O1226   1.276   .     A
C1160  C1172   1.401   .     A
C1160  C1169   1.472   .     S
C1160  C1181   1.417   .     A
C1161  C1239   1.353   .     S
C1161  O1297   1.388   .     S
C1162  C1315   1.353   1_455 S
C1162  O1370   1.399   1_455 S
C1163  C1166   1.453   .     S
C1163  C702    1.344   1_565 S
C1163  H727    1.088   1_565 S
C1164  C1165   1.444   .     S
C1165  O1221   1.277   .     A
C1165  O1227   1.279   .     A
C1166  O1222   1.264   .     A
C1166  O1228   1.275   .     A
C1167  C1172   1.402   .     A
C1167  C485    1.396   1_556 S
C1167  O526    1.392   1_556 S
C1168  O1211   1.281   .     A
C1168  O1213   1.276   .     A
C1168  C1171   1.450   .     S
C1169  O1214   1.281   .     A
C1169  O1212   1.280   .     A
C1172  H1203   1.082   .     S
C1173  H1206   1.108   .     S
C1173  O1215   1.411   .     S
C1173  H1205   1.115   .     S
C1173  H1204   1.109   .     S
C1174  H1209   1.109   .     S
C1174  O1216   1.412   .     S
C1174  H1284   1.112   .     S
C1174  H1285   1.114   .     S
C1175  H1190   1.113   .     S
C1175  H1192   1.109   .     S
C1175  H1191   1.112   .     S
C1176  H1193   1.109   .     S
C1176  H1194   1.113   .     S
C1176  H1195   1.113   .     S
C1176  O1218   1.409   .     S
C1177  H1196   1.111   .     S
C1177  H1197   1.114   .     S
C1177  H659    1.109   1_456 S
C1177  O526    1.412   1_556 S
C1178  F1187   1.357   .     S
C1179  O1220   1.410   .     S
C1179  H1199   1.113   .     S
C1179  H1202   1.109   .     S
C1179  H1201   1.112   .     S
C1180  C1181   1.422   .     A
C1180  C485    1.422   1_556 S
C1180  C489    1.426   1_556 S
C1181  C1185   1.415   .     A
C1183  C1184   1.395   .     A
C1183  C477    1.412   1_556 S
C1183  C489    1.421   1_556 S
C1184  H1200   1.084   .     S
C1184  C1185   1.385   .     A
C1185  F1188   1.358   .     S
H1207  C1328   1.112   1_455 S
H1208  C1328   1.114   1_455 S
O1210  Zn1230  1.958   .     S
O1210  Zn1229  1.957   .     S
O1210  Zn1231  1.940   .     S
O1210  Zn1232  1.925   .     S
O1211  Zn1230  1.929   .     S
O1212  Zn1232  1.942   .     S
O1213  Zn1231  1.938   .     S
O1214  Zn1229  1.925   .     S
O1216  C1239   1.399   .     S
O1217  C713    1.412   1_565 S
O1217  C702    1.401   1_565 S
O1218  C477    1.383   1_556 S
O1220  C1315   1.388   1_455 S
O1221  Zn1229  1.938   .     S
O1222  Zn1232  1.939   .     S
O1223  Zn1230  1.925   .     S
O1224  Zn1231  1.938   .     S
O1225  Zn1232  1.941   .     S
O1226  Zn1229  1.929   .     S
O1227  Zn1230  1.938   .     S
O1228  Zn1231  1.932   .     S
C1233  O1300   1.273   .     A
C1233  C1239   1.446   .     S
C1233  O1302   1.265   .     A
C1234  C1259   1.408   .     A
C1234  C1248   1.394   .     A
C1234  F1263   1.360   .     S
C1235  O1292   1.386   .     S
C1235  C1247   1.405   .     A
C1235  C1248   1.401   .     A
C1236  O1301   1.286   .     A
C1236  C1238   1.463   .     S
C1236  O1303   1.276   .     A
C1237  C1249   1.401   .     A
C1237  C1246   1.472   .     S
C1237  C1258   1.417   .     A
C1238  C1316   1.353   .     S
C1238  O1374   1.388   .     S
C1240  C1243   1.453   .     S
C1240  C779    1.344   1_565 S
C1240  H804    1.088   1_565 S
C1241  C1242   1.444   .     S
C1242  O1298   1.277   .     A
C1242  O1304   1.279   .     A
C1243  O1299   1.264   .     A
C1243  O1305   1.275   .     A
C1244  C1249   1.402   .     A
C1244  C562    1.396   1_556 S
C1244  O603    1.392   1_556 S
C1245  O1288   1.281   .     A
C1245  O1290   1.276   .     A
C1245  C1248   1.450   .     S
C1246  O1291   1.281   .     A
C1246  O1289   1.280   .     A
C1249  H1280   1.082   .     S
C1250  H1283   1.108   .     S
C1250  O1292   1.411   .     S
C1250  H1282   1.115   .     S
C1250  H1281   1.109   .     S
C1251  H1286   1.109   .     S
C1251  O1293   1.412   .     S
C1251  H1361   1.112   .     S
C1251  H1362   1.114   .     S
C1252  H1267   1.113   .     S
C1252  H1269   1.109   .     S
C1252  H1268   1.112   .     S
C1253  H1270   1.109   .     S
C1253  H1271   1.113   .     S
C1253  H1272   1.113   .     S
C1253  O1295   1.409   .     S
C1254  H1273   1.111   .     S
C1254  H1274   1.114   .     S
C1254  H505    1.109   1_556 S
C1254  O603    1.412   1_556 S
C1255  F1264   1.357   .     S
C1256  O1297   1.410   .     S
C1256  H1276   1.113   .     S
C1256  H1279   1.109   .     S
C1256  H1278   1.112   .     S
C1257  C1258   1.422   .     A
C1257  C562    1.422   1_556 S
C1257  C566    1.426   1_556 S
C1258  C1262   1.415   .     A
C1260  C1261   1.395   .     A
C1260  C554    1.412   1_556 S
C1260  C566    1.421   1_556 S
C1261  H1277   1.084   .     S
C1261  C1262   1.385   .     A
C1262  F1265   1.358   .     S
O1287  Zn1307  1.958   .     S
O1287  Zn1306  1.957   .     S
O1287  Zn1308  1.940   .     S
O1287  Zn1309  1.925   .     S
O1288  Zn1307  1.929   .     S
O1289  Zn1309  1.942   .     S
O1290  Zn1308  1.938   .     S
O1291  Zn1306  1.925   .     S
O1293  C1316   1.399   .     S
O1294  C790    1.412   1_565 S
O1294  C779    1.401   1_565 S
O1295  C554    1.383   1_556 S
O1298  Zn1306  1.938   .     S
O1299  Zn1309  1.939   .     S
O1300  Zn1307  1.925   .     S
O1301  Zn1308  1.938   .     S
O1302  Zn1309  1.941   .     S
O1303  Zn1306  1.929   .     S
O1304  Zn1307  1.938   .     S
O1305  Zn1308  1.932   .     S
C1310  O1377   1.273   .     A
C1310  C1316   1.446   .     S
C1310  O1379   1.265   .     A
C1311  C1336   1.408   .     A
C1311  C1325   1.394   .     A
C1311  F1340   1.360   .     S
C1312  O1369   1.386   .     S
C1312  C1324   1.405   .     A
C1312  C1325   1.401   .     A
C1313  O1378   1.286   .     A
C1313  C1315   1.463   .     S
C1313  O1380   1.276   .     A
C1314  C1326   1.401   .     A
C1314  C1323   1.472   .     S
C1314  C1335   1.417   .     A
C1315  C1162   1.353   1_655 S
C1315  O1220   1.388   1_655 S
C1317  C1320   1.453   .     S
C1317  C856    1.344   1_565 S
C1317  H881    1.088   1_565 S
C1318  C1319   1.444   .     S
C1319  O1375   1.277   .     A
C1319  O1381   1.279   .     A
C1320  O1376   1.264   .     A
C1320  O1382   1.275   .     A
C1321  C1326   1.402   .     A
C1321  C639    1.396   1_556 S
C1321  O680    1.392   1_556 S
C1322  O1365   1.281   .     A
C1322  O1367   1.276   .     A
C1322  C1325   1.450   .     S
C1323  O1368   1.281   .     A
C1323  O1366   1.280   .     A
C1326  H1357   1.082   .     S
C1327  H1360   1.108   .     S
C1327  O1369   1.411   .     S
C1327  H1359   1.115   .     S
C1327  H1358   1.109   .     S
C1328  H1363   1.109   .     S
C1328  O1370   1.412   .     S
C1328  H1207   1.112   1_655 S
C1328  H1208   1.114   1_655 S
C1329  H1344   1.113   .     S
C1329  H1346   1.109   .     S
C1329  H1345   1.112   .     S
C1330  H1347   1.109   .     S
C1330  H1348   1.113   .     S
C1330  H1349   1.113   .     S
C1330  O1372   1.409   .     S
C1331  H1350   1.111   .     S
C1331  H1351   1.114   .     S
C1331  H582    1.109   1_556 S
C1331  O680    1.412   1_556 S
C1332  F1341   1.357   .     S
C1333  O1374   1.410   .     S
C1333  H1353   1.113   .     S
C1333  H1356   1.109   .     S
C1333  H1355   1.112   .     S
C1334  C1335   1.422   .     A
C1334  C639    1.422   1_556 S
C1334  C643    1.426   1_556 S
C1335  C1339   1.415   .     A
C1337  C1338   1.395   .     A
C1337  C631    1.412   1_556 S
C1337  C643    1.421   1_556 S
C1338  H1354   1.084   .     S
C1338  C1339   1.385   .     A
C1339  F1342   1.358   .     S
H1352  C484    1.109   1_655 S
O1364  Zn1384  1.958   .     S
O1364  Zn1383  1.957   .     S
O1364  Zn1385  1.940   .     S
O1364  Zn1386  1.925   .     S
O1365  Zn1384  1.929   .     S
O1366  Zn1386  1.942   .     S
O1367  Zn1385  1.938   .     S
O1368  Zn1383  1.925   .     S
O1370  C1162   1.399   1_655 S
O1371  C867    1.412   1_565 S
O1371  C856    1.401   1_565 S
O1372  C631    1.383   1_556 S
O1375  Zn1383  1.938   .     S
O1376  Zn1386  1.939   .     S
O1377  Zn1384  1.925   .     S
O1378  Zn1385  1.938   .     S
O1379  Zn1386  1.941   .     S
O1380  Zn1383  1.929   .     S
O1381  Zn1384  1.938   .     S
O1382  Zn1385  1.932   .     S
